MODEL 1
REMARK VINA RESULT:      -8.5      0.000      0.000
REMARK  Name = 2995
REMARK  4 active torsions:
REMARK  status: ('A' for Active; 'I' for Inactive)
REMARK    1  A    between atoms: N_1  and  C_16
REMARK    2  A    between atoms: C_16  and  C_17
REMARK    3  A    between atoms: C_17  and  C_18
REMARK    4  A    between atoms: C_18  and  N_19
REMARK                            x       y       z     vdW  Elec       q    Type
REMARK                         _______ _______ _______ _____ _____    ______ ____
ROOT
ATOM      1  N   UNL     1      32.938 -13.186 -23.108  0.00  0.00    -0.287 N 
ATOM      2  C   UNL     1      34.357 -11.032 -24.449  0.00  0.00    +0.032 C 
ATOM      3  C   UNL     1      33.230 -10.190 -23.874  0.00  0.00    +0.032 C 
ATOM      4  C   UNL     1      33.109 -13.220 -24.517  0.00  0.00    +0.048 C 
ATOM      5  C   UNL     1      32.436 -12.123 -22.309  0.00  0.00    +0.048 C 
ATOM      6  C   UNL     1      33.789 -12.200 -25.202  0.00  0.00    -0.008 C 
ATOM      7  C   UNL     1      32.528 -10.753 -22.656  0.00  0.00    -0.008 C 
ATOM      8  C   UNL     1      32.603 -14.297 -25.277  0.00  0.00    +0.015 C 
ATOM      9  C   UNL     1      31.751 -12.424 -21.101  0.00  0.00    +0.015 C 
ATOM     10  C   UNL     1      33.953 -12.268 -26.596  0.00  0.00    -0.003 C 
ATOM     11  C   UNL     1      31.923  -9.776 -21.826  0.00  0.00    -0.003 C 
ATOM     12  C   UNL     1      32.768 -14.357 -26.662  0.00  0.00    +0.001 C 
ATOM     13  C   UNL     1      31.178 -11.444 -20.286  0.00  0.00    +0.001 C 
ATOM     14  C   UNL     1      33.445 -13.341 -27.323  0.00  0.00    -0.000 C 
ATOM     15  C   UNL     1      31.260 -10.114 -20.653  0.00  0.00    -0.000 C 
ENDROOT
BRANCH   1  16
ATOM     16  C   UNL     1      33.178 -14.481 -22.449  0.00  0.00    +0.093 C 
BRANCH  16  17
ATOM     17  C   UNL     1      34.667 -14.826 -22.463  0.00  0.00    -0.002 C 
BRANCH  17  18
ATOM     18  C   UNL     1      34.980 -16.281 -22.828  0.00  0.00    -0.080 C 
BRANCH  18  19
ATOM     19  N   UNL     1      35.419 -16.413 -24.211  0.00  0.00    +0.382 N 
ATOM     20  C   UNL     1      34.658 -17.447 -24.902  0.00  0.00    -0.106 C 
ATOM     21  H   UNL     1      36.408 -16.661 -24.226  0.00  0.00    -0.085 HD
ATOM     22  H   UNL     1      35.267 -15.524 -24.688  0.00  0.00    -0.085 HD
ENDBRANCH  18  19
ENDBRANCH  17  18
ENDBRANCH  16  17
ENDBRANCH   1  16
TORSDOF 4
ENDMDL
MODEL 2
REMARK VINA RESULT:      -8.4      2.721      5.463
REMARK  Name = 2995
REMARK  4 active torsions:
REMARK  status: ('A' for Active; 'I' for Inactive)
REMARK    1  A    between atoms: N_1  and  C_16
REMARK    2  A    between atoms: C_16  and  C_17
REMARK    3  A    between atoms: C_17  and  C_18
REMARK    4  A    between atoms: C_18  and  N_19
REMARK                            x       y       z     vdW  Elec       q    Type
REMARK                         _______ _______ _______ _____ _____    ______ ____
ROOT
ATOM      1  N   UNL     1      32.103  -8.967 -22.792  0.00  0.00    -0.287 N 
ATOM      2  C   UNL     1      33.060  -6.949 -20.931  0.00  0.00    +0.032 C 
ATOM      3  C   UNL     1      32.216  -7.737 -19.942  0.00  0.00    +0.032 C 
ATOM      4  C   UNL     1      31.793  -7.599 -23.010  0.00  0.00    +0.048 C 
ATOM      5  C   UNL     1      31.930  -9.729 -21.604  0.00  0.00    +0.048 C 
ATOM      6  C   UNL     1      32.236  -6.595 -22.136  0.00  0.00    -0.008 C 
ATOM      7  C   UNL     1      31.943  -9.183 -20.298  0.00  0.00    -0.008 C 
ATOM      8  C   UNL     1      31.029  -7.205 -24.130  0.00  0.00    +0.015 C 
ATOM      9  C   UNL     1      31.678 -11.124 -21.704  0.00  0.00    +0.015 C 
ATOM     10  C   UNL     1      31.923  -5.247 -22.384  0.00  0.00    -0.003 C 
ATOM     11  C   UNL     1      31.681 -10.020 -19.185  0.00  0.00    -0.003 C 
ATOM     12  C   UNL     1      30.720  -5.865 -24.371  0.00  0.00    +0.001 C 
ATOM     13  C   UNL     1      31.441 -11.936 -20.591  0.00  0.00    +0.001 C 
ATOM     14  C   UNL     1      31.169  -4.884 -23.497  0.00  0.00    -0.000 C 
ATOM     15  C   UNL     1      31.437 -11.380 -19.326  0.00  0.00    -0.000 C 
ENDROOT
BRANCH   1  16
ATOM     16  C   UNL     1      32.509  -9.686 -24.011  0.00  0.00    +0.093 C 
BRANCH  16  17
ATOM     17  C   UNL     1      34.025  -9.874 -24.047  0.00  0.00    -0.002 C 
BRANCH  17  18
ATOM     18  C   UNL     1      34.491 -11.164 -24.731  0.00  0.00    -0.080 C 
BRANCH  18  19
ATOM     19  N   UNL     1      34.175 -12.345 -23.938  0.00  0.00    +0.382 N 
ATOM     20  C   UNL     1      33.406 -13.305 -24.717  0.00  0.00    -0.106 C 
ATOM     21  H   UNL     1      33.632 -12.065 -23.122  0.00  0.00    -0.085 HD
ATOM     22  H   UNL     1      35.049 -12.786 -23.648  0.00  0.00    -0.085 HD
ENDBRANCH  18  19
ENDBRANCH  17  18
ENDBRANCH  16  17
ENDBRANCH   1  16
TORSDOF 4
ENDMDL
MODEL 3
REMARK VINA RESULT:      -8.3      4.306      7.033
REMARK  Name = 2995
REMARK  4 active torsions:
REMARK  status: ('A' for Active; 'I' for Inactive)
REMARK    1  A    between atoms: N_1  and  C_16
REMARK    2  A    between atoms: C_16  and  C_17
REMARK    3  A    between atoms: C_17  and  C_18
REMARK    4  A    between atoms: C_18  and  N_19
REMARK                            x       y       z     vdW  Elec       q    Type
REMARK                         _______ _______ _______ _____ _____    ______ ____
ROOT
ATOM      1  N   UNL     1      32.164  -6.810 -23.452  0.00  0.00    -0.287 N 
ATOM      2  C   UNL     1      34.937  -6.964 -24.309  0.00  0.00    +0.032 C 
ATOM      3  C   UNL     1      34.395  -6.259 -25.541  0.00  0.00    +0.032 C 
ATOM      4  C   UNL     1      32.785  -8.076 -23.614  0.00  0.00    +0.048 C 
ATOM      5  C   UNL     1      32.122  -5.727 -24.373  0.00  0.00    +0.048 C 
ATOM      6  C   UNL     1      34.122  -8.193 -24.025  0.00  0.00    -0.008 C 
ATOM      7  C   UNL     1      33.111  -5.478 -25.355  0.00  0.00    -0.008 C 
ATOM      8  C   UNL     1      32.072  -9.266 -23.354  0.00  0.00    +0.015 C 
ATOM      9  C   UNL     1      31.006  -4.848 -24.362  0.00  0.00    +0.015 C 
ATOM     10  C   UNL     1      34.715  -9.461 -24.165  0.00  0.00    -0.003 C 
ATOM     11  C   UNL     1      32.932  -4.416 -26.277  0.00  0.00    -0.003 C 
ATOM     12  C   UNL     1      32.665 -10.522 -23.496  0.00  0.00    +0.001 C 
ATOM     13  C   UNL     1      30.858  -3.794 -25.268  0.00  0.00    +0.001 C 
ATOM     14  C   UNL     1      33.989 -10.619 -23.901  0.00  0.00    -0.000 C 
ATOM     15  C   UNL     1      31.824  -3.580 -26.233  0.00  0.00    -0.000 C 
ENDROOT
BRANCH   1  16
ATOM     16  C   UNL     1      31.345  -6.701 -22.233  0.00  0.00    +0.093 C 
BRANCH  16  17
ATOM     17  C   UNL     1      32.227  -6.439 -21.013  0.00  0.00    -0.002 C 
BRANCH  17  18
ATOM     18  C   UNL     1      31.957  -7.363 -19.821  0.00  0.00    -0.080 C 
BRANCH  18  19
ATOM     19  N   UNL     1      32.768  -8.573 -19.875  0.00  0.00    +0.382 N 
ATOM     20  C   UNL     1      31.964  -9.752 -19.579  0.00  0.00    -0.106 C 
ATOM     21  H   UNL     1      33.521  -8.502 -19.192  0.00  0.00    -0.085 HD
ATOM     22  H   UNL     1      33.150  -8.667 -20.817  0.00  0.00    -0.085 HD
ENDBRANCH  18  19
ENDBRANCH  17  18
ENDBRANCH  16  17
ENDBRANCH   1  16
TORSDOF 4
ENDMDL
MODEL 4
REMARK VINA RESULT:      -8.1      1.668      4.071
REMARK  Name = 2995
REMARK  4 active torsions:
REMARK  status: ('A' for Active; 'I' for Inactive)
REMARK    1  A    between atoms: N_1  and  C_16
REMARK    2  A    between atoms: C_16  and  C_17
REMARK    3  A    between atoms: C_17  and  C_18
REMARK    4  A    between atoms: C_18  and  N_19
REMARK                            x       y       z     vdW  Elec       q    Type
REMARK                         _______ _______ _______ _____ _____    ______ ____
ROOT
ATOM      1  N   UNL     1      33.729 -11.510 -23.941  0.00  0.00    -0.287 N 
ATOM      2  C   UNL     1      31.269 -11.493 -22.394  0.00  0.00    +0.032 C 
ATOM      3  C   UNL     1      31.878 -10.236 -21.797  0.00  0.00    +0.032 C 
ATOM      4  C   UNL     1      33.430 -12.595 -23.076  0.00  0.00    +0.048 C 
ATOM      5  C   UNL     1      33.720 -10.120 -23.643  0.00  0.00    +0.048 C 
ATOM      6  C   UNL     1      32.252 -12.625 -22.313  0.00  0.00    -0.008 C 
ATOM      7  C   UNL     1      32.910  -9.524 -22.647  0.00  0.00    -0.008 C 
ATOM      8  C   UNL     1      34.313 -13.691 -22.964  0.00  0.00    +0.015 C 
ATOM      9  C   UNL     1      34.604  -9.254 -24.341  0.00  0.00    +0.015 C 
ATOM     10  C   UNL     1      31.977 -13.719 -21.473  0.00  0.00    -0.003 C 
ATOM     11  C   UNL     1      33.037  -8.138 -22.375  0.00  0.00    -0.003 C 
ATOM     12  C   UNL     1      34.034 -14.774 -22.128  0.00  0.00    +0.001 C 
ATOM     13  C   UNL     1      34.700  -7.885 -24.071  0.00  0.00    +0.001 C 
ATOM     14  C   UNL     1      32.864 -14.788 -21.382  0.00  0.00    -0.000 C 
ATOM     15  C   UNL     1      33.916  -7.327 -23.081  0.00  0.00    -0.000 C 
ENDROOT
BRANCH   1  16
ATOM     16  C   UNL     1      34.256 -11.924 -25.253  0.00  0.00    +0.093 C 
BRANCH  16  17
ATOM     17  C   UNL     1      33.116 -12.142 -26.247  0.00  0.00    -0.002 C 
BRANCH  17  18
ATOM     18  C   UNL     1      33.180 -13.471 -27.007  0.00  0.00    -0.080 C 
BRANCH  18  19
ATOM     19  N   UNL     1      32.470 -14.534 -26.307  0.00  0.00    +0.382 N 
ATOM     20  C   UNL     1      33.392 -15.571 -25.863  0.00  0.00    -0.106 C 
ATOM     21  H   UNL     1      31.781 -14.946 -26.935  0.00  0.00    -0.085 HD
ATOM     22  H   UNL     1      32.010 -14.134 -25.488  0.00  0.00    -0.085 HD
ENDBRANCH  18  19
ENDBRANCH  17  18
ENDBRANCH  16  17
ENDBRANCH   1  16
TORSDOF 4
ENDMDL
MODEL 5
REMARK VINA RESULT:      -8.0      1.364      5.418
REMARK  Name = 2995
REMARK  4 active torsions:
REMARK  status: ('A' for Active; 'I' for Inactive)
REMARK    1  A    between atoms: N_1  and  C_16
REMARK    2  A    between atoms: C_16  and  C_17
REMARK    3  A    between atoms: C_17  and  C_18
REMARK    4  A    between atoms: C_18  and  N_19
REMARK                            x       y       z     vdW  Elec       q    Type
REMARK                         _______ _______ _______ _____ _____    ______ ____
ROOT
ATOM      1  N   UNL     1      33.780 -14.621 -23.053  0.00  0.00    -0.287 N 
ATOM      2  C   UNL     1      32.941 -15.545 -25.679  0.00  0.00    +0.032 C 
ATOM      3  C   UNL     1      34.130 -16.478 -25.519  0.00  0.00    +0.032 C 
ATOM      4  C   UNL     1      33.768 -13.720 -24.150  0.00  0.00    +0.048 C 
ATOM      5  C   UNL     1      34.374 -15.911 -22.983  0.00  0.00    +0.048 C 
ATOM      6  C   UNL     1      33.368 -14.127 -25.433  0.00  0.00    -0.008 C 
ATOM      7  C   UNL     1      34.574 -16.759 -24.098  0.00  0.00    -0.008 C 
ATOM      8  C   UNL     1      34.151 -12.372 -23.979  0.00  0.00    +0.015 C 
ATOM      9  C   UNL     1      34.851 -16.389 -21.732  0.00  0.00    +0.015 C 
ATOM     10  C   UNL     1      33.354 -13.208 -26.498  0.00  0.00    -0.003 C 
ATOM     11  C   UNL     1      35.249 -17.993 -23.930  0.00  0.00    -0.003 C 
ATOM     12  C   UNL     1      34.137 -11.465 -25.040  0.00  0.00    +0.001 C 
ATOM     13  C   UNL     1      35.497 -17.620 -21.584  0.00  0.00    +0.001 C 
ATOM     14  C   UNL     1      33.737 -11.884 -26.302  0.00  0.00    -0.000 C 
ATOM     15  C   UNL     1      35.701 -18.423 -22.689  0.00  0.00    -0.000 C 
ENDROOT
BRANCH   1  16
ATOM     16  C   UNL     1      33.234 -14.051 -21.810  0.00  0.00    +0.093 C 
BRANCH  16  17
ATOM     17  C   UNL     1      31.867 -13.416 -22.063  0.00  0.00    -0.002 C 
BRANCH  17  18
ATOM     18  C   UNL     1      31.610 -12.126 -21.277  0.00  0.00    -0.080 C 
BRANCH  18  19
ATOM     19  N   UNL     1      30.764 -11.197 -22.016  0.00  0.00    +0.382 N 
ATOM     20  C   UNL     1      31.519 -10.020 -22.426  0.00  0.00    -0.106 C 
ATOM     21  H   UNL     1      29.988 -10.907 -21.423  0.00  0.00    -0.085 HD
ATOM     22  H   UNL     1      30.416 -11.669 -22.852  0.00  0.00    -0.085 HD
ENDBRANCH  18  19
ENDBRANCH  17  18
ENDBRANCH  16  17
ENDBRANCH   1  16
TORSDOF 4
ENDMDL
MODEL 6
REMARK VINA RESULT:      -8.0      4.011      6.175
REMARK  Name = 2995
REMARK  4 active torsions:
REMARK  status: ('A' for Active; 'I' for Inactive)
REMARK    1  A    between atoms: N_1  and  C_16
REMARK    2  A    between atoms: C_16  and  C_17
REMARK    3  A    between atoms: C_17  and  C_18
REMARK    4  A    between atoms: C_18  and  N_19
REMARK                            x       y       z     vdW  Elec       q    Type
REMARK                         _______ _______ _______ _____ _____    ______ ____
ROOT
ATOM      1  N   UNL     1      32.101  -9.069 -22.694  0.00  0.00    -0.287 N 
ATOM      2  C   UNL     1      32.935  -7.006 -20.824  0.00  0.00    +0.032 C 
ATOM      3  C   UNL     1      32.096  -7.817 -19.851  0.00  0.00    +0.032 C 
ATOM      4  C   UNL     1      31.746  -7.715 -22.929  0.00  0.00    +0.048 C 
ATOM      5  C   UNL     1      31.925  -9.829 -21.505  0.00  0.00    +0.048 C 
ATOM      6  C   UNL     1      32.131  -6.689 -22.051  0.00  0.00    -0.008 C 
ATOM      7  C   UNL     1      31.885  -9.275 -20.203  0.00  0.00    -0.008 C 
ATOM      8  C   UNL     1      30.997  -7.356 -24.071  0.00  0.00    +0.015 C 
ATOM      9  C   UNL     1      31.727 -11.233 -21.601  0.00  0.00    +0.015 C 
ATOM     10  C   UNL     1      31.775  -5.355 -22.317  0.00  0.00    -0.003 C 
ATOM     11  C   UNL     1      31.625 -10.114 -19.091  0.00  0.00    -0.003 C 
ATOM     12  C   UNL     1      30.646  -6.029 -24.329  0.00  0.00    +0.001 C 
ATOM     13  C   UNL     1      31.492 -12.046 -20.489  0.00  0.00    +0.001 C 
ATOM     14  C   UNL     1      31.036  -5.027 -23.451  0.00  0.00    -0.000 C 
ATOM     15  C   UNL     1      31.436 -11.483 -19.228  0.00  0.00    -0.000 C 
ENDROOT
BRANCH   1  16
ATOM     16  C   UNL     1      32.564  -9.780 -23.897  0.00  0.00    +0.093 C 
BRANCH  16  17
ATOM     17  C   UNL     1      34.052 -10.110 -23.790  0.00  0.00    -0.002 C 
BRANCH  17  18
ATOM     18  C   UNL     1      34.978  -9.113 -24.495  0.00  0.00    -0.080 C 
BRANCH  18  19
ATOM     19  N   UNL     1      35.009  -7.824 -23.815  0.00  0.00    +0.382 N 
ATOM     20  C   UNL     1      34.642  -6.747 -24.725  0.00  0.00    -0.106 C 
ATOM     21  H   UNL     1      35.949  -7.656 -23.460  0.00  0.00    -0.085 HD
ATOM     22  H   UNL     1      34.336  -7.845 -23.047  0.00  0.00    -0.085 HD
ENDBRANCH  18  19
ENDBRANCH  17  18
ENDBRANCH  16  17
ENDBRANCH   1  16
TORSDOF 4
ENDMDL
MODEL 7
REMARK VINA RESULT:      -7.9     10.450     13.826
REMARK  Name = 2995
REMARK  4 active torsions:
REMARK  status: ('A' for Active; 'I' for Inactive)
REMARK    1  A    between atoms: N_1  and  C_16
REMARK    2  A    between atoms: C_16  and  C_17
REMARK    3  A    between atoms: C_17  and  C_18
REMARK    4  A    between atoms: C_18  and  N_19
REMARK                            x       y       z     vdW  Elec       q    Type
REMARK                         _______ _______ _______ _____ _____    ______ ____
ROOT
ATOM      1  N   UNL     1      34.743 -23.566 -16.253  0.00  0.00    -0.287 N 
ATOM      2  C   UNL     1      37.185 -22.127 -15.604  0.00  0.00    +0.032 C 
ATOM      3  C   UNL     1      37.233 -21.917 -17.108  0.00  0.00    +0.032 C 
ATOM      4  C   UNL     1      35.822 -24.246 -15.629  0.00  0.00    +0.048 C 
ATOM      5  C   UNL     1      34.777 -22.746 -17.415  0.00  0.00    +0.048 C 
ATOM      6  C   UNL     1      37.016 -23.587 -15.298  0.00  0.00    -0.008 C 
ATOM      7  C   UNL     1      35.911 -22.014 -17.841  0.00  0.00    -0.008 C 
ATOM      8  C   UNL     1      35.718 -25.618 -15.310  0.00  0.00    +0.015 C 
ATOM      9  C   UNL     1      33.628 -22.673 -18.248  0.00  0.00    +0.015 C 
ATOM     10  C   UNL     1      38.062 -24.285 -14.668  0.00  0.00    -0.003 C 
ATOM     11  C   UNL     1      35.863 -21.290 -19.058  0.00  0.00    -0.003 C 
ATOM     12  C   UNL     1      36.760 -26.305 -14.685  0.00  0.00    +0.001 C 
ATOM     13  C   UNL     1      33.595 -21.937 -19.435  0.00  0.00    +0.001 C 
ATOM     14  C   UNL     1      37.934 -25.638 -14.364  0.00  0.00    -0.000 C 
ATOM     15  C   UNL     1      34.719 -21.246 -19.845  0.00  0.00    -0.000 C 
ENDROOT
BRANCH   1  16
ATOM     16  C   UNL     1      33.424 -23.898 -15.690  0.00  0.00    +0.093 C 
BRANCH  16  17
ATOM     17  C   UNL     1      33.159 -23.084 -14.424  0.00  0.00    -0.002 C 
BRANCH  17  18
ATOM     18  C   UNL     1      31.886 -23.481 -13.668  0.00  0.00    -0.080 C 
BRANCH  18  19
ATOM     19  N   UNL     1      31.584 -24.899 -13.815  0.00  0.00    +0.382 N 
ATOM     20  C   UNL     1      30.249 -25.093 -14.365  0.00  0.00    -0.106 C 
ATOM     21  H   UNL     1      31.638 -25.349 -12.902  0.00  0.00    -0.085 HD
ATOM     22  H   UNL     1      32.263 -25.312 -14.456  0.00  0.00    -0.085 HD
ENDBRANCH  18  19
ENDBRANCH  17  18
ENDBRANCH  16  17
ENDBRANCH   1  16
TORSDOF 4
ENDMDL
MODEL 8
REMARK VINA RESULT:      -7.9     10.556     13.942
REMARK  Name = 2995
REMARK  4 active torsions:
REMARK  status: ('A' for Active; 'I' for Inactive)
REMARK    1  A    between atoms: N_1  and  C_16
REMARK    2  A    between atoms: C_16  and  C_17
REMARK    3  A    between atoms: C_17  and  C_18
REMARK    4  A    between atoms: C_18  and  N_19
REMARK                            x       y       z     vdW  Elec       q    Type
REMARK                         _______ _______ _______ _____ _____    ______ ____
ROOT
ATOM      1  N   UNL     1      34.803 -23.638 -16.233  0.00  0.00    -0.287 N 
ATOM      2  C   UNL     1      37.266 -22.212 -15.640  0.00  0.00    +0.032 C 
ATOM      3  C   UNL     1      37.262 -21.971 -17.141  0.00  0.00    +0.032 C 
ATOM      4  C   UNL     1      35.902 -24.330 -15.660  0.00  0.00    +0.048 C 
ATOM      5  C   UNL     1      34.796 -22.795 -17.378  0.00  0.00    +0.048 C 
ATOM      6  C   UNL     1      37.108 -23.678 -15.358  0.00  0.00    -0.008 C 
ATOM      7  C   UNL     1      35.915 -22.054 -17.829  0.00  0.00    -0.008 C 
ATOM      8  C   UNL     1      35.810 -25.708 -15.365  0.00  0.00    +0.015 C 
ATOM      9  C   UNL     1      33.619 -22.706 -18.168  0.00  0.00    +0.015 C 
ATOM     10  C   UNL     1      38.175 -24.388 -14.780  0.00  0.00    -0.003 C 
ATOM     11  C   UNL     1      35.824 -21.306 -19.029  0.00  0.00    -0.003 C 
ATOM     12  C   UNL     1      36.873 -26.408 -14.792  0.00  0.00    +0.001 C 
ATOM     13  C   UNL     1      33.544 -21.946 -19.339  0.00  0.00    +0.001 C 
ATOM     14  C   UNL     1      38.058 -25.746 -14.498  0.00  0.00    -0.000 C 
ATOM     15  C   UNL     1      34.653 -21.246 -19.773  0.00  0.00    -0.000 C 
ENDROOT
BRANCH   1  16
ATOM     16  C   UNL     1      33.505 -23.982 -15.630  0.00  0.00    +0.093 C 
BRANCH  16  17
ATOM     17  C   UNL     1      33.304 -23.229 -14.315  0.00  0.00    -0.002 C 
BRANCH  17  18
ATOM     18  C   UNL     1      33.663 -24.031 -13.060  0.00  0.00    -0.080 C 
BRANCH  18  19
ATOM     19  N   UNL     1      34.870 -23.528 -12.419  0.00  0.00    +0.382 N 
ATOM     20  C   UNL     1      35.595 -24.604 -11.757  0.00  0.00    -0.106 C 
ATOM     21  H   UNL     1      34.613 -22.824 -11.727  0.00  0.00    -0.085 HD
ATOM     22  H   UNL     1      35.474 -23.121 -13.134  0.00  0.00    -0.085 HD
ENDBRANCH  18  19
ENDBRANCH  17  18
ENDBRANCH  16  17
ENDBRANCH   1  16
TORSDOF 4
ENDMDL
MODEL 9
REMARK VINA RESULT:      -7.9     11.410     14.580
REMARK  Name = 2995
REMARK  4 active torsions:
REMARK  status: ('A' for Active; 'I' for Inactive)
REMARK    1  A    between atoms: N_1  and  C_16
REMARK    2  A    between atoms: C_16  and  C_17
REMARK    3  A    between atoms: C_17  and  C_18
REMARK    4  A    between atoms: C_18  and  N_19
REMARK                            x       y       z     vdW  Elec       q    Type
REMARK                         _______ _______ _______ _____ _____    ______ ____
ROOT
ATOM      1  N   UNL     1      35.340 -24.033 -15.101  0.00  0.00    -0.287 N 
ATOM      2  C   UNL     1      37.524 -22.268 -15.852  0.00  0.00    +0.032 C 
ATOM      3  C   UNL     1      36.823 -22.289 -17.200  0.00  0.00    +0.032 C 
ATOM      4  C   UNL     1      36.680 -24.494 -15.027  0.00  0.00    +0.048 C 
ATOM      5  C   UNL     1      34.687 -23.403 -16.196  0.00  0.00    +0.048 C 
ATOM      6  C   UNL     1      37.763 -23.673 -15.380  0.00  0.00    -0.008 C 
ATOM      7  C   UNL     1      35.348 -22.632 -17.182  0.00  0.00    -0.008 C 
ATOM      8  C   UNL     1      36.967 -25.803 -14.583  0.00  0.00    +0.015 C 
ATOM      9  C   UNL     1      33.286 -23.577 -16.364  0.00  0.00    +0.015 C 
ATOM     10  C   UNL     1      39.080 -24.154 -15.285  0.00  0.00    -0.003 C 
ATOM     11  C   UNL     1      34.613 -22.114 -18.278  0.00  0.00    -0.003 C 
ATOM     12  C   UNL     1      38.277 -26.276 -14.491  0.00  0.00    +0.001 C 
ATOM     13  C   UNL     1      32.576 -23.040 -17.441  0.00  0.00    +0.001 C 
ATOM     14  C   UNL     1      39.336 -25.449 -14.842  0.00  0.00    -0.000 C 
ATOM     15  C   UNL     1      33.244 -22.309 -18.405  0.00  0.00    -0.000 C 
ENDROOT
BRANCH   1  16
ATOM     16  C   UNL     1      34.517 -24.407 -13.939  0.00  0.00    +0.093 C 
BRANCH  16  17
ATOM     17  C   UNL     1      34.942 -23.619 -12.700  0.00  0.00    -0.002 C 
BRANCH  17  18
ATOM     18  C   UNL     1      35.460 -24.481 -11.544  0.00  0.00    -0.080 C 
BRANCH  18  19
ATOM     19  N   UNL     1      36.589 -23.858 -10.864  0.00  0.00    +0.382 N 
ATOM     20  C   UNL     1      37.277 -22.925 -11.746  0.00  0.00    -0.106 C 
ATOM     21  H   UNL     1      37.243 -24.582 -10.569  0.00  0.00    -0.085 HD
ATOM     22  H   UNL     1      36.239 -23.344 -10.055  0.00  0.00    -0.085 HD
ENDBRANCH  18  19
ENDBRANCH  17  18
ENDBRANCH  16  17
ENDBRANCH   1  16
TORSDOF 4
ENDMDL
