MODEL 1
REMARK VINA RESULT:      -8.2      0.000      0.000
REMARK  Name = 444705
REMARK  6 active torsions:
REMARK  status: ('A' for Active; 'I' for Inactive)
REMARK    1  A    between atoms: C_3  and  C_14
REMARK    2  A    between atoms: C_12  and  C_18
REMARK    3  A    between atoms: C_18  and  C_19
REMARK    4  A    between atoms: C_19  and  C_20
REMARK    5  A    between atoms: C_20  and  C_22
REMARK    6  A    between atoms: C_22  and  O_23
REMARK                            x       y       z     vdW  Elec       q    Type
REMARK                         _______ _______ _______ _____ _____    ______ ____
ROOT
ATOM      1  C   UNL     1      36.723 -24.384 -14.868  0.00  0.00    +0.008 C 
ATOM      2  C   UNL     1      35.963 -24.261 -13.493  0.00  0.00    +0.019 C 
ATOM      3  C   UNL     1      35.771 -23.824 -15.971  0.00  0.00    +0.022 C 
ATOM      4  C   UNL     1      34.521 -24.208 -13.949  0.00  0.00    -0.027 C 
ATOM      5  C   UNL     1      34.423 -23.954 -15.323  0.00  0.00    -0.026 C 
ATOM      6  C   UNL     1      37.124 -25.821 -15.241  0.00  0.00    +0.001 C 
ATOM      7  C   UNL     1      36.226 -25.419 -12.519  0.00  0.00    +0.004 C 
ATOM      8  C   UNL     1      36.326 -22.944 -12.782  0.00  0.00    +0.004 C 
ATOM      9  C   UNL     1      33.373 -24.344 -13.178  0.00  0.00    -0.009 C 
ATOM     10  C   UNL     1      33.186 -23.844 -15.944  0.00  0.00    -0.002 C 
ATOM     11  C   UNL     1      32.126 -24.237 -13.798  0.00  0.00    -0.019 C 
ATOM     12  C   UNL     1      32.034 -23.988 -15.173  0.00  0.00    +0.030 C 
ATOM     13  C   UNL     1      30.896 -24.400 -12.964  0.00  0.00    +0.031 C 
ENDROOT
BRANCH   3  14
ATOM     14  C   UNL     1      36.088 -22.387 -16.375  0.00  0.00    +0.004 C 
ATOM     15  C   UNL     1      37.560 -22.068 -16.122  0.00  0.00    +0.000 C 
ATOM     16  C   UNL     1      35.734 -22.149 -17.842  0.00  0.00    +0.000 C 
ENDBRANCH   3  14
BRANCH  12  18
ATOM     17  O   UNL     1      30.136 -24.905 -16.215  0.00  0.00    -0.291 OA
ATOM     18  C   UNL     1      30.737 -23.884 -15.828  0.00  0.00    +0.173 C 
BRANCH  18  19
ATOM     19  C   UNL     1      30.097 -22.502 -16.045  0.00  0.00    +0.081 C 
BRANCH  19  20
ATOM     20  C   UNL     1      28.615 -22.461 -15.689  0.00  0.00    +0.117 C 
BRANCH  20  22
ATOM     21  O   UNL     1      27.169 -21.464 -17.346  0.00  0.00    -0.250 OA
ATOM     22  C   UNL     1      27.762 -22.452 -16.930  0.00  0.00    +0.314 C 
BRANCH  22  23
ATOM     23  O   UNL     1      27.708 -23.664 -17.535  0.00  0.00    -0.480 OA
ATOM     24  H   UNL     1      28.243 -23.837 -18.285  0.00  0.00    +0.295 HD
ENDBRANCH  22  23
ENDBRANCH  20  22
ENDBRANCH  19  20
ENDBRANCH  18  19
ENDBRANCH  12  18
TORSDOF 6
ENDMDL
MODEL 2
REMARK VINA RESULT:      -8.1     13.560     16.380
REMARK  Name = 444705
REMARK  6 active torsions:
REMARK  status: ('A' for Active; 'I' for Inactive)
REMARK    1  A    between atoms: C_3  and  C_14
REMARK    2  A    between atoms: C_12  and  C_18
REMARK    3  A    between atoms: C_18  and  C_19
REMARK    4  A    between atoms: C_19  and  C_20
REMARK    5  A    between atoms: C_20  and  C_22
REMARK    6  A    between atoms: C_22  and  O_23
REMARK                            x       y       z     vdW  Elec       q    Type
REMARK                         _______ _______ _______ _____ _____    ______ ____
ROOT
ATOM      1  C   UNL     1      31.936  -7.801 -22.436  0.00  0.00    +0.008 C 
ATOM      2  C   UNL     1      33.319  -7.615 -23.168  0.00  0.00    +0.019 C 
ATOM      3  C   UNL     1      31.749  -9.331 -22.189  0.00  0.00    +0.022 C 
ATOM      4  C   UNL     1      33.522  -8.984 -23.780  0.00  0.00    -0.027 C 
ATOM      5  C   UNL     1      32.655  -9.932 -23.224  0.00  0.00    -0.026 C 
ATOM      6  C   UNL     1      30.728  -7.273 -23.227  0.00  0.00    +0.001 C 
ATOM      7  C   UNL     1      33.332  -6.496 -24.220  0.00  0.00    +0.004 C 
ATOM      8  C   UNL     1      34.443  -7.334 -22.153  0.00  0.00    +0.004 C 
ATOM      9  C   UNL     1      34.447  -9.362 -24.747  0.00  0.00    -0.009 C 
ATOM     10  C   UNL     1      32.690 -11.260 -23.629  0.00  0.00    -0.002 C 
ATOM     11  C   UNL     1      34.485 -10.694 -25.160  0.00  0.00    -0.019 C 
ATOM     12  C   UNL     1      33.612 -11.638 -24.605  0.00  0.00    +0.030 C 
ATOM     13  C   UNL     1      35.472 -11.089 -26.211  0.00  0.00    +0.031 C 
ENDROOT
BRANCH   3  14
ATOM     14  C   UNL     1      32.109  -9.767 -20.773  0.00  0.00    +0.004 C 
ATOM     15  C   UNL     1      31.996  -8.594 -19.801  0.00  0.00    +0.000 C 
ATOM     16  C   UNL     1      31.217 -10.923 -20.321  0.00  0.00    +0.000 C 
ENDBRANCH   3  14
BRANCH  12  18
ATOM     17  O   UNL     1      33.320 -13.339 -26.202  0.00  0.00    -0.291 OA
ATOM     18  C   UNL     1      33.640 -13.029 -25.038  0.00  0.00    +0.173 C 
BRANCH  18  19
ATOM     19  C   UNL     1      34.070 -14.129 -24.054  0.00  0.00    +0.081 C 
BRANCH  19  20
ATOM     20  C   UNL     1      33.607 -15.522 -24.464  0.00  0.00    +0.117 C 
BRANCH  20  22
ATOM     21  O   UNL     1      34.874 -17.086 -25.799  0.00  0.00    -0.250 OA
ATOM     22  C   UNL     1      34.782 -16.410 -24.782  0.00  0.00    +0.314 C 
BRANCH  22  23
ATOM     23  O   UNL     1      35.728 -16.391 -23.810  0.00  0.00    -0.480 OA
ATOM     24  H   UNL     1      36.253 -15.625 -23.683  0.00  0.00    +0.295 HD
ENDBRANCH  22  23
ENDBRANCH  20  22
ENDBRANCH  19  20
ENDBRANCH  18  19
ENDBRANCH  12  18
TORSDOF 6
ENDMDL
MODEL 3
REMARK VINA RESULT:      -7.7     13.286     15.945
REMARK  Name = 444705
REMARK  6 active torsions:
REMARK  status: ('A' for Active; 'I' for Inactive)
REMARK    1  A    between atoms: C_3  and  C_14
REMARK    2  A    between atoms: C_12  and  C_18
REMARK    3  A    between atoms: C_18  and  C_19
REMARK    4  A    between atoms: C_19  and  C_20
REMARK    5  A    between atoms: C_20  and  C_22
REMARK    6  A    between atoms: C_22  and  O_23
REMARK                            x       y       z     vdW  Elec       q    Type
REMARK                         _______ _______ _______ _____ _____    ______ ____
ROOT
ATOM      1  C   UNL     1      32.384  -7.182 -22.798  0.00  0.00    +0.008 C 
ATOM      2  C   UNL     1      33.552  -7.742 -23.696  0.00  0.00    +0.019 C 
ATOM      3  C   UNL     1      31.964  -8.328 -21.824  0.00  0.00    +0.022 C 
ATOM      4  C   UNL     1      33.321  -9.234 -23.594  0.00  0.00    -0.027 C 
ATOM      5  C   UNL     1      32.448  -9.551 -22.547  0.00  0.00    -0.026 C 
ATOM      6  C   UNL     1      31.147  -6.720 -23.586  0.00  0.00    +0.001 C 
ATOM      7  C   UNL     1      33.526  -7.244 -25.149  0.00  0.00    +0.004 C 
ATOM      8  C   UNL     1      34.924  -7.391 -23.092  0.00  0.00    +0.004 C 
ATOM      9  C   UNL     1      33.884 -10.242 -24.368  0.00  0.00    -0.009 C 
ATOM     10  C   UNL     1      32.117 -10.870 -22.264  0.00  0.00    -0.002 C 
ATOM     11  C   UNL     1      33.554 -11.570 -24.090  0.00  0.00    -0.019 C 
ATOM     12  C   UNL     1      32.675 -11.882 -23.044  0.00  0.00    +0.030 C 
ATOM     13  C   UNL     1      34.152 -12.648 -24.936  0.00  0.00    +0.031 C 
ENDROOT
BRANCH   3  14
ATOM     14  C   UNL     1      32.569  -8.194 -20.431  0.00  0.00    +0.004 C 
ATOM     15  C   UNL     1      32.418  -6.765 -19.911  0.00  0.00    +0.000 C 
ATOM     16  C   UNL     1      31.922  -9.185 -19.464  0.00  0.00    +0.000 C 
ENDBRANCH   3  14
BRANCH  12  18
ATOM     17  O   UNL     1      32.017 -14.049 -23.675  0.00  0.00    -0.291 OA
ATOM     18  C   UNL     1      32.319 -13.265 -22.755  0.00  0.00    +0.173 C 
BRANCH  18  19
ATOM     19  C   UNL     1      32.316 -13.767 -21.301  0.00  0.00    +0.081 C 
BRANCH  19  20
ATOM     20  C   UNL     1      32.733 -15.226 -21.166  0.00  0.00    +0.117 C 
BRANCH  20  22
ATOM     21  O   UNL     1      34.937 -15.404 -20.194  0.00  0.00    -0.250 OA
ATOM     22  C   UNL     1      34.233 -15.365 -21.196  0.00  0.00    +0.314 C 
BRANCH  22  23
ATOM     23  O   UNL     1      34.726 -15.429 -22.458  0.00  0.00    -0.480 OA
ATOM     24  H   UNL     1      34.800 -14.649 -22.972  0.00  0.00    +0.295 HD
ENDBRANCH  22  23
ENDBRANCH  20  22
ENDBRANCH  19  20
ENDBRANCH  18  19
ENDBRANCH  12  18
TORSDOF 6
ENDMDL
MODEL 4
REMARK VINA RESULT:      -7.0     18.964     21.592
REMARK  Name = 444705
REMARK  6 active torsions:
REMARK  status: ('A' for Active; 'I' for Inactive)
REMARK    1  A    between atoms: C_3  and  C_14
REMARK    2  A    between atoms: C_12  and  C_18
REMARK    3  A    between atoms: C_18  and  C_19
REMARK    4  A    between atoms: C_19  and  C_20
REMARK    5  A    between atoms: C_20  and  C_22
REMARK    6  A    between atoms: C_22  and  O_23
REMARK                            x       y       z     vdW  Elec       q    Type
REMARK                         _______ _______ _______ _____ _____    ______ ____
ROOT
ATOM      1  C   UNL     1      32.477  -3.003 -28.155  0.00  0.00    +0.008 C 
ATOM      2  C   UNL     1      33.895  -3.555 -27.744  0.00  0.00    +0.019 C 
ATOM      3  C   UNL     1      31.523  -3.238 -26.942  0.00  0.00    +0.022 C 
ATOM      4  C   UNL     1      33.531  -4.533 -26.648  0.00  0.00    -0.027 C 
ATOM      5  C   UNL     1      32.217  -4.343 -26.201  0.00  0.00    -0.026 C 
ATOM      6  C   UNL     1      31.874  -3.678 -29.399  0.00  0.00    +0.001 C 
ATOM      7  C   UNL     1      34.670  -4.222 -28.889  0.00  0.00    +0.004 C 
ATOM      8  C   UNL     1      34.771  -2.431 -27.160  0.00  0.00    +0.004 C 
ATOM      9  C   UNL     1      34.335  -5.506 -26.066  0.00  0.00    -0.009 C 
ATOM     10  C   UNL     1      31.688  -5.123 -25.182  0.00  0.00    -0.002 C 
ATOM     11  C   UNL     1      33.807  -6.295 -25.043  0.00  0.00    -0.019 C 
ATOM     12  C   UNL     1      32.491  -6.105 -24.603  0.00  0.00    +0.030 C 
ATOM     13  C   UNL     1      34.674  -7.350 -24.433  0.00  0.00    +0.031 C 
ENDROOT
BRANCH   3  14
ATOM     14  C   UNL     1      31.319  -1.995 -26.080  0.00  0.00    +0.004 C 
ATOM     15  C   UNL     1      29.837  -1.787 -25.776  0.00  0.00    +0.000 C 
ATOM     16  C   UNL     1      32.120  -2.102 -24.783  0.00  0.00    +0.000 C 
ENDBRANCH   3  14
BRANCH  12  18
ATOM     17  O   UNL     1      31.340  -7.995 -23.809  0.00  0.00    -0.291 OA
ATOM     18  C   UNL     1      31.930  -6.931 -23.541  0.00  0.00    +0.173 C 
BRANCH  18  19
ATOM     19  C   UNL     1      32.068  -6.490 -22.075  0.00  0.00    +0.081 C 
BRANCH  19  20
ATOM     20  C   UNL     1      33.005  -7.377 -21.263  0.00  0.00    +0.117 C 
BRANCH  20  22
ATOM     21  O   UNL     1      32.012  -8.316 -19.271  0.00  0.00    -0.250 OA
ATOM     22  C   UNL     1      32.230  -8.400 -20.474  0.00  0.00    +0.314 C 
BRANCH  22  23
ATOM     23  O   UNL     1      31.808  -9.438 -21.238  0.00  0.00    -0.480 OA
ATOM     24  H   UNL     1      30.890  -9.600 -21.342  0.00  0.00    +0.295 HD
ENDBRANCH  22  23
ENDBRANCH  20  22
ENDBRANCH  19  20
ENDBRANCH  18  19
ENDBRANCH  12  18
TORSDOF 6
ENDMDL
MODEL 5
REMARK VINA RESULT:      -6.5      1.412      3.484
REMARK  Name = 444705
REMARK  6 active torsions:
REMARK  status: ('A' for Active; 'I' for Inactive)
REMARK    1  A    between atoms: C_3  and  C_14
REMARK    2  A    between atoms: C_12  and  C_18
REMARK    3  A    between atoms: C_18  and  C_19
REMARK    4  A    between atoms: C_19  and  C_20
REMARK    5  A    between atoms: C_20  and  C_22
REMARK    6  A    between atoms: C_22  and  O_23
REMARK                            x       y       z     vdW  Elec       q    Type
REMARK                         _______ _______ _______ _____ _____    ______ ____
ROOT
ATOM      1  C   UNL     1      37.230 -23.491 -13.326  0.00  0.00    +0.008 C 
ATOM      2  C   UNL     1      37.067 -23.798 -14.863  0.00  0.00    +0.019 C 
ATOM      3  C   UNL     1      35.841 -23.739 -12.658  0.00  0.00    +0.022 C 
ATOM      4  C   UNL     1      35.575 -23.626 -15.048  0.00  0.00    -0.027 C 
ATOM      5  C   UNL     1      34.901 -23.606 -13.821  0.00  0.00    -0.026 C 
ATOM      6  C   UNL     1      37.681 -22.053 -13.014  0.00  0.00    +0.001 C 
ATOM      7  C   UNL     1      37.881 -22.874 -15.782  0.00  0.00    +0.004 C 
ATOM      8  C   UNL     1      37.460 -25.254 -15.175  0.00  0.00    +0.004 C 
ATOM      9  C   UNL     1      34.866 -23.529 -16.240  0.00  0.00    -0.009 C 
ATOM     10  C   UNL     1      33.520 -23.479 -13.765  0.00  0.00    -0.002 C 
ATOM     11  C   UNL     1      33.476 -23.399 -16.189  0.00  0.00    -0.019 C 
ATOM     12  C   UNL     1      32.807 -23.373 -14.959  0.00  0.00    +0.030 C 
ATOM     13  C   UNL     1      32.722 -23.280 -17.475  0.00  0.00    +0.031 C 
ENDROOT
BRANCH   3  14
ATOM     14  C   UNL     1      35.731 -25.097 -11.972  0.00  0.00    +0.004 C 
ATOM     15  C   UNL     1      37.030 -25.886 -12.126  0.00  0.00    +0.000 C 
ATOM     16  C   UNL     1      35.381 -24.928 -10.494  0.00  0.00    +0.000 C 
ENDBRANCH   3  14
BRANCH  12  18
ATOM     17  O   UNL     1      30.843 -22.165 -14.502  0.00  0.00    -0.291 OA
ATOM     18  C   UNL     1      31.359 -23.228 -14.898  0.00  0.00    +0.173 C 
BRANCH  18  19
ATOM     19  C   UNL     1      30.453 -24.394 -15.329  0.00  0.00    +0.081 C 
BRANCH  19  20
ATOM     20  C   UNL     1      28.972 -24.037 -15.338  0.00  0.00    +0.117 C 
BRANCH  20  22
ATOM     21  O   UNL     1      27.803 -24.287 -17.437  0.00  0.00    -0.250 OA
ATOM     22  C   UNL     1      28.527 -23.614 -16.714  0.00  0.00    +0.314 C 
BRANCH  22  23
ATOM     23  O   UNL     1      29.026 -22.405 -17.075  0.00  0.00    -0.480 OA
ATOM     24  H   UNL     1      28.548 -21.624 -16.878  0.00  0.00    +0.295 HD
ENDBRANCH  22  23
ENDBRANCH  20  22
ENDBRANCH  19  20
ENDBRANCH  18  19
ENDBRANCH  12  18
TORSDOF 6
ENDMDL
MODEL 6
REMARK VINA RESULT:      -6.5      2.493      3.531
REMARK  Name = 444705
REMARK  6 active torsions:
REMARK  status: ('A' for Active; 'I' for Inactive)
REMARK    1  A    between atoms: C_3  and  C_14
REMARK    2  A    between atoms: C_12  and  C_18
REMARK    3  A    between atoms: C_18  and  C_19
REMARK    4  A    between atoms: C_19  and  C_20
REMARK    5  A    between atoms: C_20  and  C_22
REMARK    6  A    between atoms: C_22  and  O_23
REMARK                            x       y       z     vdW  Elec       q    Type
REMARK                         _______ _______ _______ _____ _____    ______ ____
ROOT
ATOM      1  C   UNL     1      37.289 -25.102 -13.165  0.00  0.00    +0.008 C 
ATOM      2  C   UNL     1      36.181 -24.290 -12.394  0.00  0.00    +0.019 C 
ATOM      3  C   UNL     1      37.182 -24.710 -14.673  0.00  0.00    +0.022 C 
ATOM      4  C   UNL     1      35.205 -23.979 -13.508  0.00  0.00    -0.027 C 
ATOM      5  C   UNL     1      35.771 -24.205 -14.769  0.00  0.00    -0.026 C 
ATOM      6  C   UNL     1      37.155 -26.629 -13.039  0.00  0.00    +0.001 C 
ATOM      7  C   UNL     1      35.524 -25.057 -11.238  0.00  0.00    +0.004 C 
ATOM      8  C   UNL     1      36.756 -22.975 -11.834  0.00  0.00    +0.004 C 
ATOM      9  C   UNL     1      33.907 -23.495 -13.399  0.00  0.00    -0.009 C 
ATOM     10  C   UNL     1      35.052 -23.961 -15.931  0.00  0.00    -0.002 C 
ATOM     11  C   UNL     1      33.177 -23.250 -14.565  0.00  0.00    -0.019 C 
ATOM     12  C   UNL     1      33.746 -23.482 -15.824  0.00  0.00    +0.030 C 
ATOM     13  C   UNL     1      31.776 -22.744 -14.439  0.00  0.00    +0.031 C 
ENDROOT
BRANCH   3  14
ATOM     14  C   UNL     1      38.206 -23.665 -15.104  0.00  0.00    +0.004 C 
ATOM     15  C   UNL     1      39.473 -24.338 -15.631  0.00  0.00    +0.000 C 
ATOM     16  C   UNL     1      37.616 -22.735 -16.162  0.00  0.00    +0.000 C 
ENDBRANCH   3  14
BRANCH  12  18
ATOM     17  O   UNL     1      31.765 -23.003 -16.995  0.00  0.00    -0.291 OA
ATOM     18  C   UNL     1      32.988 -23.238 -17.043  0.00  0.00    +0.173 C 
BRANCH  18  19
ATOM     19  C   UNL     1      33.700 -23.267 -18.406  0.00  0.00    +0.081 C 
BRANCH  19  20
ATOM     20  C   UNL     1      34.545 -22.027 -18.672  0.00  0.00    +0.117 C 
BRANCH  20  22
ATOM     21  O   UNL     1      34.527 -20.256 -20.314  0.00  0.00    -0.250 OA
ATOM     22  C   UNL     1      33.951 -21.194 -19.778  0.00  0.00    +0.314 C 
BRANCH  22  23
ATOM     23  O   UNL     1      32.696 -21.588 -20.110  0.00  0.00    -0.480 OA
ATOM     24  H   UNL     1      32.223 -22.170 -19.547  0.00  0.00    +0.295 HD
ENDBRANCH  22  23
ENDBRANCH  20  22
ENDBRANCH  19  20
ENDBRANCH  18  19
ENDBRANCH  12  18
TORSDOF 6
ENDMDL
MODEL 7
REMARK VINA RESULT:      -6.3     13.002     15.562
REMARK  Name = 444705
REMARK  6 active torsions:
REMARK  status: ('A' for Active; 'I' for Inactive)
REMARK    1  A    between atoms: C_3  and  C_14
REMARK    2  A    between atoms: C_12  and  C_18
REMARK    3  A    between atoms: C_18  and  C_19
REMARK    4  A    between atoms: C_19  and  C_20
REMARK    5  A    between atoms: C_20  and  C_22
REMARK    6  A    between atoms: C_22  and  O_23
REMARK                            x       y       z     vdW  Elec       q    Type
REMARK                         _______ _______ _______ _____ _____    ______ ____
ROOT
ATOM      1  C   UNL     1      34.133  -8.192 -24.146  0.00  0.00    +0.008 C 
ATOM      2  C   UNL     1      32.638  -8.080 -23.659  0.00  0.00    +0.019 C 
ATOM      3  C   UNL     1      34.476  -9.713 -24.229  0.00  0.00    +0.022 C 
ATOM      4  C   UNL     1      32.444  -9.415 -22.974  0.00  0.00    -0.027 C 
ATOM      5  C   UNL     1      33.462 -10.318 -23.303  0.00  0.00    -0.026 C 
ATOM      6  C   UNL     1      35.151  -7.503 -23.222  0.00  0.00    +0.001 C 
ATOM      7  C   UNL     1      32.366  -6.895 -22.721  0.00  0.00    +0.004 C 
ATOM      8  C   UNL     1      31.678  -7.974 -24.859  0.00  0.00    +0.004 C 
ATOM      9  C   UNL     1      31.405  -9.804 -22.136  0.00  0.00    -0.009 C 
ATOM     10  C   UNL     1      33.463 -11.612 -22.798  0.00  0.00    -0.002 C 
ATOM     11  C   UNL     1      31.402 -11.103 -21.622  0.00  0.00    -0.019 C 
ATOM     12  C   UNL     1      32.426 -12.001 -21.951  0.00  0.00    +0.030 C 
ATOM     13  C   UNL     1      30.290 -11.509 -20.710  0.00  0.00    +0.031 C 
ENDROOT
BRANCH   3  14
ATOM     14  C   UNL     1      34.387 -10.280 -25.643  0.00  0.00    +0.004 C 
ATOM     15  C   UNL     1      35.758 -10.262 -26.318  0.00  0.00    +0.000 C 
ATOM     16  C   UNL     1      33.821 -11.699 -25.621  0.00  0.00    +0.000 C 
ENDBRANCH   3  14
BRANCH  12  18
ATOM     17  O   UNL     1      32.328 -13.551 -20.186  0.00  0.00    -0.291 OA
ATOM     18  C   UNL     1      32.434 -13.355 -21.412  0.00  0.00    +0.173 C 
BRANCH  18  19
ATOM     19  C   UNL     1      32.573 -14.556 -22.361  0.00  0.00    +0.081 C 
BRANCH  19  20
ATOM     20  C   UNL     1      33.941 -15.225 -22.292  0.00  0.00    +0.117 C 
BRANCH  20  22
ATOM     21  O   UNL     1      33.848 -15.293 -24.705  0.00  0.00    -0.250 OA
ATOM     22  C   UNL     1      34.457 -15.542 -23.672  0.00  0.00    +0.314 C 
BRANCH  22  23
ATOM     23  O   UNL     1      35.670 -16.148 -23.648  0.00  0.00    -0.480 OA
ATOM     24  H   UNL     1      36.235 -16.094 -24.394  0.00  0.00    +0.295 HD
ENDBRANCH  22  23
ENDBRANCH  20  22
ENDBRANCH  19  20
ENDBRANCH  18  19
ENDBRANCH  12  18
TORSDOF 6
ENDMDL
MODEL 8
REMARK VINA RESULT:      -6.0     14.212     16.469
REMARK  Name = 444705
REMARK  6 active torsions:
REMARK  status: ('A' for Active; 'I' for Inactive)
REMARK    1  A    between atoms: C_3  and  C_14
REMARK    2  A    between atoms: C_12  and  C_18
REMARK    3  A    between atoms: C_18  and  C_19
REMARK    4  A    between atoms: C_19  and  C_20
REMARK    5  A    between atoms: C_20  and  C_22
REMARK    6  A    between atoms: C_22  and  O_23
REMARK                            x       y       z     vdW  Elec       q    Type
REMARK                         _______ _______ _______ _____ _____    ______ ____
ROOT
ATOM      1  C   UNL     1      33.647 -12.741 -25.413  0.00  0.00    +0.008 C 
ATOM      2  C   UNL     1      33.342 -13.253 -23.955  0.00  0.00    +0.019 C 
ATOM      3  C   UNL     1      33.811 -11.191 -25.331  0.00  0.00    +0.022 C 
ATOM      4  C   UNL     1      32.799 -12.001 -23.303  0.00  0.00    -0.027 C 
ATOM      5  C   UNL     1      33.072 -10.860 -24.067  0.00  0.00    -0.026 C 
ATOM      6  C   UNL     1      32.549 -13.070 -26.440  0.00  0.00    +0.001 C 
ATOM      7  C   UNL     1      32.350 -14.424 -23.890  0.00  0.00    +0.004 C 
ATOM      8  C   UNL     1      34.639 -13.682 -23.243  0.00  0.00    +0.004 C 
ATOM      9  C   UNL     1      32.132 -11.888 -22.088  0.00  0.00    -0.009 C 
ATOM     10  C   UNL     1      32.679  -9.599 -23.638  0.00  0.00    -0.002 C 
ATOM     11  C   UNL     1      31.731 -10.623 -21.653  0.00  0.00    -0.019 C 
ATOM     12  C   UNL     1      32.003  -9.485 -22.424  0.00  0.00    +0.030 C 
ATOM     13  C   UNL     1      31.002 -10.511 -20.353  0.00  0.00    +0.031 C 
ENDROOT
BRANCH   3  14
ATOM     14  C   UNL     1      35.267 -10.735 -25.292  0.00  0.00    +0.004 C 
ATOM     15  C   UNL     1      35.803 -10.521 -26.707  0.00  0.00    +0.000 C 
ATOM     16  C   UNL     1      35.410  -9.457 -24.468  0.00  0.00    +0.000 C 
ENDBRANCH   3  14
BRANCH  12  18
ATOM     17  O   UNL     1      31.828  -7.771 -20.824  0.00  0.00    -0.291 OA
ATOM     18  C   UNL     1      31.580  -8.163 -21.981  0.00  0.00    +0.173 C 
BRANCH  18  19
ATOM     19  C   UNL     1      30.822  -7.237 -22.947  0.00  0.00    +0.081 C 
BRANCH  19  20
ATOM     20  C   UNL     1      31.549  -5.926 -23.222  0.00  0.00    +0.117 C 
BRANCH  20  22
ATOM     21  O   UNL     1      30.559  -3.726 -23.119  0.00  0.00    -0.250 OA
ATOM     22  C   UNL     1      30.852  -4.771 -22.552  0.00  0.00    +0.314 C 
BRANCH  22  23
ATOM     23  O   UNL     1      30.591  -5.008 -21.242  0.00  0.00    -0.480 OA
ATOM     24  H   UNL     1      30.651  -5.880 -20.903  0.00  0.00    +0.295 HD
ENDBRANCH  22  23
ENDBRANCH  20  22
ENDBRANCH  19  20
ENDBRANCH  18  19
ENDBRANCH  12  18
TORSDOF 6
ENDMDL
MODEL 9
REMARK VINA RESULT:      -5.9      8.414     11.048
REMARK  Name = 444705
REMARK  6 active torsions:
REMARK  status: ('A' for Active; 'I' for Inactive)
REMARK    1  A    between atoms: C_3  and  C_14
REMARK    2  A    between atoms: C_12  and  C_18
REMARK    3  A    between atoms: C_18  and  C_19
REMARK    4  A    between atoms: C_19  and  C_20
REMARK    5  A    between atoms: C_20  and  C_22
REMARK    6  A    between atoms: C_22  and  O_23
REMARK                            x       y       z     vdW  Elec       q    Type
REMARK                         _______ _______ _______ _____ _____    ______ ____
ROOT
ATOM      1  C   UNL     1      35.561 -19.512 -21.389  0.00  0.00    +0.008 C 
ATOM      2  C   UNL     1      35.748 -18.730 -22.744  0.00  0.00    +0.019 C 
ATOM      3  C   UNL     1      34.313 -18.903 -20.676  0.00  0.00    +0.022 C 
ATOM      4  C   UNL     1      35.021 -17.437 -22.449  0.00  0.00    -0.027 C 
ATOM      5  C   UNL     1      34.219 -17.544 -21.306  0.00  0.00    -0.026 C 
ATOM      6  C   UNL     1      36.767 -19.426 -20.439  0.00  0.00    +0.001 C 
ATOM      7  C   UNL     1      37.213 -18.500 -23.144  0.00  0.00    +0.004 C 
ATOM      8  C   UNL     1      35.043 -19.463 -23.901  0.00  0.00    +0.004 C 
ATOM      9  C   UNL     1      35.051 -16.252 -23.175  0.00  0.00    -0.009 C 
ATOM     10  C   UNL     1      33.448 -16.475 -20.869  0.00  0.00    -0.002 C 
ATOM     11  C   UNL     1      34.280 -15.173 -22.739  0.00  0.00    -0.019 C 
ATOM     12  C   UNL     1      33.483 -15.284 -21.592  0.00  0.00    +0.030 C 
ATOM     13  C   UNL     1      34.329 -13.897 -23.517  0.00  0.00    +0.031 C 
ENDROOT
BRANCH   3  14
ATOM     14  C   UNL     1      33.042 -19.725 -20.868  0.00  0.00    +0.004 C 
ATOM     15  C   UNL     1      33.027 -20.925 -19.923  0.00  0.00    +0.000 C 
ATOM     16  C   UNL     1      31.802 -18.859 -20.650  0.00  0.00    +0.000 C 
ENDBRANCH   3  14
BRANCH  12  18
ATOM     17  O   UNL     1      32.518 -13.958 -19.907  0.00  0.00    -0.291 OA
ATOM     18  C   UNL     1      32.683 -14.159 -21.126  0.00  0.00    +0.173 C 
BRANCH  18  19
ATOM     19  C   UNL     1      32.035 -13.205 -22.144  0.00  0.00    +0.081 C 
BRANCH  19  20
ATOM     20  C   UNL     1      31.465 -11.942 -21.510  0.00  0.00    +0.117 C 
BRANCH  20  22
ATOM     21  O   UNL     1      32.682 -10.729 -23.207  0.00  0.00    -0.250 OA
ATOM     22  C   UNL     1      31.995 -10.708 -22.193  0.00  0.00    +0.314 C 
BRANCH  22  23
ATOM     23  O   UNL     1      31.639  -9.566 -21.556  0.00  0.00    -0.480 OA
ATOM     24  H   UNL     1      30.743  -9.419 -21.323  0.00  0.00    +0.295 HD
ENDBRANCH  22  23
ENDBRANCH  20  22
ENDBRANCH  19  20
ENDBRANCH  18  19
ENDBRANCH  12  18
TORSDOF 6
ENDMDL
