MODEL 1
REMARK VINA RESULT:      -6.9      0.000      0.000
REMARK  Name = 1150
REMARK  3 active torsions:
REMARK  status: ('A' for Active; 'I' for Inactive)
REMARK    1  A    between atoms: C_2  and  C_11
REMARK    2  A    between atoms: C_11  and  C_12
REMARK    3  A    between atoms: C_12  and  N_13
REMARK                            x       y       z     vdW  Elec       q    Type
REMARK                         _______ _______ _______ _____ _____    ______ ____
ROOT
ATOM      1  N   UNL     1      36.753 -19.999 -20.288  0.00  0.00    -0.312 N 
ATOM      2  C   UNL     1      35.288 -18.756 -21.398  0.00  0.00    -0.009 C 
ATOM      3  C   UNL     1      34.575 -19.784 -20.719  0.00  0.00    +0.011 C 
ATOM      4  C   UNL     1      35.517 -20.549 -20.029  0.00  0.00    +0.048 C 
ATOM      5  C   UNL     1      36.623 -18.915 -21.113  0.00  0.00    +0.057 C 
ATOM      6  C   UNL     1      33.214 -20.137 -20.624  0.00  0.00    +0.001 C 
ATOM      7  C   UNL     1      35.166 -21.656 -19.248  0.00  0.00    +0.015 C 
ATOM      8  C   UNL     1      32.848 -21.241 -19.846  0.00  0.00    +0.000 C 
ATOM      9  C   UNL     1      33.811 -21.987 -19.169  0.00  0.00    +0.001 C 
ATOM     10  H   UNL     1      37.606 -20.336 -19.929  0.00  0.00    +0.152 HD
ENDROOT
BRANCH   2  11
ATOM     11  C   UNL     1      34.707 -17.704 -22.257  0.00  0.00    +0.004 C 
BRANCH  11  12
ATOM     12  C   UNL     1      35.001 -17.933 -23.752  0.00  0.00    -0.081 C 
BRANCH  12  13
ATOM     13  N   UNL     1      35.276 -16.683 -24.454  0.00  0.00    +0.381 N 
ATOM     14  H   UNL     1      36.234 -16.389 -24.262  0.00  0.00    -0.089 HD
ATOM     15  H   UNL     1      34.628 -15.964 -24.134  0.00  0.00    -0.089 HD
ATOM     16  H   UNL     1      35.158 -16.824 -25.458  0.00  0.00    -0.089 HD
ENDBRANCH  12  13
ENDBRANCH  11  12
ENDBRANCH   2  11
TORSDOF 3
ENDMDL
MODEL 2
REMARK VINA RESULT:      -6.9      2.050      5.102
REMARK  Name = 1150
REMARK  3 active torsions:
REMARK  status: ('A' for Active; 'I' for Inactive)
REMARK    1  A    between atoms: C_2  and  C_11
REMARK    2  A    between atoms: C_11  and  C_12
REMARK    3  A    between atoms: C_12  and  N_13
REMARK                            x       y       z     vdW  Elec       q    Type
REMARK                         _______ _______ _______ _____ _____    ______ ____
ROOT
ATOM      1  N   UNL     1      34.932 -17.982 -24.019  0.00  0.00    -0.312 N 
ATOM      2  C   UNL     1      34.611 -18.819 -21.989  0.00  0.00    -0.009 C 
ATOM      3  C   UNL     1      34.539 -17.400 -21.902  0.00  0.00    +0.011 C 
ATOM      4  C   UNL     1      34.743 -16.900 -23.189  0.00  0.00    +0.048 C 
ATOM      5  C   UNL     1      34.854 -19.146 -23.303  0.00  0.00    +0.057 C 
ATOM      6  C   UNL     1      34.317 -16.491 -20.848  0.00  0.00    +0.001 C 
ATOM      7  C   UNL     1      34.738 -15.530 -23.478  0.00  0.00    +0.015 C 
ATOM      8  C   UNL     1      34.309 -15.118 -21.121  0.00  0.00    +0.000 C 
ATOM      9  C   UNL     1      34.517 -14.648 -22.416  0.00  0.00    +0.001 C 
ATOM     10  H   UNL     1      35.100 -17.927 -24.988  0.00  0.00    +0.152 HD
ENDROOT
BRANCH   2  11
ATOM     11  C   UNL     1      34.456 -19.777 -20.876  0.00  0.00    +0.004 C 
BRANCH  11  12
ATOM     12  C   UNL     1      32.979 -20.083 -20.560  0.00  0.00    -0.081 C 
BRANCH  12  13
ATOM     13  N   UNL     1      32.840 -21.050 -19.476  0.00  0.00    +0.381 N 
ATOM     14  H   UNL     1      33.691 -21.610 -19.409  0.00  0.00    -0.089 HD
ATOM     15  H   UNL     1      32.045 -21.660 -19.665  0.00  0.00    -0.089 HD
ATOM     16  H   UNL     1      32.688 -20.556 -18.597  0.00  0.00    -0.089 HD
ENDBRANCH  12  13
ENDBRANCH  11  12
ENDBRANCH   2  11
TORSDOF 3
ENDMDL
MODEL 3
REMARK VINA RESULT:      -6.8      1.469      2.274
REMARK  Name = 1150
REMARK  3 active torsions:
REMARK  status: ('A' for Active; 'I' for Inactive)
REMARK    1  A    between atoms: C_2  and  C_11
REMARK    2  A    between atoms: C_11  and  C_12
REMARK    3  A    between atoms: C_12  and  N_13
REMARK                            x       y       z     vdW  Elec       q    Type
REMARK                         _______ _______ _______ _____ _____    ______ ____
ROOT
ATOM      1  N   UNL     1      32.679 -20.296 -20.682  0.00  0.00    -0.312 N 
ATOM      2  C   UNL     1      34.654 -19.454 -21.242  0.00  0.00    -0.009 C 
ATOM      3  C   UNL     1      34.861 -20.452 -20.248  0.00  0.00    +0.011 C 
ATOM      4  C   UNL     1      33.606 -20.964 -19.915  0.00  0.00    +0.048 C 
ATOM      5  C   UNL     1      33.303 -19.382 -21.487  0.00  0.00    +0.057 C 
ATOM      6  C   UNL     1      36.000 -20.970 -19.599  0.00  0.00    +0.001 C 
ATOM      7  C   UNL     1      33.430 -21.972 -18.960  0.00  0.00    +0.015 C 
ATOM      8  C   UNL     1      35.840 -21.979 -18.642  0.00  0.00    +0.000 C 
ATOM      9  C   UNL     1      34.574 -22.470 -18.329  0.00  0.00    +0.001 C 
ATOM     10  H   UNL     1      31.706 -20.453 -20.656  0.00  0.00    +0.152 HD
ENDROOT
BRANCH   2  11
ATOM     11  C   UNL     1      35.695 -18.637 -21.898  0.00  0.00    +0.004 C 
BRANCH  11  12
ATOM     12  C   UNL     1      35.334 -18.273 -23.351  0.00  0.00    -0.081 C 
BRANCH  12  13
ATOM     13  N   UNL     1      35.575 -16.863 -23.638  0.00  0.00    +0.381 N 
ATOM     14  H   UNL     1      35.535 -16.327 -22.771  0.00  0.00    -0.089 HD
ATOM     15  H   UNL     1      34.864 -16.521 -24.283  0.00  0.00    -0.089 HD
ATOM     16  H   UNL     1      36.498 -16.756 -24.062  0.00  0.00    -0.089 HD
ENDBRANCH  12  13
ENDBRANCH  11  12
ENDBRANCH   2  11
TORSDOF 3
ENDMDL
MODEL 4
REMARK VINA RESULT:      -6.7      1.943      5.005
REMARK  Name = 1150
REMARK  3 active torsions:
REMARK  status: ('A' for Active; 'I' for Inactive)
REMARK    1  A    between atoms: C_2  and  C_11
REMARK    2  A    between atoms: C_11  and  C_12
REMARK    3  A    between atoms: C_12  and  N_13
REMARK                            x       y       z     vdW  Elec       q    Type
REMARK                         _______ _______ _______ _____ _____    ______ ____
ROOT
ATOM      1  N   UNL     1      35.004 -16.359 -21.661  0.00  0.00    -0.312 N 
ATOM      2  C   UNL     1      34.722 -18.546 -21.415  0.00  0.00    -0.009 C 
ATOM      3  C   UNL     1      34.667 -18.244 -22.805  0.00  0.00    +0.011 C 
ATOM      4  C   UNL     1      34.848 -16.865 -22.932  0.00  0.00    +0.048 C 
ATOM      5  C   UNL     1      34.931 -17.367 -20.739  0.00  0.00    +0.057 C 
ATOM      6  C   UNL     1      34.482 -19.014 -23.971  0.00  0.00    +0.001 C 
ATOM      7  C   UNL     1      34.850 -16.214 -24.171  0.00  0.00    +0.015 C 
ATOM      8  C   UNL     1      34.483 -18.376 -25.217  0.00  0.00    +0.000 C 
ATOM      9  C   UNL     1      34.664 -16.998 -25.312  0.00  0.00    +0.001 C 
ATOM     10  H   UNL     1      35.148 -15.408 -21.447  0.00  0.00    +0.152 HD
ENDROOT
BRANCH   2  11
ATOM     11  C   UNL     1      34.581 -19.881 -20.800  0.00  0.00    +0.004 C 
BRANCH  11  12
ATOM     12  C   UNL     1      33.121 -20.214 -20.437  0.00  0.00    -0.081 C 
BRANCH  12  13
ATOM     13  N   UNL     1      32.981 -21.572 -19.921  0.00  0.00    +0.381 N 
ATOM     14  H   UNL     1      32.693 -21.536 -18.943  0.00  0.00    -0.089 HD
ATOM     15  H   UNL     1      33.874 -22.058 -19.995  0.00  0.00    -0.089 HD
ATOM     16  H   UNL     1      32.276 -22.071 -20.465  0.00  0.00    -0.089 HD
ENDBRANCH  12  13
ENDBRANCH  11  12
ENDBRANCH   2  11
TORSDOF 3
ENDMDL
MODEL 5
REMARK VINA RESULT:      -6.7      2.847      5.251
REMARK  Name = 1150
REMARK  3 active torsions:
REMARK  status: ('A' for Active; 'I' for Inactive)
REMARK    1  A    between atoms: C_2  and  C_11
REMARK    2  A    between atoms: C_11  and  C_12
REMARK    3  A    between atoms: C_12  and  N_13
REMARK                            x       y       z     vdW  Elec       q    Type
REMARK                         _______ _______ _______ _____ _____    ______ ____
ROOT
ATOM      1  N   UNL     1      33.196 -22.025 -19.009  0.00  0.00    -0.312 N 
ATOM      2  C   UNL     1      35.385 -21.809 -18.714  0.00  0.00    -0.009 C 
ATOM      3  C   UNL     1      34.979 -20.891 -19.722  0.00  0.00    +0.011 C 
ATOM      4  C   UNL     1      33.601 -21.045 -19.887  0.00  0.00    +0.048 C 
ATOM      5  C   UNL     1      34.267 -22.492 -18.295  0.00  0.00    +0.057 C 
ATOM      6  C   UNL     1      35.654 -19.937 -20.511  0.00  0.00    +0.001 C 
ATOM      7  C   UNL     1      32.861 -20.294 -20.807  0.00  0.00    +0.015 C 
ATOM      8  C   UNL     1      34.926 -19.178 -21.435  0.00  0.00    +0.000 C 
ATOM      9  C   UNL     1      33.552 -19.356 -21.579  0.00  0.00    +0.001 C 
ATOM     10  H   UNL     1      32.270 -22.344 -18.908  0.00  0.00    +0.152 HD
ENDROOT
BRANCH   2  11
ATOM     11  C   UNL     1      36.757 -22.005 -18.203  0.00  0.00    +0.004 C 
BRANCH  11  12
ATOM     12  C   UNL     1      36.827 -21.960 -16.665  0.00  0.00    -0.081 C 
BRANCH  12  13
ATOM     13  N   UNL     1      37.730 -22.973 -16.128  0.00  0.00    +0.381 N 
ATOM     14  H   UNL     1      37.230 -23.857 -16.031  0.00  0.00    -0.089 HD
ATOM     15  H   UNL     1      38.073 -22.674 -15.215  0.00  0.00    -0.089 HD
ATOM     16  H   UNL     1      38.518 -23.097 -16.764  0.00  0.00    -0.089 HD
ENDBRANCH  12  13
ENDBRANCH  11  12
ENDBRANCH   2  11
TORSDOF 3
ENDMDL
MODEL 6
REMARK VINA RESULT:      -6.6      2.199      4.888
REMARK  Name = 1150
REMARK  3 active torsions:
REMARK  status: ('A' for Active; 'I' for Inactive)
REMARK    1  A    between atoms: C_2  and  C_11
REMARK    2  A    between atoms: C_11  and  C_12
REMARK    3  A    between atoms: C_12  and  N_13
REMARK                            x       y       z     vdW  Elec       q    Type
REMARK                         _______ _______ _______ _____ _____    ______ ____
ROOT
ATOM      1  N   UNL     1      36.742 -20.855 -19.344  0.00  0.00    -0.312 N 
ATOM      2  C   UNL     1      34.645 -21.578 -19.294  0.00  0.00    -0.009 C 
ATOM      3  C   UNL     1      34.727 -20.516 -20.237  0.00  0.00    +0.011 C 
ATOM      4  C   UNL     1      36.054 -20.081 -20.250  0.00  0.00    +0.048 C 
ATOM      5  C   UNL     1      35.900 -21.764 -18.762  0.00  0.00    +0.057 C 
ATOM      6  C   UNL     1      33.797 -19.881 -21.085  0.00  0.00    +0.001 C 
ATOM      7  C   UNL     1      36.499 -19.038 -21.070  0.00  0.00    +0.015 C 
ATOM      8  C   UNL     1      34.228 -18.837 -21.910  0.00  0.00    +0.000 C 
ATOM      9  C   UNL     1      35.559 -18.423 -21.901  0.00  0.00    +0.001 C 
ATOM     10  H   UNL     1      37.703 -20.769 -19.144  0.00  0.00    +0.152 HD
ENDROOT
BRANCH   2  11
ATOM     11  C   UNL     1      33.436 -22.349 -18.940  0.00  0.00    +0.004 C 
BRANCH  11  12
ATOM     12  C   UNL     1      33.588 -23.112 -17.610  0.00  0.00    -0.081 C 
BRANCH  12  13
ATOM     13  N   UNL     1      32.334 -23.172 -16.867  0.00  0.00    +0.381 N 
ATOM     14  H   UNL     1      31.593 -23.518 -17.477  0.00  0.00    -0.089 HD
ATOM     15  H   UNL     1      32.092 -22.240 -16.531  0.00  0.00    -0.089 HD
ATOM     16  H   UNL     1      32.440 -23.802 -16.071  0.00  0.00    -0.089 HD
ENDBRANCH  12  13
ENDBRANCH  11  12
ENDBRANCH   2  11
TORSDOF 3
ENDMDL
MODEL 7
REMARK VINA RESULT:      -6.6      3.106      4.664
REMARK  Name = 1150
REMARK  3 active torsions:
REMARK  status: ('A' for Active; 'I' for Inactive)
REMARK    1  A    between atoms: C_2  and  C_11
REMARK    2  A    between atoms: C_11  and  C_12
REMARK    3  A    between atoms: C_12  and  N_13
REMARK                            x       y       z     vdW  Elec       q    Type
REMARK                         _______ _______ _______ _____ _____    ______ ____
ROOT
ATOM      1  N   UNL     1      34.799 -16.763 -20.926  0.00  0.00    -0.312 N 
ATOM      2  C   UNL     1      34.398 -15.184 -22.431  0.00  0.00    -0.009 C 
ATOM      3  C   UNL     1      34.532 -16.425 -23.114  0.00  0.00    +0.011 C 
ATOM      4  C   UNL     1      34.782 -17.400 -22.146  0.00  0.00    +0.048 C 
ATOM      5  C   UNL     1      34.566 -15.424 -21.088  0.00  0.00    +0.057 C 
ATOM      6  C   UNL     1      34.463 -16.814 -24.467  0.00  0.00    +0.001 C 
ATOM      7  C   UNL     1      34.969 -18.750 -22.464  0.00  0.00    +0.015 C 
ATOM      8  C   UNL     1      34.647 -18.161 -24.800  0.00  0.00    +0.000 C 
ATOM      9  C   UNL     1      34.897 -19.112 -23.812  0.00  0.00    +0.001 C 
ATOM     10  H   UNL     1      34.954 -17.208 -20.060  0.00  0.00    +0.152 HD
ENDROOT
BRANCH   2  11
ATOM     11  C   UNL     1      34.127 -13.867 -23.045  0.00  0.00    +0.004 C 
BRANCH  11  12
ATOM     12  C   UNL     1      32.642 -13.679 -23.410  0.00  0.00    -0.081 C 
BRANCH  12  13
ATOM     13  N   UNL     1      31.898 -13.007 -22.349  0.00  0.00    +0.381 N 
ATOM     14  H   UNL     1      31.067 -12.566 -22.744  0.00  0.00    -0.089 HD
ATOM     15  H   UNL     1      32.488 -12.296 -21.918  0.00  0.00    -0.089 HD
ATOM     16  H   UNL     1      31.619 -13.689 -21.644  0.00  0.00    -0.089 HD
ENDBRANCH  12  13
ENDBRANCH  11  12
ENDBRANCH   2  11
TORSDOF 3
ENDMDL
MODEL 8
REMARK VINA RESULT:      -6.5      2.911      4.594
REMARK  Name = 1150
REMARK  3 active torsions:
REMARK  status: ('A' for Active; 'I' for Inactive)
REMARK    1  A    between atoms: C_2  and  C_11
REMARK    2  A    between atoms: C_11  and  C_12
REMARK    3  A    between atoms: C_12  and  N_13
REMARK                            x       y       z     vdW  Elec       q    Type
REMARK                         _______ _______ _______ _____ _____    ______ ____
ROOT
ATOM      1  N   UNL     1      34.386 -17.300 -25.105  0.00  0.00    -0.312 N 
ATOM      2  C   UNL     1      34.343 -15.565 -23.723  0.00  0.00    -0.009 C 
ATOM      3  C   UNL     1      34.645 -16.730 -22.965  0.00  0.00    +0.011 C 
ATOM      4  C   UNL     1      34.666 -17.805 -23.856  0.00  0.00    +0.048 C 
ATOM      5  C   UNL     1      34.190 -15.947 -25.035  0.00  0.00    +0.057 C 
ATOM      6  C   UNL     1      34.903 -16.975 -21.601  0.00  0.00    +0.001 C 
ATOM      7  C   UNL     1      34.933 -19.118 -23.451  0.00  0.00    +0.015 C 
ATOM      8  C   UNL     1      35.172 -18.283 -21.181  0.00  0.00    +0.000 C 
ATOM      9  C   UNL     1      35.185 -19.336 -22.094  0.00  0.00    +0.001 C 
ATOM     10  H   UNL     1      34.334 -17.834 -25.931  0.00  0.00    +0.152 HD
ENDROOT
BRANCH   2  11
ATOM     11  C   UNL     1      34.215 -14.188 -23.205  0.00  0.00    +0.004 C 
BRANCH  11  12
ATOM     12  C   UNL     1      33.582 -13.226 -24.230  0.00  0.00    -0.081 C 
BRANCH  12  13
ATOM     13  N   UNL     1      34.211 -11.910 -24.206  0.00  0.00    +0.381 N 
ATOM     14  H   UNL     1      34.649 -11.726 -25.109  0.00  0.00    -0.089 HD
ATOM     15  H   UNL     1      34.918 -11.883 -23.472  0.00  0.00    -0.089 HD
ATOM     16  H   UNL     1      33.503 -11.198 -24.021  0.00  0.00    -0.089 HD
ENDBRANCH  12  13
ENDBRANCH  11  12
ENDBRANCH   2  11
TORSDOF 3
ENDMDL
MODEL 9
REMARK VINA RESULT:      -6.4      4.317      6.156
REMARK  Name = 1150
REMARK  3 active torsions:
REMARK  status: ('A' for Active; 'I' for Inactive)
REMARK    1  A    between atoms: C_2  and  C_11
REMARK    2  A    between atoms: C_11  and  C_12
REMARK    3  A    between atoms: C_12  and  N_13
REMARK                            x       y       z     vdW  Elec       q    Type
REMARK                         _______ _______ _______ _____ _____    ______ ____
ROOT
ATOM      1  N   UNL     1      33.391 -15.635 -25.974  0.00  0.00    -0.312 N 
ATOM      2  C   UNL     1      33.545 -14.327 -24.188  0.00  0.00    -0.009 C 
ATOM      3  C   UNL     1      34.172 -15.567 -23.886  0.00  0.00    +0.011 C 
ATOM      4  C   UNL     1      34.063 -16.370 -25.023  0.00  0.00    +0.048 C 
ATOM      5  C   UNL     1      33.075 -14.399 -25.479  0.00  0.00    +0.057 C 
ATOM      6  C   UNL     1      34.826 -16.086 -22.750  0.00  0.00    +0.001 C 
ATOM      7  C   UNL     1      34.574 -17.671 -25.082  0.00  0.00    +0.015 C 
ATOM      8  C   UNL     1      35.343 -17.386 -22.795  0.00  0.00    +0.000 C 
ATOM      9  C   UNL     1      35.218 -18.164 -23.944  0.00  0.00    +0.001 C 
ATOM     10  H   UNL     1      33.171 -15.952 -26.880  0.00  0.00    +0.152 HD
ENDROOT
BRANCH   2  11
ATOM     11  C   UNL     1      33.415 -13.164 -23.286  0.00  0.00    +0.004 C 
BRANCH  11  12
ATOM     12  C   UNL     1      32.318 -13.361 -22.222  0.00  0.00    -0.081 C 
BRANCH  12  13
ATOM     13  N   UNL     1      31.453 -12.192 -22.103  0.00  0.00    +0.381 N 
ATOM     14  H   UNL     1      31.817 -11.440 -22.688  0.00  0.00    -0.089 HD
ATOM     15  H   UNL     1      31.426 -11.886 -21.131  0.00  0.00    -0.089 HD
ATOM     16  H   UNL     1      30.510 -12.435 -22.409  0.00  0.00    -0.089 HD
ENDBRANCH  12  13
ENDBRANCH  11  12
ENDBRANCH   2  11
TORSDOF 3
ENDMDL
