MODEL 1
REMARK VINA RESULT:      -5.0      0.000      0.000
REMARK  Name = 11439
REMARK  0 active torsions:
REMARK  status: ('A' for Active; 'I' for Inactive)
REMARK                            x       y       z     vdW  Elec       q    Type
REMARK                         _______ _______ _______ _____ _____    ______ ____
ROOT
ATOM      1  O   UNL     1      36.958 -26.212 -11.651  0.00  0.00    -0.270 OA
ATOM      2  O   UNL     1      36.834 -27.214 -16.139  0.00  0.00    -0.270 OA
ATOM      3  N   UNL     1      36.628 -26.901 -13.845  0.00  0.00    -0.248 N 
ATOM      4  C   UNL     1      38.428 -25.490 -13.429  0.00  0.00    +0.063 C 
ATOM      5  C   UNL     1      38.388 -25.824 -14.914  0.00  0.00    +0.063 C 
ATOM      6  C   UNL     1      37.263 -26.228 -12.834  0.00  0.00    +0.252 C 
ATOM      7  C   UNL     1      37.202 -26.729 -15.078  0.00  0.00    +0.252 C 
ATOM      8  H   UNL     1      35.830 -27.458 -13.699  0.00  0.00    +0.158 HD
ENDROOT
TORSDOF 0
ENDMDL
MODEL 2
REMARK VINA RESULT:      -5.0      0.025      2.867
REMARK  Name = 11439
REMARK  0 active torsions:
REMARK  status: ('A' for Active; 'I' for Inactive)
REMARK                            x       y       z     vdW  Elec       q    Type
REMARK                         _______ _______ _______ _____ _____    ______ ____
ROOT
ATOM      1  O   UNL     1      36.838 -27.232 -16.118  0.00  0.00    -0.270 OA
ATOM      2  O   UNL     1      36.936 -26.179 -11.642  0.00  0.00    -0.270 OA
ATOM      3  N   UNL     1      36.617 -26.890 -13.831  0.00  0.00    -0.248 N 
ATOM      4  C   UNL     1      38.392 -25.838 -14.900  0.00  0.00    +0.063 C 
ATOM      5  C   UNL     1      38.423 -25.487 -13.419  0.00  0.00    +0.063 C 
ATOM      6  C   UNL     1      37.200 -26.737 -15.061  0.00  0.00    +0.252 C 
ATOM      7  C   UNL     1      37.249 -26.210 -12.823  0.00  0.00    +0.252 C 
ATOM      8  H   UNL     1      35.814 -27.440 -13.684  0.00  0.00    +0.158 HD
ENDROOT
TORSDOF 0
ENDMDL
MODEL 3
REMARK VINA RESULT:      -4.9      7.876      8.612
REMARK  Name = 11439
REMARK  0 active torsions:
REMARK  status: ('A' for Active; 'I' for Inactive)
REMARK                            x       y       z     vdW  Elec       q    Type
REMARK                         _______ _______ _______ _____ _____    ______ ____
ROOT
ATOM      1  O   UNL     1      32.671 -19.683 -20.661  0.00  0.00    -0.270 OA
ATOM      2  O   UNL     1      33.779 -23.702 -18.718  0.00  0.00    -0.270 OA
ATOM      3  N   UNL     1      32.904 -21.770 -19.667  0.00  0.00    -0.248 N 
ATOM      4  C   UNL     1      34.850 -20.588 -20.135  0.00  0.00    +0.063 C 
ATOM      5  C   UNL     1      35.217 -21.918 -19.490  0.00  0.00    +0.063 C 
ATOM      6  C   UNL     1      33.351 -20.590 -20.202  0.00  0.00    +0.252 C 
ATOM      7  C   UNL     1      33.905 -22.599 -19.230  0.00  0.00    +0.252 C 
ATOM      8  H   UNL     1      31.950 -22.002 -19.602  0.00  0.00    +0.158 HD
ENDROOT
TORSDOF 0
ENDMDL
MODEL 4
REMARK VINA RESULT:      -4.9     12.697     13.610
REMARK  Name = 11439
REMARK  0 active torsions:
REMARK  status: ('A' for Active; 'I' for Inactive)
REMARK                            x       y       z     vdW  Elec       q    Type
REMARK                         _______ _______ _______ _____ _____    ______ ____
ROOT
ATOM      1  O   UNL     1      34.737 -16.681 -25.879  0.00  0.00    -0.270 OA
ATOM      2  O   UNL     1      35.834 -17.881 -21.576  0.00  0.00    -0.270 OA
ATOM      3  N   UNL     1      35.405 -16.977 -23.673  0.00  0.00    -0.248 N 
ATOM      4  C   UNL     1      34.431 -18.795 -24.746  0.00  0.00    +0.063 C 
ATOM      5  C   UNL     1      34.797 -19.193 -23.322  0.00  0.00    +0.063 C 
ATOM      6  C   UNL     1      34.862 -17.362 -24.871  0.00  0.00    +0.252 C 
ATOM      7  C   UNL     1      35.411 -17.962 -22.720  0.00  0.00    +0.252 C 
ATOM      8  H   UNL     1      35.759 -16.074 -23.511  0.00  0.00    +0.158 HD
ENDROOT
TORSDOF 0
ENDMDL
MODEL 5
REMARK VINA RESULT:      -4.8     12.725     13.361
REMARK  Name = 11439
REMARK  0 active torsions:
REMARK  status: ('A' for Active; 'I' for Inactive)
REMARK                            x       y       z     vdW  Elec       q    Type
REMARK                         _______ _______ _______ _____ _____    ______ ____
ROOT
ATOM      1  O   UNL     1      35.627 -17.633 -21.466  0.00  0.00    -0.270 OA
ATOM      2  O   UNL     1      34.769 -16.714 -25.891  0.00  0.00    -0.270 OA
ATOM      3  N   UNL     1      35.300 -16.862 -23.634  0.00  0.00    -0.248 N 
ATOM      4  C   UNL     1      34.764 -19.082 -23.199  0.00  0.00    +0.063 C 
ATOM      5  C   UNL     1      34.478 -18.776 -24.663  0.00  0.00    +0.063 C 
ATOM      6  C   UNL     1      35.284 -17.794 -22.629  0.00  0.00    +0.252 C 
ATOM      7  C   UNL     1      34.855 -17.334 -24.841  0.00  0.00    +0.252 C 
ATOM      8  H   UNL     1      35.605 -15.936 -23.500  0.00  0.00    +0.158 HD
ENDROOT
TORSDOF 0
ENDMDL
MODEL 6
REMARK VINA RESULT:      -4.8      7.907      8.511
REMARK  Name = 11439
REMARK  0 active torsions:
REMARK  status: ('A' for Active; 'I' for Inactive)
REMARK                            x       y       z     vdW  Elec       q    Type
REMARK                         _______ _______ _______ _____ _____    ______ ____
ROOT
ATOM      1  O   UNL     1      34.089 -23.554 -18.549  0.00  0.00    -0.270 OA
ATOM      2  O   UNL     1      32.354 -19.848 -20.650  0.00  0.00    -0.270 OA
ATOM      3  N   UNL     1      32.915 -21.813 -19.544  0.00  0.00    -0.248 N 
ATOM      4  C   UNL     1      35.236 -21.684 -19.564  0.00  0.00    +0.063 C 
ATOM      5  C   UNL     1      34.662 -20.458 -20.262  0.00  0.00    +0.063 C 
ATOM      6  C   UNL     1      34.039 -22.487 -19.144  0.00  0.00    +0.252 C 
ATOM      7  C   UNL     1      33.172 -20.635 -20.195  0.00  0.00    +0.252 C 
ATOM      8  H   UNL     1      32.004 -22.146 -19.379  0.00  0.00    +0.158 HD
ENDROOT
TORSDOF 0
ENDMDL
MODEL 7
REMARK VINA RESULT:      -4.8      8.891      9.606
REMARK  Name = 11439
REMARK  0 active torsions:
REMARK  status: ('A' for Active; 'I' for Inactive)
REMARK                            x       y       z     vdW  Elec       q    Type
REMARK                         _______ _______ _______ _____ _____    ______ ____
ROOT
ATOM      1  O   UNL     1      36.294 -19.323 -20.722  0.00  0.00    -0.270 OA
ATOM      2  O   UNL     1      32.924 -22.129 -19.333  0.00  0.00    -0.270 OA
ATOM      3  N   UNL     1      34.832 -20.921 -19.881  0.00  0.00    -0.248 N 
ATOM      4  C   UNL     1      33.910 -19.161 -21.086  0.00  0.00    +0.063 C 
ATOM      5  C   UNL     1      32.794 -20.091 -20.628  0.00  0.00    +0.063 C 
ATOM      6  C   UNL     1      35.172 -19.780 -20.559  0.00  0.00    +0.252 C 
ATOM      7  C   UNL     1      33.487 -21.183 -19.865  0.00  0.00    +0.252 C 
ATOM      8  H   UNL     1      35.496 -21.501 -19.443  0.00  0.00    +0.158 HD
ENDROOT
TORSDOF 0
ENDMDL
MODEL 8
REMARK VINA RESULT:      -4.7      3.468      3.989
REMARK  Name = 11439
REMARK  0 active torsions:
REMARK  status: ('A' for Active; 'I' for Inactive)
REMARK                            x       y       z     vdW  Elec       q    Type
REMARK                         _______ _______ _______ _____ _____    ______ ____
ROOT
ATOM      1  O   UNL     1      35.179 -25.226 -10.496  0.00  0.00    -0.270 OA
ATOM      2  O   UNL     1      38.367 -22.220 -11.899  0.00  0.00    -0.270 OA
ATOM      3  N   UNL     1      36.723 -23.542 -10.924  0.00  0.00    -0.248 N 
ATOM      4  C   UNL     1      36.526 -25.237 -12.503  0.00  0.00    +0.063 C 
ATOM      5  C   UNL     1      37.580 -24.241 -12.969  0.00  0.00    +0.063 C 
ATOM      6  C   UNL     1      36.039 -24.700 -11.189  0.00  0.00    +0.252 C 
ATOM      7  C   UNL     1      37.632 -23.197 -11.891  0.00  0.00    +0.252 C 
ATOM      8  H   UNL     1      36.575 -23.006 -10.113  0.00  0.00    +0.158 HD
ENDROOT
TORSDOF 0
ENDMDL
MODEL 9
REMARK VINA RESULT:      -4.7      2.090      3.018
REMARK  Name = 11439
REMARK  0 active torsions:
REMARK  status: ('A' for Active; 'I' for Inactive)
REMARK                            x       y       z     vdW  Elec       q    Type
REMARK                         _______ _______ _______ _____ _____    ______ ____
ROOT
ATOM      1  O   UNL     1      36.516 -26.728 -15.696  0.00  0.00    -0.270 OA
ATOM      2  O   UNL     1      40.469 -24.905 -14.211  0.00  0.00    -0.270 OA
ATOM      3  N   UNL     1      38.597 -25.789 -15.266  0.00  0.00    -0.248 N 
ATOM      4  C   UNL     1      37.247 -26.272 -13.438  0.00  0.00    +0.063 C 
ATOM      5  C   UNL     1      38.557 -25.671 -12.946  0.00  0.00    +0.063 C 
ATOM      6  C   UNL     1      37.373 -26.307 -14.933  0.00  0.00    +0.252 C 
ATOM      7  C   UNL     1      39.350 -25.396 -14.190  0.00  0.00    +0.252 C 
ATOM      8  H   UNL     1      38.909 -25.707 -16.196  0.00  0.00    +0.158 HD
ENDROOT
TORSDOF 0
ENDMDL
