MODEL 1
REMARK VINA RESULT:      -4.7      0.000      0.000
REMARK  Name = 74190
REMARK  4 active torsions:
REMARK  status: ('A' for Active; 'I' for Inactive)
REMARK    1  A    between atoms: P_1  and  O_3
REMARK    2  A    between atoms: P_1  and  O_5
REMARK    3  A    between atoms: P_1  and  O_7
REMARK    4  A    between atoms: O_7  and  C_8
REMARK                            x       y       z     vdW  Elec       q    Type
REMARK                         _______ _______ _______ _____ _____    ______ ____
ROOT
ATOM      1  P   UNL     1      39.818 -25.403 -14.855  0.00  0.00    +0.473 P 
ATOM      2  O   UNL     1      40.755 -24.943 -13.778  0.00  0.00    -0.227 OA
ENDROOT
BRANCH   1   3
ATOM      3  O   UNL     1      38.799 -24.278 -15.412  0.00  0.00    -0.303 OA
ATOM      4  H   UNL     1      38.082 -24.144 -14.771  0.00  0.00    +0.222 HD
ENDBRANCH   1   3
BRANCH   1   5
ATOM      5  O   UNL     1      40.536 -25.951 -16.197  0.00  0.00    -0.303 OA
ATOM      6  H   UNL     1      39.930 -26.543 -16.670  0.00  0.00    +0.222 HD
ENDBRANCH   1   5
BRANCH   1   7
ATOM      7  O   UNL     1      38.846 -26.629 -14.438  0.00  0.00    -0.273 OA
BRANCH   7   8
ATOM      8  C   UNL     1      37.518 -26.333 -14.043  0.00  0.00    +0.154 C 
ATOM      9  C   UNL     1      37.511 -25.976 -12.571  0.00  0.00    +0.035 C 
ENDBRANCH   7   8
ENDBRANCH   1   7
TORSDOF 4
ENDMDL
MODEL 2
REMARK VINA RESULT:      -4.6      4.442      4.972
REMARK  Name = 74190
REMARK  4 active torsions:
REMARK  status: ('A' for Active; 'I' for Inactive)
REMARK    1  A    between atoms: P_1  and  O_3
REMARK    2  A    between atoms: P_1  and  O_5
REMARK    3  A    between atoms: P_1  and  O_7
REMARK    4  A    between atoms: O_7  and  C_8
REMARK                            x       y       z     vdW  Elec       q    Type
REMARK                         _______ _______ _______ _____ _____    ______ ____
ROOT
ATOM      1  P   UNL     1      36.032 -24.109 -11.073  0.00  0.00    +0.473 P 
ATOM      2  O   UNL     1      37.148 -23.114 -10.959  0.00  0.00    -0.227 OA
ENDROOT
BRANCH   1   3
ATOM      3  O   UNL     1      35.324 -24.518  -9.678  0.00  0.00    -0.303 OA
ATOM      4  H   UNL     1      35.943 -24.369  -8.945  0.00  0.00    +0.222 HD
ENDBRANCH   1   3
BRANCH   1   5
ATOM      5  O   UNL     1      34.790 -23.639 -11.997  0.00  0.00    -0.303 OA
ATOM      6  H   UNL     1      35.055 -23.658 -12.930  0.00  0.00    +0.222 HD
ENDBRANCH   1   5
BRANCH   1   7
ATOM      7  O   UNL     1      36.449 -25.533 -11.724  0.00  0.00    -0.273 OA
BRANCH   7   8
ATOM      8  C   UNL     1      36.926 -25.552 -13.058  0.00  0.00    +0.154 C 
ATOM      9  C   UNL     1      38.432 -25.707 -13.040  0.00  0.00    +0.035 C 
ENDBRANCH   7   8
ENDBRANCH   1   7
TORSDOF 4
ENDMDL
MODEL 3
REMARK VINA RESULT:      -4.5      1.367      1.991
REMARK  Name = 74190
REMARK  4 active torsions:
REMARK  status: ('A' for Active; 'I' for Inactive)
REMARK    1  A    between atoms: P_1  and  O_3
REMARK    2  A    between atoms: P_1  and  O_5
REMARK    3  A    between atoms: P_1  and  O_7
REMARK    4  A    between atoms: O_7  and  C_8
REMARK                            x       y       z     vdW  Elec       q    Type
REMARK                         _______ _______ _______ _____ _____    ______ ____
ROOT
ATOM      1  P   UNL     1      40.101 -26.064 -14.579  0.00  0.00    +0.473 P 
ATOM      2  O   UNL     1      41.313 -26.709 -13.974  0.00  0.00    -0.227 OA
ENDROOT
BRANCH   1   3
ATOM      3  O   UNL     1      40.257 -25.613 -16.124  0.00  0.00    -0.303 OA
ATOM      4  H   UNL     1      40.677 -26.328 -16.630  0.00  0.00    +0.222 HD
ENDBRANCH   1   3
BRANCH   1   5
ATOM      5  O   UNL     1      38.772 -26.985 -14.592  0.00  0.00    -0.303 OA
ATOM      6  H   UNL     1      38.011 -26.459 -14.300  0.00  0.00    +0.222 HD
ENDBRANCH   1   5
BRANCH   1   7
ATOM      7  O   UNL     1      39.600 -24.715 -13.834  0.00  0.00    -0.273 OA
BRANCH   7   8
ATOM      8  C   UNL     1      38.238 -24.619 -13.457  0.00  0.00    +0.154 C 
ATOM      9  C   UNL     1      38.157 -24.132 -12.026  0.00  0.00    +0.035 C 
ENDBRANCH   7   8
ENDBRANCH   1   7
TORSDOF 4
ENDMDL
MODEL 4
REMARK VINA RESULT:      -4.4     10.570     11.457
REMARK  Name = 74190
REMARK  4 active torsions:
REMARK  status: ('A' for Active; 'I' for Inactive)
REMARK    1  A    between atoms: P_1  and  O_3
REMARK    2  A    between atoms: P_1  and  O_5
REMARK    3  A    between atoms: P_1  and  O_7
REMARK    4  A    between atoms: O_7  and  C_8
REMARK                            x       y       z     vdW  Elec       q    Type
REMARK                         _______ _______ _______ _____ _____    ______ ____
ROOT
ATOM      1  P   UNL     1      27.836 -22.747 -16.938  0.00  0.00    +0.473 P 
ATOM      2  O   UNL     1      27.544 -24.007 -17.696  0.00  0.00    -0.227 OA
ENDROOT
BRANCH   1   3
ATOM      3  O   UNL     1      27.077 -21.424 -17.477  0.00  0.00    -0.303 OA
ATOM      4  H   UNL     1      27.690 -20.895 -18.013  0.00  0.00    +0.222 HD
ENDBRANCH   1   3
BRANCH   1   5
ATOM      5  O   UNL     1      27.445 -22.787 -15.369  0.00  0.00    -0.303 OA
ATOM      6  H   UNL     1      28.049 -22.214 -14.870  0.00  0.00    +0.222 HD
ENDBRANCH   1   5
BRANCH   1   7
ATOM      7  O   UNL     1      29.396 -22.310 -16.911  0.00  0.00    -0.273 OA
BRANCH   7   8
ATOM      8  C   UNL     1      30.263 -22.957 -15.995  0.00  0.00    +0.154 C 
ATOM      9  C   UNL     1      31.645 -23.046 -16.606  0.00  0.00    +0.035 C 
ENDBRANCH   7   8
ENDBRANCH   1   7
TORSDOF 4
ENDMDL
MODEL 5
REMARK VINA RESULT:      -4.4      1.916      2.719
REMARK  Name = 74190
REMARK  4 active torsions:
REMARK  status: ('A' for Active; 'I' for Inactive)
REMARK    1  A    between atoms: P_1  and  O_3
REMARK    2  A    between atoms: P_1  and  O_5
REMARK    3  A    between atoms: P_1  and  O_7
REMARK    4  A    between atoms: O_7  and  C_8
REMARK                            x       y       z     vdW  Elec       q    Type
REMARK                         _______ _______ _______ _____ _____    ______ ____
ROOT
ATOM      1  P   UNL     1      39.707 -25.347 -14.799  0.00  0.00    +0.473 P 
ATOM      2  O   UNL     1      38.793 -26.312 -14.103  0.00  0.00    -0.227 OA
ENDROOT
BRANCH   1   3
ATOM      3  O   UNL     1      41.005 -24.889 -13.950  0.00  0.00    -0.303 OA
ATOM      4  H   UNL     1      41.545 -25.668 -13.737  0.00  0.00    +0.222 HD
ENDBRANCH   1   3
BRANCH   1   5
ATOM      5  O   UNL     1      40.342 -25.887 -16.186  0.00  0.00    -0.303 OA
ATOM      6  H   UNL     1      40.528 -26.835 -16.109  0.00  0.00    +0.222 HD
ENDBRANCH   1   5
BRANCH   1   7
ATOM      7  O   UNL     1      39.020 -23.947 -15.236  0.00  0.00    -0.273 OA
BRANCH   7   8
ATOM      8  C   UNL     1      37.607 -23.849 -15.205  0.00  0.00    +0.154 C 
ATOM      9  C   UNL     1      37.179 -22.645 -16.018  0.00  0.00    +0.035 C 
ENDBRANCH   7   8
ENDBRANCH   1   7
TORSDOF 4
ENDMDL
MODEL 6
REMARK VINA RESULT:      -4.4     10.768     11.375
REMARK  Name = 74190
REMARK  4 active torsions:
REMARK  status: ('A' for Active; 'I' for Inactive)
REMARK    1  A    between atoms: P_1  and  O_3
REMARK    2  A    between atoms: P_1  and  O_5
REMARK    3  A    between atoms: P_1  and  O_7
REMARK    4  A    between atoms: O_7  and  C_8
REMARK                            x       y       z     vdW  Elec       q    Type
REMARK                         _______ _______ _______ _____ _____    ______ ____
ROOT
ATOM      1  P   UNL     1      41.062 -15.645 -15.520  0.00  0.00    +0.473 P 
ATOM      2  O   UNL     1      42.356 -16.396 -15.624  0.00  0.00    -0.227 OA
ENDROOT
BRANCH   1   3
ATOM      3  O   UNL     1      39.751 -16.559 -15.269  0.00  0.00    -0.303 OA
ATOM      4  H   UNL     1      39.029 -16.254 -15.842  0.00  0.00    +0.222 HD
ENDBRANCH   1   3
BRANCH   1   5
ATOM      5  O   UNL     1      40.995 -14.561 -14.321  0.00  0.00    -0.303 OA
ATOM      6  H   UNL     1      40.181 -14.040 -14.401  0.00  0.00    +0.222 HD
ENDBRANCH   1   5
BRANCH   1   7
ATOM      7  O   UNL     1      40.673 -14.767 -16.824  0.00  0.00    -0.273 OA
BRANCH   7   8
ATOM      8  C   UNL     1      41.694 -14.455 -17.757  0.00  0.00    +0.154 C 
ATOM      9  C   UNL     1      42.172 -13.040 -17.509  0.00  0.00    +0.035 C 
ENDBRANCH   7   8
ENDBRANCH   1   7
TORSDOF 4
ENDMDL
MODEL 7
REMARK VINA RESULT:      -4.4     10.153     10.894
REMARK  Name = 74190
REMARK  4 active torsions:
REMARK  status: ('A' for Active; 'I' for Inactive)
REMARK    1  A    between atoms: P_1  and  O_3
REMARK    2  A    between atoms: P_1  and  O_5
REMARK    3  A    between atoms: P_1  and  O_7
REMARK    4  A    between atoms: O_7  and  C_8
REMARK                            x       y       z     vdW  Elec       q    Type
REMARK                         _______ _______ _______ _____ _____    ______ ____
ROOT
ATOM      1  P   UNL     1      28.198 -22.960 -16.486  0.00  0.00    +0.473 P 
ATOM      2  O   UNL     1      27.330 -21.892 -15.890  0.00  0.00    -0.227 OA
ENDROOT
BRANCH   1   3
ATOM      3  O   UNL     1      27.553 -23.758 -17.736  0.00  0.00    -0.303 OA
ATOM      4  H   UNL     1      26.634 -23.471 -17.864  0.00  0.00    +0.222 HD
ENDBRANCH   1   3
BRANCH   1   5
ATOM      5  O   UNL     1      29.616 -22.442 -17.068  0.00  0.00    -0.303 OA
ATOM      6  H   UNL     1      30.337 -22.946 -16.658  0.00  0.00    +0.222 HD
ENDBRANCH   1   5
BRANCH   1   7
ATOM      7  O   UNL     1      28.634 -24.138 -15.463  0.00  0.00    -0.273 OA
BRANCH   7   8
ATOM      8  C   UNL     1      29.825 -24.858 -15.731  0.00  0.00    +0.154 C 
ATOM      9  C   UNL     1      30.526 -25.153 -14.421  0.00  0.00    +0.035 C 
ENDBRANCH   7   8
ENDBRANCH   1   7
TORSDOF 4
ENDMDL
MODEL 8
REMARK VINA RESULT:      -4.3     10.802     11.400
REMARK  Name = 74190
REMARK  4 active torsions:
REMARK  status: ('A' for Active; 'I' for Inactive)
REMARK    1  A    between atoms: P_1  and  O_3
REMARK    2  A    between atoms: P_1  and  O_5
REMARK    3  A    between atoms: P_1  and  O_7
REMARK    4  A    between atoms: O_7  and  C_8
REMARK                            x       y       z     vdW  Elec       q    Type
REMARK                         _______ _______ _______ _____ _____    ______ ____
ROOT
ATOM      1  P   UNL     1      40.975 -15.483 -15.410  0.00  0.00    +0.473 P 
ATOM      2  O   UNL     1      41.029 -14.484 -14.293  0.00  0.00    -0.227 OA
ENDROOT
BRANCH   1   3
ATOM      3  O   UNL     1      42.294 -16.405 -15.578  0.00  0.00    -0.303 OA
ATOM      4  H   UNL     1      42.535 -16.455 -16.517  0.00  0.00    +0.222 HD
ENDBRANCH   1   3
BRANCH   1   5
ATOM      5  O   UNL     1      39.777 -16.564 -15.302  0.00  0.00    -0.303 OA
ATOM      6  H   UNL     1      38.925 -16.101 -15.269  0.00  0.00    +0.222 HD
ENDBRANCH   1   5
BRANCH   1   7
ATOM      7  O   UNL     1      40.759 -14.849 -16.885  0.00  0.00    -0.273 OA
BRANCH   7   8
ATOM      8  C   UNL     1      41.901 -14.443 -17.619  0.00  0.00    +0.154 C 
ATOM      9  C   UNL     1      42.089 -12.950 -17.451  0.00  0.00    +0.035 C 
ENDBRANCH   7   8
ENDBRANCH   1   7
TORSDOF 4
ENDMDL
MODEL 9
REMARK VINA RESULT:      -4.3     10.680     11.171
REMARK  Name = 74190
REMARK  4 active torsions:
REMARK  status: ('A' for Active; 'I' for Inactive)
REMARK    1  A    between atoms: P_1  and  O_3
REMARK    2  A    between atoms: P_1  and  O_5
REMARK    3  A    between atoms: P_1  and  O_7
REMARK    4  A    between atoms: O_7  and  C_8
REMARK                            x       y       z     vdW  Elec       q    Type
REMARK                         _______ _______ _______ _____ _____    ______ ____
ROOT
ATOM      1  P   UNL     1      42.239 -16.391 -17.360  0.00  0.00    +0.473 P 
ATOM      2  O   UNL     1      43.519 -16.180 -16.609  0.00  0.00    -0.227 OA
ENDROOT
BRANCH   1   3
ATOM      3  O   UNL     1      42.391 -16.512 -18.966  0.00  0.00    -0.303 OA
ATOM      4  H   UNL     1      42.705 -15.667 -19.326  0.00  0.00    +0.222 HD
ENDBRANCH   1   3
BRANCH   1   5
ATOM      5  O   UNL     1      41.425 -17.732 -16.962  0.00  0.00    -0.303 OA
ATOM      6  H   UNL     1      41.536 -18.397 -17.659  0.00  0.00    +0.222 HD
ENDBRANCH   1   5
BRANCH   1   7
ATOM      7  O   UNL     1      41.131 -15.225 -17.167  0.00  0.00    -0.273 OA
BRANCH   7   8
ATOM      8  C   UNL     1      41.156 -14.117 -18.050  0.00  0.00    +0.154 C 
ATOM      9  C   UNL     1      42.025 -13.030 -17.452  0.00  0.00    +0.035 C 
ENDBRANCH   7   8
ENDBRANCH   1   7
TORSDOF 4
ENDMDL
