MODEL 1
REMARK VINA RESULT:      -9.8      0.000      0.000
REMARK  Name = 444941
REMARK  8 active torsions:
REMARK  status: ('A' for Active; 'I' for Inactive)
REMARK    1  A    between atoms: C_2  and  N_6
REMARK    2  A    between atoms: C_3  and  O_17
REMARK    3  A    between atoms: C_4  and  O_19
REMARK    4  A    between atoms: C_5  and  C_21
REMARK    5  A    between atoms: C_21  and  O_22
REMARK    6  A    between atoms: O_22  and  P_23
REMARK    7  A    between atoms: P_23  and  O_25
REMARK    8  A    between atoms: P_23  and  O_27
REMARK                            x       y       z     vdW  Elec       q    Type
REMARK                         _______ _______ _______ _____ _____    ______ ____
ROOT
ATOM      1  O   UNL     1      37.094 -24.447 -14.079  0.00  0.00    -0.333 OA
ATOM      2  C   UNL     1      35.696 -24.809 -14.015  0.00  0.00    +0.224 C 
ATOM      3  C   UNL     1      35.239 -24.536 -12.584  0.00  0.00    +0.187 C 
ATOM      4  C   UNL     1      36.506 -24.888 -11.830  0.00  0.00    +0.171 C 
ATOM      5  C   UNL     1      37.577 -24.285 -12.732  0.00  0.00    +0.176 C 
ENDROOT
BRANCH   2   6
ATOM      6  N   UNL     1      34.943 -24.126 -15.060  0.00  0.00    -0.262 N 
ATOM      7  N   UNL     1      34.555 -22.931 -16.903  0.00  0.00    -0.251 NA
ATOM      8  C   UNL     1      33.574 -24.040 -15.171  0.00  0.00    +0.064 C 
ATOM      9  C   UNL     1      35.480 -23.445 -16.124  0.00  0.00    +0.221 C 
ATOM     10  C   UNL     1      33.360 -23.292 -16.325  0.00  0.00    +0.073 C 
ATOM     11  C   UNL     1      32.540 -24.541 -14.379  0.00  0.00    +0.011 C 
ATOM     12  C   UNL     1      31.236 -24.258 -14.794  0.00  0.00    -0.028 C 
ATOM     13  C   UNL     1      32.042 -23.017 -16.728  0.00  0.00    +0.068 C 
ATOM     14  C   UNL     1      30.988 -23.509 -15.948  0.00  0.00    -0.042 C 
ATOM     15  C   UNL     1      30.101 -24.779 -13.971  0.00  0.00    +0.030 C 
ATOM     16  C   UNL     1      29.587 -23.216 -16.380  0.00  0.00    +0.026 C 
ENDBRANCH   2   6
BRANCH   3  17
ATOM     17  O   UNL     1      34.933 -23.157 -12.406  0.00  0.00    -0.378 OA
ATOM     18  H   UNL     1      35.356 -22.833 -11.596  0.00  0.00    +0.211 HD
ENDBRANCH   3  17
BRANCH   4  19
ATOM     19  O   UNL     1      36.550 -24.349 -10.526  0.00  0.00    -0.379 OA
ATOM     20  H   UNL     1      35.983 -24.876  -9.940  0.00  0.00    +0.211 HD
ENDBRANCH   4  19
BRANCH   5  21
ATOM     21  C   UNL     1      38.930 -24.960 -12.590  0.00  0.00    +0.186 C 
BRANCH  21  22
ATOM     22  O   UNL     1      39.655 -24.790 -13.796  0.00  0.00    -0.271 OA
BRANCH  22  23
ATOM     23  P   UNL     1      40.134 -26.111 -14.600  0.00  0.00    +0.473 P 
ATOM     24  O   UNL     1      41.339 -26.800 -14.028  0.00  0.00    -0.227 OA
BRANCH  23  25
ATOM     25  O   UNL     1      40.291 -25.596 -16.125  0.00  0.00    -0.303 OA
ATOM     26  H   UNL     1      39.864 -26.227 -16.725  0.00  0.00    +0.222 HD
ENDBRANCH  23  25
BRANCH  23  27
ATOM     27  O   UNL     1      38.791 -27.011 -14.648  0.00  0.00    -0.303 OA
ATOM     28  H   UNL     1      38.852 -27.643 -15.381  0.00  0.00    +0.222 HD
ENDBRANCH  23  27
ENDBRANCH  22  23
ENDBRANCH  21  22
ENDBRANCH   5  21
TORSDOF 8
ENDMDL
MODEL 2
REMARK VINA RESULT:      -9.7      2.609      4.002
REMARK  Name = 444941
REMARK  8 active torsions:
REMARK  status: ('A' for Active; 'I' for Inactive)
REMARK    1  A    between atoms: C_2  and  N_6
REMARK    2  A    between atoms: C_3  and  O_17
REMARK    3  A    between atoms: C_4  and  O_19
REMARK    4  A    between atoms: C_5  and  C_21
REMARK    5  A    between atoms: C_21  and  O_22
REMARK    6  A    between atoms: O_22  and  P_23
REMARK    7  A    between atoms: P_23  and  O_25
REMARK    8  A    between atoms: P_23  and  O_27
REMARK                            x       y       z     vdW  Elec       q    Type
REMARK                         _______ _______ _______ _____ _____    ______ ____
ROOT
ATOM      1  O   UNL     1      35.770 -23.110 -15.411  0.00  0.00    -0.333 OA
ATOM      2  C   UNL     1      34.646 -23.933 -15.793  0.00  0.00    +0.224 C 
ATOM      3  C   UNL     1      33.922 -24.312 -14.503  0.00  0.00    +0.187 C 
ATOM      4  C   UNL     1      35.104 -24.425 -13.560  0.00  0.00    +0.171 C 
ATOM      5  C   UNL     1      35.952 -23.233 -13.987  0.00  0.00    +0.176 C 
ENDROOT
BRANCH   2   6
ATOM      6  N   UNL     1      33.834 -23.257 -16.798  0.00  0.00    -0.262 N 
ATOM      7  N   UNL     1      32.009 -22.583 -17.889  0.00  0.00    -0.251 NA
ATOM      8  C   UNL     1      34.285 -22.476 -17.837  0.00  0.00    +0.064 C 
ATOM      9  C   UNL     1      32.464 -23.286 -16.876  0.00  0.00    +0.221 C 
ATOM     10  C   UNL     1      33.130 -22.070 -18.500  0.00  0.00    +0.073 C 
ATOM     11  C   UNL     1      35.569 -22.105 -18.237  0.00  0.00    +0.011 C 
ATOM     12  C   UNL     1      35.664 -21.283 -19.364  0.00  0.00    -0.028 C 
ATOM     13  C   UNL     1      33.244 -21.245 -19.631  0.00  0.00    +0.068 C 
ATOM     14  C   UNL     1      34.523 -20.859 -20.051  0.00  0.00    -0.042 C 
ATOM     15  C   UNL     1      37.024 -20.864 -19.822  0.00  0.00    +0.030 C 
ATOM     16  C   UNL     1      34.643 -19.980 -21.254  0.00  0.00    +0.026 C 
ENDBRANCH   2   6
BRANCH   3  17
ATOM     17  O   UNL     1      33.061 -23.260 -14.080  0.00  0.00    -0.378 OA
ATOM     18  H   UNL     1      33.018 -22.579 -14.769  0.00  0.00    +0.211 HD
ENDBRANCH   3  17
BRANCH   4  19
ATOM     19  O   UNL     1      34.742 -24.355 -12.198  0.00  0.00    -0.379 OA
ATOM     20  H   UNL     1      34.039 -23.696 -12.083  0.00  0.00    +0.211 HD
ENDBRANCH   4  19
BRANCH   5  21
ATOM     21  C   UNL     1      37.428 -23.404 -13.674  0.00  0.00    +0.186 C 
BRANCH  21  22
ATOM     22  O   UNL     1      37.710 -24.787 -13.542  0.00  0.00    -0.271 OA
BRANCH  22  23
ATOM     23  P   UNL     1      38.695 -25.479 -14.624  0.00  0.00    +0.473 P 
ATOM     24  O   UNL     1      39.759 -26.364 -14.040  0.00  0.00    -0.227 OA
BRANCH  23  25
ATOM     25  O   UNL     1      39.237 -24.234 -15.502  0.00  0.00    -0.303 OA
ATOM     26  H   UNL     1      38.800 -24.235 -16.368  0.00  0.00    +0.222 HD
ENDBRANCH  23  25
BRANCH  23  27
ATOM     27  O   UNL     1      37.665 -26.221 -15.626  0.00  0.00    -0.303 OA
ATOM     28  H   UNL     1      37.886 -25.994 -16.542  0.00  0.00    +0.222 HD
ENDBRANCH  23  27
ENDBRANCH  22  23
ENDBRANCH  21  22
ENDBRANCH   5  21
TORSDOF 8
ENDMDL
MODEL 3
REMARK VINA RESULT:      -9.5      1.404      1.732
REMARK  Name = 444941
REMARK  8 active torsions:
REMARK  status: ('A' for Active; 'I' for Inactive)
REMARK    1  A    between atoms: C_2  and  N_6
REMARK    2  A    between atoms: C_3  and  O_17
REMARK    3  A    between atoms: C_4  and  O_19
REMARK    4  A    between atoms: C_5  and  C_21
REMARK    5  A    between atoms: C_21  and  O_22
REMARK    6  A    between atoms: O_22  and  P_23
REMARK    7  A    between atoms: P_23  and  O_25
REMARK    8  A    between atoms: P_23  and  O_27
REMARK                            x       y       z     vdW  Elec       q    Type
REMARK                         _______ _______ _______ _____ _____    ______ ____
ROOT
ATOM      1  O   UNL     1      35.915 -25.216 -15.634  0.00  0.00    -0.333 OA
ATOM      2  C   UNL     1      34.913 -24.513 -14.866  0.00  0.00    +0.224 C 
ATOM      3  C   UNL     1      35.664 -23.588 -13.911  0.00  0.00    +0.187 C 
ATOM      4  C   UNL     1      36.883 -24.441 -13.619  0.00  0.00    +0.171 C 
ATOM      5  C   UNL     1      37.191 -25.017 -14.995  0.00  0.00    +0.176 C 
ENDROOT
BRANCH   2   6
ATOM      6  N   UNL     1      33.952 -23.864 -15.750  0.00  0.00    -0.262 N 
ATOM      7  N   UNL     1      33.176 -22.739 -17.512  0.00  0.00    -0.251 NA
ATOM      8  C   UNL     1      32.593 -23.769 -15.565  0.00  0.00    +0.064 C 
ATOM      9  C   UNL     1      34.248 -23.232 -16.931  0.00  0.00    +0.221 C 
ATOM     10  C   UNL     1      32.134 -23.064 -16.675  0.00  0.00    +0.073 C 
ATOM     11  C   UNL     1      31.754 -24.227 -14.549  0.00  0.00    +0.011 C 
ATOM     12  C   UNL     1      30.390 -23.947 -14.683  0.00  0.00    -0.028 C 
ATOM     13  C   UNL     1      30.761 -22.792 -16.794  0.00  0.00    +0.068 C 
ATOM     14  C   UNL     1      29.901 -23.243 -15.786  0.00  0.00    -0.042 C 
ATOM     15  C   UNL     1      29.461 -24.424 -13.614  0.00  0.00    +0.030 C 
ATOM     16  C   UNL     1      28.439 -22.952 -15.915  0.00  0.00    +0.026 C 
ENDBRANCH   2   6
BRANCH   3  17
ATOM     17  O   UNL     1      36.057 -22.389 -14.574  0.00  0.00    -0.378 OA
ATOM     18  H   UNL     1      35.300 -21.785 -14.625  0.00  0.00    +0.211 HD
ENDBRANCH   3  17
BRANCH   4  19
ATOM     19  O   UNL     1      37.969 -23.706 -13.098  0.00  0.00    -0.379 OA
ATOM     20  H   UNL     1      38.006 -22.836 -13.526  0.00  0.00    +0.211 HD
ENDBRANCH   4  19
BRANCH   5  21
ATOM     21  C   UNL     1      37.945 -26.335 -14.939  0.00  0.00    +0.186 C 
BRANCH  21  22
ATOM     22  O   UNL     1      38.962 -26.237 -13.956  0.00  0.00    -0.271 OA
BRANCH  22  23
ATOM     23  P   UNL     1      40.489 -26.017 -14.445  0.00  0.00    +0.473 P 
ATOM     24  O   UNL     1      41.470 -27.037 -13.944  0.00  0.00    -0.227 OA
BRANCH  23  25
ATOM     25  O   UNL     1      40.808 -24.487 -14.029  0.00  0.00    -0.303 OA
ATOM     26  H   UNL     1      41.613 -24.191 -14.480  0.00  0.00    +0.222 HD
ENDBRANCH  23  25
BRANCH  23  27
ATOM     27  O   UNL     1      40.344 -25.942 -16.054  0.00  0.00    -0.303 OA
ATOM     28  H   UNL     1      39.444 -26.198 -16.310  0.00  0.00    +0.222 HD
ENDBRANCH  23  27
ENDBRANCH  22  23
ENDBRANCH  21  22
ENDBRANCH   5  21
TORSDOF 8
ENDMDL
MODEL 4
REMARK VINA RESULT:      -9.5      2.029      3.410
REMARK  Name = 444941
REMARK  8 active torsions:
REMARK  status: ('A' for Active; 'I' for Inactive)
REMARK    1  A    between atoms: C_2  and  N_6
REMARK    2  A    between atoms: C_3  and  O_17
REMARK    3  A    between atoms: C_4  and  O_19
REMARK    4  A    between atoms: C_5  and  C_21
REMARK    5  A    between atoms: C_21  and  O_22
REMARK    6  A    between atoms: O_22  and  P_23
REMARK    7  A    between atoms: P_23  and  O_25
REMARK    8  A    between atoms: P_23  and  O_27
REMARK                            x       y       z     vdW  Elec       q    Type
REMARK                         _______ _______ _______ _____ _____    ______ ____
ROOT
ATOM      1  O   UNL     1      35.757 -25.254 -15.536  0.00  0.00    -0.333 OA
ATOM      2  C   UNL     1      34.775 -24.573 -14.725  0.00  0.00    +0.224 C 
ATOM      3  C   UNL     1      35.546 -23.622 -13.812  0.00  0.00    +0.187 C 
ATOM      4  C   UNL     1      36.799 -24.440 -13.574  0.00  0.00    +0.171 C 
ATOM      5  C   UNL     1      37.056 -25.018 -14.960  0.00  0.00    +0.176 C 
ENDROOT
BRANCH   2   6
ATOM      6  N   UNL     1      33.756 -23.955 -15.565  0.00  0.00    -0.262 N 
ATOM      7  N   UNL     1      31.729 -23.358 -16.277  0.00  0.00    -0.251 NA
ATOM      8  C   UNL     1      33.962 -23.219 -16.708  0.00  0.00    +0.064 C 
ATOM      9  C   UNL     1      32.401 -24.006 -15.353  0.00  0.00    +0.221 C 
ATOM     10  C   UNL     1      32.685 -22.859 -17.131  0.00  0.00    +0.073 C 
ATOM     11  C   UNL     1      35.125 -22.850 -17.384  0.00  0.00    +0.011 C 
ATOM     12  C   UNL     1      34.964 -22.082 -18.541  0.00  0.00    -0.028 C 
ATOM     13  C   UNL     1      32.542 -22.087 -18.296  0.00  0.00    +0.068 C 
ATOM     14  C   UNL     1      33.696 -21.705 -18.991  0.00  0.00    -0.042 C 
ATOM     15  C   UNL     1      36.189 -21.667 -19.292  0.00  0.00    +0.030 C 
ATOM     16  C   UNL     1      33.541 -20.882 -20.230  0.00  0.00    +0.026 C 
ENDBRANCH   2   6
BRANCH   3  17
ATOM     17  O   UNL     1      35.874 -22.418 -14.500  0.00  0.00    -0.378 OA
ATOM     18  H   UNL     1      35.379 -22.376 -15.332  0.00  0.00    +0.211 HD
ENDBRANCH   3  17
BRANCH   4  19
ATOM     19  O   UNL     1      37.889 -23.674 -13.110  0.00  0.00    -0.379 OA
ATOM     20  H   UNL     1      38.702 -24.200 -13.167  0.00  0.00    +0.211 HD
ENDBRANCH   4  19
BRANCH   5  21
ATOM     21  C   UNL     1      37.847 -26.315 -14.933  0.00  0.00    +0.186 C 
BRANCH  21  22
ATOM     22  O   UNL     1      38.908 -26.183 -14.002  0.00  0.00    -0.271 OA
BRANCH  22  23
ATOM     23  P   UNL     1      40.402 -25.926 -14.567  0.00  0.00    +0.473 P 
ATOM     24  O   UNL     1      40.539 -26.006 -16.060  0.00  0.00    -0.227 OA
BRANCH  23  25
ATOM     25  O   UNL     1      41.313 -26.970 -13.733  0.00  0.00    -0.303 OA
ATOM     26  H   UNL     1      40.862 -27.205 -12.908  0.00  0.00    +0.222 HD
ENDBRANCH  23  25
BRANCH  23  27
ATOM     27  O   UNL     1      40.791 -24.496 -13.921  0.00  0.00    -0.303 OA
ATOM     28  H   UNL     1      41.727 -24.309 -14.090  0.00  0.00    +0.222 HD
ENDBRANCH  23  27
ENDBRANCH  22  23
ENDBRANCH  21  22
ENDBRANCH   5  21
TORSDOF 8
ENDMDL
MODEL 5
REMARK VINA RESULT:      -9.2      1.512      2.815
REMARK  Name = 444941
REMARK  8 active torsions:
REMARK  status: ('A' for Active; 'I' for Inactive)
REMARK    1  A    between atoms: C_2  and  N_6
REMARK    2  A    between atoms: C_3  and  O_17
REMARK    3  A    between atoms: C_4  and  O_19
REMARK    4  A    between atoms: C_5  and  C_21
REMARK    5  A    between atoms: C_21  and  O_22
REMARK    6  A    between atoms: O_22  and  P_23
REMARK    7  A    between atoms: P_23  and  O_25
REMARK    8  A    between atoms: P_23  and  O_27
REMARK                            x       y       z     vdW  Elec       q    Type
REMARK                         _______ _______ _______ _____ _____    ______ ____
ROOT
ATOM      1  O   UNL     1      36.442 -23.723 -14.064  0.00  0.00    -0.333 OA
ATOM      2  C   UNL     1      35.306 -24.597 -13.881  0.00  0.00    +0.224 C 
ATOM      3  C   UNL     1      35.009 -24.621 -12.383  0.00  0.00    +0.187 C 
ATOM      4  C   UNL     1      36.417 -24.509 -11.833  0.00  0.00    +0.171 C 
ATOM      5  C   UNL     1      37.034 -23.481 -12.773  0.00  0.00    +0.176 C 
ENDROOT
BRANCH   2   6
ATOM      6  N   UNL     1      34.200 -24.187 -14.738  0.00  0.00    -0.262 N 
ATOM      7  N   UNL     1      32.102 -23.933 -15.448  0.00  0.00    -0.251 NA
ATOM      8  C   UNL     1      34.287 -23.500 -15.927  0.00  0.00    +0.064 C 
ATOM      9  C   UNL     1      32.869 -24.419 -14.499  0.00  0.00    +0.221 C 
ATOM     10  C   UNL     1      32.967 -23.356 -16.348  0.00  0.00    +0.073 C 
ATOM     11  C   UNL     1      35.378 -23.011 -16.645  0.00  0.00    +0.011 C 
ATOM     12  C   UNL     1      35.096 -22.347 -17.843  0.00  0.00    -0.028 C 
ATOM     13  C   UNL     1      32.703 -22.686 -17.554  0.00  0.00    +0.068 C 
ATOM     14  C   UNL     1      33.783 -22.185 -18.291  0.00  0.00    -0.042 C 
ATOM     15  C   UNL     1      36.241 -21.807 -18.640  0.00  0.00    +0.030 C 
ATOM     16  C   UNL     1      33.498 -21.472 -19.575  0.00  0.00    +0.026 C 
ENDBRANCH   2   6
BRANCH   3  17
ATOM     17  O   UNL     1      34.245 -23.480 -12.003  0.00  0.00    -0.378 OA
ATOM     18  H   UNL     1      34.837 -22.723 -11.874  0.00  0.00    +0.211 HD
ENDBRANCH   3  17
BRANCH   4  19
ATOM     19  O   UNL     1      36.460 -24.087 -10.487  0.00  0.00    -0.379 OA
ATOM     20  H   UNL     1      36.932 -23.241 -10.428  0.00  0.00    +0.211 HD
ENDBRANCH   4  19
BRANCH   5  21
ATOM     21  C   UNL     1      38.545 -23.593 -12.876  0.00  0.00    +0.186 C 
BRANCH  21  22
ATOM     22  O   UNL     1      38.897 -24.962 -12.974  0.00  0.00    -0.271 OA
BRANCH  22  23
ATOM     23  P   UNL     1      39.543 -25.495 -14.359  0.00  0.00    +0.473 P 
ATOM     24  O   UNL     1      41.010 -25.809 -14.297  0.00  0.00    -0.227 OA
BRANCH  23  25
ATOM     25  O   UNL     1      39.124 -24.365 -15.438  0.00  0.00    -0.303 OA
ATOM     26  H   UNL     1      38.561 -24.762 -16.120  0.00  0.00    +0.222 HD
ENDBRANCH  23  25
BRANCH  23  27
ATOM     27  O   UNL     1      38.592 -26.745 -14.743  0.00  0.00    -0.303 OA
ATOM     28  H   UNL     1      38.716 -27.456 -14.096  0.00  0.00    +0.222 HD
ENDBRANCH  23  27
ENDBRANCH  22  23
ENDBRANCH  21  22
ENDBRANCH   5  21
TORSDOF 8
ENDMDL
MODEL 6
REMARK VINA RESULT:      -9.2      5.484      8.498
REMARK  Name = 444941
REMARK  8 active torsions:
REMARK  status: ('A' for Active; 'I' for Inactive)
REMARK    1  A    between atoms: C_2  and  N_6
REMARK    2  A    between atoms: C_3  and  O_17
REMARK    3  A    between atoms: C_4  and  O_19
REMARK    4  A    between atoms: C_5  and  C_21
REMARK    5  A    between atoms: C_21  and  O_22
REMARK    6  A    between atoms: O_22  and  P_23
REMARK    7  A    between atoms: P_23  and  O_25
REMARK    8  A    between atoms: P_23  and  O_27
REMARK                            x       y       z     vdW  Elec       q    Type
REMARK                         _______ _______ _______ _____ _____    ______ ____
ROOT
ATOM      1  O   UNL     1      30.589 -22.721 -15.480  0.00  0.00    -0.333 OA
ATOM      2  C   UNL     1      31.494 -23.424 -14.600  0.00  0.00    +0.224 C 
ATOM      3  C   UNL     1      30.823 -24.752 -14.255  0.00  0.00    +0.187 C 
ATOM      4  C   UNL     1      29.372 -24.318 -14.229  0.00  0.00    +0.171 C 
ATOM      5  C   UNL     1      29.310 -23.381 -15.430  0.00  0.00    +0.176 C 
ENDROOT
BRANCH   2   6
ATOM      6  N   UNL     1      32.820 -23.521 -15.199  0.00  0.00    -0.262 N 
ATOM      7  N   UNL     1      34.399 -23.484 -16.772  0.00  0.00    -0.251 NA
ATOM      8  C   UNL     1      33.998 -23.818 -14.554  0.00  0.00    +0.064 C 
ATOM      9  C   UNL     1      33.118 -23.330 -16.524  0.00  0.00    +0.221 C 
ATOM     10  C   UNL     1      34.965 -23.789 -15.555  0.00  0.00    +0.073 C 
ATOM     11  C   UNL     1      34.286 -24.101 -13.219  0.00  0.00    +0.011 C 
ATOM     12  C   UNL     1      35.623 -24.364 -12.905  0.00  0.00    -0.028 C 
ATOM     13  C   UNL     1      36.303 -24.056 -15.223  0.00  0.00    +0.068 C 
ATOM     14  C   UNL     1      36.616 -24.342 -13.888  0.00  0.00    -0.042 C 
ATOM     15  C   UNL     1      35.970 -24.671 -11.484  0.00  0.00    +0.030 C 
ATOM     16  C   UNL     1      38.042 -24.625 -13.536  0.00  0.00    +0.026 C 
ENDBRANCH   2   6
BRANCH   3  17
ATOM     17  O   UNL     1      31.029 -25.705 -15.294  0.00  0.00    -0.378 OA
ATOM     18  H   UNL     1      30.966 -25.264 -16.155  0.00  0.00    +0.211 HD
ENDBRANCH   3  17
BRANCH   4  19
ATOM     19  O   UNL     1      28.464 -25.391 -14.349  0.00  0.00    -0.379 OA
ATOM     20  H   UNL     1      28.506 -25.942 -13.551  0.00  0.00    +0.211 HD
ENDBRANCH   4  19
BRANCH   5  21
ATOM     21  C   UNL     1      28.204 -22.346 -15.328  0.00  0.00    +0.186 C 
BRANCH  21  22
ATOM     22  O   UNL     1      28.097 -21.667 -16.567  0.00  0.00    -0.271 OA
BRANCH  22  23
ATOM     23  P   UNL     1      26.654 -21.617 -17.298  0.00  0.00    +0.473 P 
ATOM     24  O   UNL     1      26.309 -20.302 -17.935  0.00  0.00    -0.227 OA
BRANCH  23  25
ATOM     25  O   UNL     1      25.628 -22.122 -16.154  0.00  0.00    -0.303 OA
ATOM     26  H   UNL     1      25.730 -21.571 -15.362  0.00  0.00    +0.222 HD
ENDBRANCH  23  25
BRANCH  23  27
ATOM     27  O   UNL     1      26.722 -22.872 -18.315  0.00  0.00    -0.303 OA
ATOM     28  H   UNL     1      27.192 -23.607 -17.891  0.00  0.00    +0.222 HD
ENDBRANCH  23  27
ENDBRANCH  22  23
ENDBRANCH  21  22
ENDBRANCH   5  21
TORSDOF 8
ENDMDL
MODEL 7
REMARK VINA RESULT:      -9.1      9.548     11.384
REMARK  Name = 444941
REMARK  8 active torsions:
REMARK  status: ('A' for Active; 'I' for Inactive)
REMARK    1  A    between atoms: C_2  and  N_6
REMARK    2  A    between atoms: C_3  and  O_17
REMARK    3  A    between atoms: C_4  and  O_19
REMARK    4  A    between atoms: C_5  and  C_21
REMARK    5  A    between atoms: C_21  and  O_22
REMARK    6  A    between atoms: O_22  and  P_23
REMARK    7  A    between atoms: P_23  and  O_25
REMARK    8  A    between atoms: P_23  and  O_27
REMARK                            x       y       z     vdW  Elec       q    Type
REMARK                         _______ _______ _______ _____ _____    ______ ____
ROOT
ATOM      1  O   UNL     1      33.811 -18.977 -22.116  0.00  0.00    -0.333 OA
ATOM      2  C   UNL     1      34.462 -17.696 -22.270  0.00  0.00    +0.224 C 
ATOM      3  C   UNL     1      35.892 -17.868 -21.764  0.00  0.00    +0.187 C 
ATOM      4  C   UNL     1      35.658 -18.861 -20.642  0.00  0.00    +0.171 C 
ATOM      5  C   UNL     1      34.638 -19.801 -21.272  0.00  0.00    +0.176 C 
ENDROOT
BRANCH   2   6
ATOM      6  N   UNL     1      34.330 -17.215 -23.640  0.00  0.00    -0.262 N 
ATOM      7  N   UNL     1      34.310 -17.266 -25.869  0.00  0.00    -0.251 NA
ATOM      8  C   UNL     1      34.026 -15.935 -24.042  0.00  0.00    +0.064 C 
ATOM      9  C   UNL     1      34.488 -17.970 -24.775  0.00  0.00    +0.221 C 
ATOM     10  C   UNL     1      34.020 -15.994 -25.433  0.00  0.00    +0.073 C 
ATOM     11  C   UNL     1      33.765 -14.768 -23.323  0.00  0.00    +0.011 C 
ATOM     12  C   UNL     1      33.487 -13.618 -24.069  0.00  0.00    -0.028 C 
ATOM     13  C   UNL     1      33.739 -14.829 -26.166  0.00  0.00    +0.068 C 
ATOM     14  C   UNL     1      33.474 -13.646 -25.466  0.00  0.00    -0.042 C 
ATOM     15  C   UNL     1      33.202 -12.349 -23.333  0.00  0.00    +0.030 C 
ATOM     16  C   UNL     1      33.174 -12.408 -26.249  0.00  0.00    +0.026 C 
ENDBRANCH   2   6
BRANCH   3  17
ATOM     17  O   UNL     1      36.715 -18.454 -22.768  0.00  0.00    -0.378 OA
ATOM     18  H   UNL     1      36.526 -19.403 -22.829  0.00  0.00    +0.211 HD
ENDBRANCH   3  17
BRANCH   4  19
ATOM     19  O   UNL     1      36.829 -19.542 -20.243  0.00  0.00    -0.379 OA
ATOM     20  H   UNL     1      37.022 -20.251 -20.877  0.00  0.00    +0.211 HD
ENDBRANCH   4  19
BRANCH   5  21
ATOM     21  C   UNL     1      33.771 -20.517 -20.251  0.00  0.00    +0.186 C 
BRANCH  21  22
ATOM     22  O   UNL     1      34.591 -21.379 -19.480  0.00  0.00    -0.271 OA
BRANCH  22  23
ATOM     23  P   UNL     1      33.889 -22.598 -18.679  0.00  0.00    +0.473 P 
ATOM     24  O   UNL     1      32.463 -22.355 -18.276  0.00  0.00    -0.227 OA
BRANCH  23  25
ATOM     25  O   UNL     1      34.911 -22.896 -17.462  0.00  0.00    -0.303 OA
ATOM     26  H   UNL     1      35.600 -23.509 -17.760  0.00  0.00    +0.222 HD
ENDBRANCH  23  25
BRANCH  23  27
ATOM     27  O   UNL     1      34.114 -23.856 -19.669  0.00  0.00    -0.303 OA
ATOM     28  H   UNL     1      33.256 -24.246 -19.897  0.00  0.00    +0.222 HD
ENDBRANCH  23  27
ENDBRANCH  22  23
ENDBRANCH  21  22
ENDBRANCH   5  21
TORSDOF 8
ENDMDL
MODEL 8
REMARK VINA RESULT:      -9.1      4.889      7.528
REMARK  Name = 444941
REMARK  8 active torsions:
REMARK  status: ('A' for Active; 'I' for Inactive)
REMARK    1  A    between atoms: C_2  and  N_6
REMARK    2  A    between atoms: C_3  and  O_17
REMARK    3  A    between atoms: C_4  and  O_19
REMARK    4  A    between atoms: C_5  and  C_21
REMARK    5  A    between atoms: C_21  and  O_22
REMARK    6  A    between atoms: O_22  and  P_23
REMARK    7  A    between atoms: P_23  and  O_25
REMARK    8  A    between atoms: P_23  and  O_27
REMARK                            x       y       z     vdW  Elec       q    Type
REMARK                         _______ _______ _______ _____ _____    ______ ____
ROOT
ATOM      1  O   UNL     1      31.400 -24.165 -15.962  0.00  0.00    -0.333 OA
ATOM      2  C   UNL     1      32.202 -23.223 -15.215  0.00  0.00    +0.224 C 
ATOM      3  C   UNL     1      32.108 -23.637 -13.748  0.00  0.00    +0.187 C 
ATOM      4  C   UNL     1      30.682 -24.150 -13.708  0.00  0.00    +0.171 C 
ATOM      5  C   UNL     1      30.591 -24.905 -15.029  0.00  0.00    +0.176 C 
ENDROOT
BRANCH   2   6
ATOM      6  N   UNL     1      33.550 -23.147 -15.765  0.00  0.00    -0.262 N 
ATOM      7  N   UNL     1      35.763 -23.388 -15.889  0.00  0.00    -0.251 NA
ATOM      8  C   UNL     1      33.917 -22.624 -16.983  0.00  0.00    +0.064 C 
ATOM      9  C   UNL     1      34.694 -23.591 -15.152  0.00  0.00    +0.221 C 
ATOM     10  C   UNL     1      35.299 -22.786 -17.035  0.00  0.00    +0.073 C 
ATOM     11  C   UNL     1      33.175 -22.039 -18.011  0.00  0.00    +0.011 C 
ATOM     12  C   UNL     1      33.887 -21.607 -19.134  0.00  0.00    -0.028 C 
ATOM     13  C   UNL     1      35.998 -22.345 -18.171  0.00  0.00    +0.068 C 
ATOM     14  C   UNL     1      35.274 -21.756 -19.215  0.00  0.00    -0.042 C 
ATOM     15  C   UNL     1      33.125 -20.977 -20.255  0.00  0.00    +0.030 C 
ATOM     16  C   UNL     1      36.020 -21.289 -20.423  0.00  0.00    +0.026 C 
ENDBRANCH   2   6
BRANCH   3  17
ATOM     17  O   UNL     1      33.015 -24.697 -13.464  0.00  0.00    -0.378 OA
ATOM     18  H   UNL     1      33.922 -24.354 -13.457  0.00  0.00    +0.211 HD
ENDBRANCH   3  17
BRANCH   4  19
ATOM     19  O   UNL     1      30.418 -24.986 -12.602  0.00  0.00    -0.379 OA
ATOM     20  H   UNL     1      31.220 -25.483 -12.374  0.00  0.00    +0.211 HD
ENDBRANCH   4  19
BRANCH   5  21
ATOM     21  C   UNL     1      29.172 -25.017 -15.559  0.00  0.00    +0.186 C 
BRANCH  21  22
ATOM     22  O   UNL     1      28.493 -23.798 -15.306  0.00  0.00    -0.271 OA
BRANCH  22  23
ATOM     23  P   UNL     1      28.038 -22.893 -16.569  0.00  0.00    +0.473 P 
ATOM     24  O   UNL     1      27.006 -21.847 -16.261  0.00  0.00    -0.227 OA
BRANCH  23  25
ATOM     25  O   UNL     1      27.609 -23.980 -17.686  0.00  0.00    -0.303 OA
ATOM     26  H   UNL     1      26.643 -24.060 -17.706  0.00  0.00    +0.222 HD
ENDBRANCH  23  25
BRANCH  23  27
ATOM     27  O   UNL     1      29.444 -22.321 -17.127  0.00  0.00    -0.303 OA
ATOM     28  H   UNL     1      30.170 -22.656 -16.578  0.00  0.00    +0.222 HD
ENDBRANCH  23  27
ENDBRANCH  22  23
ENDBRANCH  21  22
ENDBRANCH   5  21
TORSDOF 8
ENDMDL
MODEL 9
REMARK VINA RESULT:      -9.1      2.825      4.914
REMARK  Name = 444941
REMARK  8 active torsions:
REMARK  status: ('A' for Active; 'I' for Inactive)
REMARK    1  A    between atoms: C_2  and  N_6
REMARK    2  A    between atoms: C_3  and  O_17
REMARK    3  A    between atoms: C_4  and  O_19
REMARK    4  A    between atoms: C_5  and  C_21
REMARK    5  A    between atoms: C_21  and  O_22
REMARK    6  A    between atoms: O_22  and  P_23
REMARK    7  A    between atoms: P_23  and  O_25
REMARK    8  A    between atoms: P_23  and  O_27
REMARK                            x       y       z     vdW  Elec       q    Type
REMARK                         _______ _______ _______ _____ _____    ______ ____
ROOT
ATOM      1  O   UNL     1      36.537 -22.809 -14.075  0.00  0.00    -0.333 OA
ATOM      2  C   UNL     1      36.888 -23.074 -15.451  0.00  0.00    +0.224 C 
ATOM      3  C   UNL     1      37.595 -24.427 -15.470  0.00  0.00    +0.187 C 
ATOM      4  C   UNL     1      38.316 -24.368 -14.138  0.00  0.00    +0.171 C 
ATOM      5  C   UNL     1      37.255 -23.740 -13.242  0.00  0.00    +0.176 C 
ENDROOT
BRANCH   2   6
ATOM      6  N   UNL     1      35.715 -22.961 -16.310  0.00  0.00    -0.262 N 
ATOM      7  N   UNL     1      33.625 -23.263 -17.026  0.00  0.00    -0.251 NA
ATOM      8  C   UNL     1      35.620 -22.265 -17.493  0.00  0.00    +0.064 C 
ATOM      9  C   UNL     1      34.492 -23.538 -16.078  0.00  0.00    +0.221 C 
ATOM     10  C   UNL     1      34.309 -22.470 -17.918  0.00  0.00    +0.073 C 
ATOM     11  C   UNL     1      36.544 -21.499 -18.202  0.00  0.00    +0.011 C 
ATOM     12  C   UNL     1      36.100 -20.922 -19.396  0.00  0.00    -0.028 C 
ATOM     13  C   UNL     1      33.880 -21.883 -19.119  0.00  0.00    +0.068 C 
ATOM     14  C   UNL     1      34.791 -21.109 -19.848  0.00  0.00    -0.042 C 
ATOM     15  C   UNL     1      37.063 -20.093 -20.183  0.00  0.00    +0.030 C 
ATOM     16  C   UNL     1      34.331 -20.484 -21.127  0.00  0.00    +0.026 C 
ENDBRANCH   2   6
BRANCH   3  17
ATOM     17  O   UNL     1      36.647 -25.491 -15.463  0.00  0.00    -0.378 OA
ATOM     18  H   UNL     1      35.750 -25.126 -15.411  0.00  0.00    +0.211 HD
ENDBRANCH   3  17
BRANCH   4  19
ATOM     19  O   UNL     1      38.725 -25.633 -13.665  0.00  0.00    -0.379 OA
ATOM     20  H   UNL     1      38.581 -25.682 -12.707  0.00  0.00    +0.211 HD
ENDBRANCH   4  19
BRANCH   5  21
ATOM     21  C   UNL     1      37.837 -23.010 -12.044  0.00  0.00    +0.186 C 
BRANCH  21  22
ATOM     22  O   UNL     1      37.015 -23.256 -10.916  0.00  0.00    -0.271 OA
BRANCH  22  23
ATOM     23  P   UNL     1      35.879 -24.404 -11.025  0.00  0.00    +0.473 P 
ATOM     24  O   UNL     1      36.350 -25.710 -11.597  0.00  0.00    -0.227 OA
BRANCH  23  25
ATOM     25  O   UNL     1      34.682 -23.684 -11.840  0.00  0.00    -0.303 OA
ATOM     26  H   UNL     1      34.968 -22.800 -12.120  0.00  0.00    +0.222 HD
ENDBRANCH  23  25
BRANCH  23  27
ATOM     27  O   UNL     1      35.304 -24.487  -9.516  0.00  0.00    -0.303 OA
ATOM     28  H   UNL     1      34.549 -23.886  -9.425  0.00  0.00    +0.222 HD
ENDBRANCH  23  27
ENDBRANCH  22  23
ENDBRANCH  21  22
ENDBRANCH   5  21
TORSDOF 8
ENDMDL
