MODEL 1
REMARK VINA RESULT:     -11.1      0.000      0.000
REMARK  Name = 46207733
REMARK  4 active torsions:
REMARK  status: ('A' for Active; 'I' for Inactive)
REMARK    1  A    between atoms: N_2  and  C_16
REMARK    2  A    between atoms: C_10  and  C_24
REMARK    3  A    between atoms: C_17  and  O_22
REMARK    4  A    between atoms: C_24  and  C_26
REMARK                            x       y       z     vdW  Elec       q    Type
REMARK                         _______ _______ _______ _____ _____    ______ ____
ROOT
ATOM      1  O   UNL     1      34.735 -14.194 -20.794  0.00  0.00    -0.274 OA
ATOM      2  N   UNL     1      33.606 -13.774 -22.787  0.00  0.00    -0.257 N 
ATOM      3  N   UNL     1      33.431 -15.453 -24.455  0.00  0.00    -0.252 NA
ATOM      4  C   UNL     1      34.339 -14.561 -21.896  0.00  0.00    +0.236 C 
ATOM      5  C   UNL     1      33.197 -14.264 -24.010  0.00  0.00    +0.222 C 
ATOM      6  C   UNL     1      34.628 -15.935 -22.372  0.00  0.00    +0.138 C 
ATOM      7  C   UNL     1      34.165 -16.336 -23.636  0.00  0.00    +0.068 C 
ATOM      8  C   UNL     1      34.441 -17.651 -24.094  0.00  0.00    +0.014 C 
ATOM      9  C   UNL     1      35.354 -16.809 -21.563  0.00  0.00    -0.015 C 
ATOM     10  C   UNL     1      35.627 -18.098 -22.010  0.00  0.00    -0.021 C 
ATOM     11  C   UNL     1      35.180 -18.533 -23.266  0.00  0.00    -0.003 C 
ATOM     12  C   UNL     1      34.011 -18.130 -25.352  0.00  0.00    +0.001 C 
ATOM     13  C   UNL     1      35.461 -19.838 -23.707  0.00  0.00    -0.000 C 
ATOM     14  C   UNL     1      34.299 -19.429 -25.774  0.00  0.00    +0.000 C 
ATOM     15  C   UNL     1      35.024 -20.282 -24.952  0.00  0.00    -0.000 C 
ENDROOT
BRANCH   2  16
ATOM     16  C   UNL     1      33.271 -12.417 -22.420  0.00  0.00    +0.104 C 
ATOM     17  C   UNL     1      31.902 -12.367 -21.729  0.00  0.00    +0.129 C 
ATOM     18  C   UNL     1      33.312 -11.514 -23.656  0.00  0.00    +0.022 C 
ATOM     19  C   UNL     1      31.469 -10.930 -21.432  0.00  0.00    +0.031 C 
ATOM     20  C   UNL     1      32.884 -10.085 -23.335  0.00  0.00    +0.002 C 
ATOM     21  C   UNL     1      31.509 -10.052 -22.675  0.00  0.00    +0.003 C 
BRANCH  17  22
ATOM     22  O   UNL     1      31.980 -13.083 -20.497  0.00  0.00    -0.383 OA
ATOM     23  H   UNL     1      32.421 -13.934 -20.645  0.00  0.00    +0.210 HD
ENDBRANCH  17  22
ENDBRANCH   2  16
BRANCH  10  24
ATOM     24  C   UNL     1      36.411 -18.985 -21.092  0.00  0.00    +0.054 C 
BRANCH  24  26
ATOM     25  N   UNL     1      35.465 -21.981 -18.968  0.00  0.00    -0.248 NA
ATOM     26  C   UNL     1      35.570 -20.028 -20.389  0.00  0.00    +0.001 C 
ATOM     27  C   UNL     1      34.184 -20.022 -20.497  0.00  0.00    -0.001 C 
ATOM     28  C   UNL     1      36.157 -21.019 -19.620  0.00  0.00    +0.094 C 
ATOM     29  C   UNL     1      33.437 -20.994 -19.840  0.00  0.00    +0.014 C 
ATOM     30  C   UNL     1      34.119 -21.943 -19.094  0.00  0.00    +0.059 C 
ATOM     31  C   UNL     1      33.350 -23.002 -18.377  0.00  0.00    +0.052 C 
ENDBRANCH  24  26
ENDBRANCH  10  24
TORSDOF 4
ENDMDL
MODEL 2
REMARK VINA RESULT:     -10.7      5.276      9.714
REMARK  Name = 46207733
REMARK  4 active torsions:
REMARK  status: ('A' for Active; 'I' for Inactive)
REMARK    1  A    between atoms: N_2  and  C_16
REMARK    2  A    between atoms: C_10  and  C_24
REMARK    3  A    between atoms: C_17  and  O_22
REMARK    4  A    between atoms: C_24  and  C_26
REMARK                            x       y       z     vdW  Elec       q    Type
REMARK                         _______ _______ _______ _____ _____    ______ ____
ROOT
ATOM      1  O   UNL     1      32.882 -22.399 -18.751  0.00  0.00    -0.274 OA
ATOM      2  N   UNL     1      35.122 -21.765 -18.715  0.00  0.00    -0.257 N 
ATOM      3  N   UNL     1      36.483 -22.238 -16.829  0.00  0.00    -0.252 NA
ATOM      4  C   UNL     1      33.969 -22.344 -18.183  0.00  0.00    +0.236 C 
ATOM      5  C   UNL     1      36.307 -21.745 -18.009  0.00  0.00    +0.222 C 
ATOM      6  C   UNL     1      34.130 -22.921 -16.827  0.00  0.00    +0.138 C 
ATOM      7  C   UNL     1      35.382 -22.849 -16.195  0.00  0.00    +0.068 C 
ATOM      8  C   UNL     1      35.539 -23.401 -14.896  0.00  0.00    +0.014 C 
ATOM      9  C   UNL     1      33.042 -23.526 -16.198  0.00  0.00    -0.015 C 
ATOM     10  C   UNL     1      33.193 -24.067 -14.925  0.00  0.00    -0.021 C 
ATOM     11  C   UNL     1      34.428 -24.013 -14.263  0.00  0.00    -0.003 C 
ATOM     12  C   UNL     1      36.764 -23.368 -14.193  0.00  0.00    +0.001 C 
ATOM     13  C   UNL     1      34.569 -24.563 -12.978  0.00  0.00    -0.000 C 
ATOM     14  C   UNL     1      36.887 -23.919 -12.917  0.00  0.00    +0.000 C 
ATOM     15  C   UNL     1      35.790 -24.516 -12.309  0.00  0.00    -0.000 C 
ENDROOT
BRANCH   2  16
ATOM     16  C   UNL     1      35.072 -21.172 -20.033  0.00  0.00    +0.104 C 
ATOM     17  C   UNL     1      36.305 -20.291 -20.275  0.00  0.00    +0.129 C 
ATOM     18  C   UNL     1      33.771 -20.381 -20.204  0.00  0.00    +0.022 C 
ATOM     19  C   UNL     1      36.224 -19.560 -21.616  0.00  0.00    +0.031 C 
ATOM     20  C   UNL     1      33.710 -19.667 -21.550  0.00  0.00    +0.002 C 
ATOM     21  C   UNL     1      34.928 -18.774 -21.762  0.00  0.00    +0.003 C 
BRANCH  17  22
ATOM     22  O   UNL     1      37.469 -21.116 -20.275  0.00  0.00    -0.383 OA
ATOM     23  H   UNL     1      37.945 -21.004 -21.113  0.00  0.00    +0.210 HD
ENDBRANCH  17  22
ENDBRANCH   2  16
BRANCH  10  24
ATOM     24  C   UNL     1      31.984 -24.701 -14.308  0.00  0.00    +0.054 C 
BRANCH  24  26
ATOM     25  N   UNL     1      29.168 -22.242 -14.946  0.00  0.00    -0.248 NA
ATOM     26  C   UNL     1      30.675 -24.127 -14.805  0.00  0.00    +0.001 C 
ATOM     27  C   UNL     1      29.790 -24.901 -15.547  0.00  0.00    -0.001 C 
ATOM     28  C   UNL     1      30.321 -22.815 -14.534  0.00  0.00    +0.094 C 
ATOM     29  C   UNL     1      28.594 -24.347 -15.989  0.00  0.00    +0.014 C 
ATOM     30  C   UNL     1      28.332 -23.025 -15.666  0.00  0.00    +0.059 C 
ATOM     31  C   UNL     1      27.058 -22.397 -16.124  0.00  0.00    +0.052 C 
ENDBRANCH  24  26
ENDBRANCH  10  24
TORSDOF 4
ENDMDL
MODEL 3
REMARK VINA RESULT:     -10.3      5.947     11.108
REMARK  Name = 46207733
REMARK  4 active torsions:
REMARK  status: ('A' for Active; 'I' for Inactive)
REMARK    1  A    between atoms: N_2  and  C_16
REMARK    2  A    between atoms: C_10  and  C_24
REMARK    3  A    between atoms: C_17  and  O_22
REMARK    4  A    between atoms: C_24  and  C_26
REMARK                            x       y       z     vdW  Elec       q    Type
REMARK                         _______ _______ _______ _____ _____    ______ ____
ROOT
ATOM      1  O   UNL     1      31.845 -22.815 -16.758  0.00  0.00    -0.274 OA
ATOM      2  N   UNL     1      31.183 -23.775 -14.743  0.00  0.00    -0.257 N 
ATOM      3  N   UNL     1      32.792 -24.399 -13.113  0.00  0.00    -0.252 NA
ATOM      4  C   UNL     1      32.118 -23.294 -15.661  0.00  0.00    +0.236 C 
ATOM      5  C   UNL     1      31.573 -24.298 -13.527  0.00  0.00    +0.222 C 
ATOM      6  C   UNL     1      33.530 -23.392 -15.222  0.00  0.00    +0.138 C 
ATOM      7  C   UNL     1      33.821 -23.942 -13.962  0.00  0.00    +0.068 C 
ATOM      8  C   UNL     1      35.173 -24.038 -13.539  0.00  0.00    +0.014 C 
ATOM      9  C   UNL     1      34.549 -22.941 -16.061  0.00  0.00    -0.015 C 
ATOM     10  C   UNL     1      35.874 -23.035 -15.649  0.00  0.00    -0.021 C 
ATOM     11  C   UNL     1      36.203 -23.577 -14.398  0.00  0.00    -0.003 C 
ATOM     12  C   UNL     1      35.547 -24.578 -12.289  0.00  0.00    +0.001 C 
ATOM     13  C   UNL     1      37.545 -23.666 -13.993  0.00  0.00    -0.000 C 
ATOM     14  C   UNL     1      36.886 -24.659 -11.902  0.00  0.00    +0.000 C 
ATOM     15  C   UNL     1      37.884 -24.204 -12.753  0.00  0.00    -0.000 C 
ENDROOT
BRANCH   2  16
ATOM     16  C   UNL     1      29.776 -23.726 -15.074  0.00  0.00    +0.104 C 
ATOM     17  C   UNL     1      29.501 -24.492 -16.375  0.00  0.00    +0.129 C 
ATOM     18  C   UNL     1      29.309 -22.271 -15.166  0.00  0.00    +0.022 C 
ATOM     19  C   UNL     1      28.041 -24.361 -16.812  0.00  0.00    +0.031 C 
ATOM     20  C   UNL     1      27.850 -22.165 -15.595  0.00  0.00    +0.002 C 
ATOM     21  C   UNL     1      27.600 -22.907 -16.905  0.00  0.00    +0.003 C 
BRANCH  17  22
ATOM     22  O   UNL     1      29.793 -25.873 -16.169  0.00  0.00    -0.383 OA
ATOM     23  H   UNL     1      30.635 -25.959 -15.694  0.00  0.00    +0.210 HD
ENDBRANCH  17  22
ENDBRANCH   2  16
BRANCH  10  24
ATOM     24  C   UNL     1      36.918 -22.532 -16.598  0.00  0.00    +0.054 C 
BRANCH  24  26
ATOM     25  N   UNL     1      36.554 -20.199 -19.566  0.00  0.00    -0.248 NA
ATOM     26  C   UNL     1      36.349 -21.876 -17.837  0.00  0.00    +0.001 C 
ATOM     27  C   UNL     1      35.146 -22.307 -18.386  0.00  0.00    -0.001 C 
ATOM     28  C   UNL     1      37.009 -20.829 -18.459  0.00  0.00    +0.094 C 
ATOM     29  C   UNL     1      34.647 -21.685 -19.525  0.00  0.00    +0.014 C 
ATOM     30  C   UNL     1      35.382 -20.645 -20.073  0.00  0.00    +0.059 C 
ATOM     31  C   UNL     1      34.877 -19.954 -21.295  0.00  0.00    +0.052 C 
ENDBRANCH  24  26
ENDBRANCH  10  24
TORSDOF 4
ENDMDL
MODEL 4
REMARK VINA RESULT:     -10.2      6.349     11.704
REMARK  Name = 46207733
REMARK  4 active torsions:
REMARK  status: ('A' for Active; 'I' for Inactive)
REMARK    1  A    between atoms: N_2  and  C_16
REMARK    2  A    between atoms: C_10  and  C_24
REMARK    3  A    between atoms: C_17  and  O_22
REMARK    4  A    between atoms: C_24  and  C_26
REMARK                            x       y       z     vdW  Elec       q    Type
REMARK                         _______ _______ _______ _____ _____    ______ ____
ROOT
ATOM      1  O   UNL     1      36.349 -23.959 -15.789  0.00  0.00    -0.274 OA
ATOM      2  N   UNL     1      35.384 -24.359 -13.709  0.00  0.00    -0.257 N 
ATOM      3  N   UNL     1      33.058 -24.030 -13.370  0.00  0.00    -0.252 NA
ATOM      4  C   UNL     1      35.367 -23.983 -15.053  0.00  0.00    +0.236 C 
ATOM      5  C   UNL     1      34.233 -24.360 -12.948  0.00  0.00    +0.222 C 
ATOM      6  C   UNL     1      34.035 -23.596 -15.575  0.00  0.00    +0.138 C 
ATOM      7  C   UNL     1      32.924 -23.632 -14.716  0.00  0.00    +0.068 C 
ATOM      8  C   UNL     1      31.647 -23.261 -15.214  0.00  0.00    +0.014 C 
ATOM      9  C   UNL     1      33.901 -23.202 -16.906  0.00  0.00    -0.015 C 
ATOM     10  C   UNL     1      32.651 -22.838 -17.396  0.00  0.00    -0.021 C 
ATOM     11  C   UNL     1      31.519 -22.862 -16.568  0.00  0.00    -0.003 C 
ATOM     12  C   UNL     1      30.482 -23.270 -14.415  0.00  0.00    +0.001 C 
ATOM     13  C   UNL     1      30.262 -22.492 -17.074  0.00  0.00    -0.000 C 
ATOM     14  C   UNL     1      29.240 -22.900 -14.933  0.00  0.00    +0.000 C 
ATOM     15  C   UNL     1      29.130 -22.511 -16.262  0.00  0.00    -0.000 C 
ENDROOT
BRANCH   2  16
ATOM     16  C   UNL     1      36.635 -24.754 -13.100  0.00  0.00    +0.104 C 
ATOM     17  C   UNL     1      37.499 -23.523 -12.795  0.00  0.00    +0.129 C 
ATOM     18  C   UNL     1      37.369 -25.747 -14.006  0.00  0.00    +0.022 C 
ATOM     19  C   UNL     1      38.875 -23.917 -12.256  0.00  0.00    +0.031 C 
ATOM     20  C   UNL     1      38.734 -26.131 -13.446  0.00  0.00    +0.002 C 
ATOM     21  C   UNL     1      39.590 -24.898 -13.175  0.00  0.00    +0.003 C 
BRANCH  17  22
ATOM     22  O   UNL     1      36.836 -22.726 -11.814  0.00  0.00    -0.383 OA
ATOM     23  H   UNL     1      37.095 -23.023 -10.927  0.00  0.00    +0.210 HD
ENDBRANCH  17  22
ENDBRANCH   2  16
BRANCH  10  24
ATOM     24  C   UNL     1      32.578 -22.426 -18.834  0.00  0.00    +0.054 C 
BRANCH  24  26
ATOM     25  N   UNL     1      34.699 -19.764 -20.507  0.00  0.00    -0.248 NA
ATOM     26  C   UNL     1      33.791 -21.658 -19.309  0.00  0.00    +0.001 C 
ATOM     27  C   UNL     1      35.077 -22.098 -19.015  0.00  0.00    -0.001 C 
ATOM     28  C   UNL     1      33.657 -20.496 -20.051  0.00  0.00    +0.094 C 
ATOM     29  C   UNL     1      36.174 -21.372 -19.466  0.00  0.00    +0.014 C 
ATOM     30  C   UNL     1      35.934 -20.222 -20.201  0.00  0.00    +0.059 C 
ATOM     31  C   UNL     1      37.087 -19.418 -20.701  0.00  0.00    +0.052 C 
ENDBRANCH  24  26
ENDBRANCH  10  24
TORSDOF 4
ENDMDL
MODEL 5
REMARK VINA RESULT:     -10.1      5.001      8.905
REMARK  Name = 46207733
REMARK  4 active torsions:
REMARK  status: ('A' for Active; 'I' for Inactive)
REMARK    1  A    between atoms: N_2  and  C_16
REMARK    2  A    between atoms: C_10  and  C_24
REMARK    3  A    between atoms: C_17  and  O_22
REMARK    4  A    between atoms: C_24  and  C_26
REMARK                            x       y       z     vdW  Elec       q    Type
REMARK                         _______ _______ _______ _____ _____    ______ ____
ROOT
ATOM      1  O   UNL     1      36.320 -22.192 -18.434  0.00  0.00    -0.274 OA
ATOM      2  N   UNL     1      34.462 -21.334 -19.544  0.00  0.00    -0.257 N 
ATOM      3  N   UNL     1      32.275 -21.685 -18.692  0.00  0.00    -0.252 NA
ATOM      4  C   UNL     1      35.106 -22.034 -18.522  0.00  0.00    +0.236 C 
ATOM      5  C   UNL     1      33.089 -21.202 -19.569  0.00  0.00    +0.222 C 
ATOM      6  C   UNL     1      34.204 -22.606 -17.495  0.00  0.00    +0.138 C 
ATOM      7  C   UNL     1      32.818 -22.414 -17.613  0.00  0.00    +0.068 C 
ATOM      8  C   UNL     1      31.952 -22.961 -16.630  0.00  0.00    +0.014 C 
ATOM      9  C   UNL     1      34.740 -23.327 -16.427  0.00  0.00    -0.015 C 
ATOM     10  C   UNL     1      33.894 -23.865 -15.463  0.00  0.00    -0.021 C 
ATOM     11  C   UNL     1      32.505 -23.692 -15.548  0.00  0.00    -0.003 C 
ATOM     12  C   UNL     1      30.548 -22.812 -16.678  0.00  0.00    +0.001 C 
ATOM     13  C   UNL     1      31.660 -24.240 -14.568  0.00  0.00    -0.000 C 
ATOM     14  C   UNL     1      29.723 -23.362 -15.696  0.00  0.00    +0.000 C 
ATOM     15  C   UNL     1      30.278 -24.076 -14.642  0.00  0.00    -0.000 C 
ENDROOT
BRANCH   2  16
ATOM     16  C   UNL     1      35.251 -20.737 -20.598  0.00  0.00    +0.104 C 
ATOM     17  C   UNL     1      36.086 -19.571 -20.053  0.00  0.00    +0.129 C 
ATOM     18  C   UNL     1      34.339 -20.290 -21.746  0.00  0.00    +0.022 C 
ATOM     19  C   UNL     1      36.843 -18.846 -21.167  0.00  0.00    +0.031 C 
ATOM     20  C   UNL     1      35.117 -19.577 -22.847  0.00  0.00    +0.002 C 
ATOM     21  C   UNL     1      35.918 -18.404 -22.293  0.00  0.00    +0.003 C 
BRANCH  17  22
ATOM     22  O   UNL     1      37.033 -20.080 -19.115  0.00  0.00    -0.383 OA
ATOM     23  H   UNL     1      36.588 -20.261 -18.272  0.00  0.00    +0.210 HD
ENDBRANCH  17  22
ENDBRANCH   2  16
BRANCH  10  24
ATOM     24  C   UNL     1      34.535 -24.627 -14.344  0.00  0.00    +0.054 C 
BRANCH  24  26
ATOM     25  N   UNL     1      38.259 -23.912 -14.416  0.00  0.00    -0.248 NA
ATOM     26  C   UNL     1      36.024 -24.828 -14.520  0.00  0.00    +0.001 C 
ATOM     27  C   UNL     1      36.537 -26.054 -14.931  0.00  0.00    -0.001 C 
ATOM     28  C   UNL     1      36.918 -23.798 -14.277  0.00  0.00    +0.094 C 
ATOM     29  C   UNL     1      37.911 -26.209 -15.085  0.00  0.00    +0.014 C 
ATOM     30  C   UNL     1      38.721 -25.118 -14.817  0.00  0.00    +0.059 C 
ATOM     31  C   UNL     1      40.200 -25.248 -14.972  0.00  0.00    +0.052 C 
ENDBRANCH  24  26
ENDBRANCH  10  24
TORSDOF 4
ENDMDL
MODEL 6
REMARK VINA RESULT:     -10.0      3.596      7.310
REMARK  Name = 46207733
REMARK  4 active torsions:
REMARK  status: ('A' for Active; 'I' for Inactive)
REMARK    1  A    between atoms: N_2  and  C_16
REMARK    2  A    between atoms: C_10  and  C_24
REMARK    3  A    between atoms: C_17  and  O_22
REMARK    4  A    between atoms: C_24  and  C_26
REMARK                            x       y       z     vdW  Elec       q    Type
REMARK                         _______ _______ _______ _____ _____    ______ ____
ROOT
ATOM      1  O   UNL     1      32.610 -20.619 -20.837  0.00  0.00    -0.274 OA
ATOM      2  N   UNL     1      34.674 -19.545 -20.903  0.00  0.00    -0.257 N 
ATOM      3  N   UNL     1      36.404 -20.154 -19.397  0.00  0.00    -0.252 NA
ATOM      4  C   UNL     1      33.752 -20.470 -20.411  0.00  0.00    +0.236 C 
ATOM      5  C   UNL     1      35.942 -19.441 -20.368  0.00  0.00    +0.222 C 
ATOM      6  C   UNL     1      34.245 -21.308 -19.293  0.00  0.00    +0.138 C 
ATOM      7  C   UNL     1      35.555 -21.122 -18.822  0.00  0.00    +0.068 C 
ATOM      8  C   UNL     1      36.030 -21.924 -17.751  0.00  0.00    +0.014 C 
ATOM      9  C   UNL     1      33.407 -22.266 -18.724  0.00  0.00    -0.015 C 
ATOM     10  C   UNL     1      33.870 -23.052 -17.674  0.00  0.00    -0.021 C 
ATOM     11  C   UNL     1      35.172 -22.895 -17.177  0.00  0.00    -0.003 C 
ATOM     12  C   UNL     1      37.334 -21.798 -17.220  0.00  0.00    +0.001 C 
ATOM     13  C   UNL     1      35.628 -23.695 -16.116  0.00  0.00    -0.000 C 
ATOM     14  C   UNL     1      37.771 -22.601 -16.166  0.00  0.00    +0.000 C 
ATOM     15  C   UNL     1      36.919 -23.548 -15.614  0.00  0.00    -0.000 C 
ENDROOT
BRANCH   2  16
ATOM     16  C   UNL     1      34.293 -18.676 -21.994  0.00  0.00    +0.104 C 
ATOM     17  C   UNL     1      35.223 -18.880 -23.197  0.00  0.00    +0.129 C 
ATOM     18  C   UNL     1      34.286 -17.218 -21.527  0.00  0.00    +0.022 C 
ATOM     19  C   UNL     1      34.916 -17.894 -24.325  0.00  0.00    +0.031 C 
ATOM     20  C   UNL     1      33.970 -16.254 -22.666  0.00  0.00    +0.002 C 
ATOM     21  C   UNL     1      34.922 -16.450 -23.841  0.00  0.00    +0.003 C 
BRANCH  17  22
ATOM     22  O   UNL     1      35.054 -20.207 -23.693  0.00  0.00    -0.383 OA
ATOM     23  H   UNL     1      35.507 -20.294 -24.546  0.00  0.00    +0.210 HD
ENDBRANCH  17  22
ENDBRANCH   2  16
BRANCH  10  24
ATOM     24  C   UNL     1      32.918 -24.061 -17.109  0.00  0.00    +0.054 C 
BRANCH  24  26
ATOM     25  N   UNL     1      29.477 -22.509 -16.745  0.00  0.00    -0.248 NA
ATOM     26  C   UNL     1      31.687 -23.450 -16.476  0.00  0.00    +0.001 C 
ATOM     27  C   UNL     1      31.610 -23.259 -15.100  0.00  0.00    -0.001 C 
ATOM     28  C   UNL     1      30.604 -23.062 -17.247  0.00  0.00    +0.094 C 
ATOM     29  C   UNL     1      30.466 -22.694 -14.546  0.00  0.00    +0.014 C 
ATOM     30  C   UNL     1      29.437 -22.340 -15.404  0.00  0.00    +0.059 C 
ATOM     31  C   UNL     1      28.194 -21.729 -14.844  0.00  0.00    +0.052 C 
ENDBRANCH  24  26
ENDBRANCH  10  24
TORSDOF 4
ENDMDL
MODEL 7
REMARK VINA RESULT:      -9.8      4.170     11.095
REMARK  Name = 46207733
REMARK  4 active torsions:
REMARK  status: ('A' for Active; 'I' for Inactive)
REMARK    1  A    between atoms: N_2  and  C_16
REMARK    2  A    between atoms: C_10  and  C_24
REMARK    3  A    between atoms: C_17  and  O_22
REMARK    4  A    between atoms: C_24  and  C_26
REMARK                            x       y       z     vdW  Elec       q    Type
REMARK                         _______ _______ _______ _____ _____    ______ ____
ROOT
ATOM      1  O   UNL     1      34.377 -12.045 -25.082  0.00  0.00    -0.274 OA
ATOM      2  N   UNL     1      32.848 -12.880 -23.537  0.00  0.00    -0.257 N 
ATOM      3  N   UNL     1      31.893 -11.461 -21.891  0.00  0.00    -0.252 NA
ATOM      4  C   UNL     1      33.628 -11.881 -24.123  0.00  0.00    +0.236 C 
ATOM      5  C   UNL     1      32.030 -12.613 -22.459  0.00  0.00    +0.222 C 
ATOM      6  C   UNL     1      33.498 -10.543 -23.499  0.00  0.00    +0.138 C 
ATOM      7  C   UNL     1      32.636 -10.377 -22.403  0.00  0.00    +0.068 C 
ATOM      8  C   UNL     1      32.510  -9.096 -21.803  0.00  0.00    +0.014 C 
ATOM      9  C   UNL     1      34.233  -9.470 -24.003  0.00  0.00    -0.015 C 
ATOM     10  C   UNL     1      34.112  -8.215 -23.417  0.00  0.00    -0.021 C 
ATOM     11  C   UNL     1      33.260  -8.011 -22.322  0.00  0.00    -0.003 C 
ATOM     12  C   UNL     1      31.664  -8.847 -20.699  0.00  0.00    +0.001 C 
ATOM     13  C   UNL     1      33.146  -6.738 -21.738  0.00  0.00    -0.000 C 
ATOM     14  C   UNL     1      31.563  -7.577 -20.131  0.00  0.00    +0.000 C 
ATOM     15  C   UNL     1      32.304  -6.523 -20.650  0.00  0.00    -0.000 C 
ENDROOT
BRANCH   2  16
ATOM     16  C   UNL     1      32.901 -14.223 -24.069  0.00  0.00    +0.104 C 
ATOM     17  C   UNL     1      34.154 -14.953 -23.568  0.00  0.00    +0.129 C 
ATOM     18  C   UNL     1      32.846 -14.183 -25.600  0.00  0.00    +0.022 C 
ATOM     19  C   UNL     1      34.297 -16.336 -24.206  0.00  0.00    +0.031 C 
ATOM     20  C   UNL     1      32.983 -15.573 -26.213  0.00  0.00    +0.002 C 
ATOM     21  C   UNL     1      34.247 -16.273 -25.727  0.00  0.00    +0.003 C 
BRANCH  17  22
ATOM     22  O   UNL     1      34.062 -15.111 -22.153  0.00  0.00    -0.383 OA
ATOM     23  H   UNL     1      34.554 -14.399 -21.715  0.00  0.00    +0.210 HD
ENDBRANCH  17  22
ENDBRANCH   2  16
BRANCH  10  24
ATOM     24  C   UNL     1      34.928  -7.107 -24.008  0.00  0.00    +0.054 C 
BRANCH  24  26
ATOM     25  N   UNL     1      34.146  -5.014 -27.073  0.00  0.00    -0.248 NA
ATOM     26  C   UNL     1      34.167  -6.249 -24.995  0.00  0.00    +0.001 C 
ATOM     27  C   UNL     1      32.839  -5.903 -24.767  0.00  0.00    -0.001 C 
ATOM     28  C   UNL     1      34.769  -5.784 -26.152  0.00  0.00    +0.094 C 
ATOM     29  C   UNL     1      32.164  -5.113 -25.691  0.00  0.00    +0.014 C 
ATOM     30  C   UNL     1      32.856  -4.699 -26.818  0.00  0.00    +0.059 C 
ATOM     31  C   UNL     1      32.163  -3.849 -27.832  0.00  0.00    +0.052 C 
ENDBRANCH  24  26
ENDBRANCH  10  24
TORSDOF 4
ENDMDL
MODEL 8
REMARK VINA RESULT:      -9.3      2.208      8.511
REMARK  Name = 46207733
REMARK  4 active torsions:
REMARK  status: ('A' for Active; 'I' for Inactive)
REMARK    1  A    between atoms: N_2  and  C_16
REMARK    2  A    between atoms: C_10  and  C_24
REMARK    3  A    between atoms: C_17  and  O_22
REMARK    4  A    between atoms: C_24  and  C_26
REMARK                            x       y       z     vdW  Elec       q    Type
REMARK                         _______ _______ _______ _____ _____    ______ ____
ROOT
ATOM      1  O   UNL     1      33.548 -16.290 -20.295  0.00  0.00    -0.274 OA
ATOM      2  N   UNL     1      34.430 -17.724 -21.903  0.00  0.00    -0.257 N 
ATOM      3  N   UNL     1      34.446 -17.108 -24.195  0.00  0.00    -0.252 NA
ATOM      4  C   UNL     1      33.821 -16.547 -21.464  0.00  0.00    +0.236 C 
ATOM      5  C   UNL     1      34.705 -17.935 -23.239  0.00  0.00    +0.222 C 
ATOM      6  C   UNL     1      33.507 -15.571 -22.534  0.00  0.00    +0.138 C 
ATOM      7  C   UNL     1      33.829 -15.884 -23.865  0.00  0.00    +0.068 C 
ATOM      8  C   UNL     1      33.529 -14.951 -24.892  0.00  0.00    +0.014 C 
ATOM      9  C   UNL     1      32.897 -14.360 -22.209  0.00  0.00    -0.015 C 
ATOM     10  C   UNL     1      32.601 -13.444 -23.214  0.00  0.00    -0.021 C 
ATOM     11  C   UNL     1      32.909 -13.722 -24.553  0.00  0.00    -0.003 C 
ATOM     12  C   UNL     1      33.821 -15.190 -26.253  0.00  0.00    +0.001 C 
ATOM     13  C   UNL     1      32.605 -12.789 -25.559  0.00  0.00    -0.000 C 
ATOM     14  C   UNL     1      33.513 -14.253 -27.240  0.00  0.00    +0.000 C 
ATOM     15  C   UNL     1      32.905 -13.053 -26.894  0.00  0.00    -0.000 C 
ENDROOT
BRANCH   2  16
ATOM     16  C   UNL     1      34.777 -18.743 -20.938  0.00  0.00    +0.104 C 
ATOM     17  C   UNL     1      36.052 -19.481 -21.368  0.00  0.00    +0.129 C 
ATOM     18  C   UNL     1      33.604 -19.709 -20.750  0.00  0.00    +0.022 C 
ATOM     19  C   UNL     1      36.381 -20.641 -20.427  0.00  0.00    +0.031 C 
ATOM     20  C   UNL     1      33.951 -20.853 -19.802  0.00  0.00    +0.002 C 
ATOM     21  C   UNL     1      35.204 -21.593 -20.260  0.00  0.00    +0.003 C 
BRANCH  17  22
ATOM     22  O   UNL     1      37.144 -18.562 -21.357  0.00  0.00    -0.383 OA
ATOM     23  H   UNL     1      37.150 -18.077 -20.516  0.00  0.00    +0.210 HD
ENDBRANCH  17  22
ENDBRANCH   2  16
BRANCH  10  24
ATOM     24  C   UNL     1      31.946 -12.163 -22.795  0.00  0.00    +0.054 C 
BRANCH  24  26
ATOM     25  N   UNL     1      33.019  -8.530 -22.976  0.00  0.00    -0.248 NA
ATOM     26  C   UNL     1      32.764 -10.930 -23.112  0.00  0.00    +0.001 C 
ATOM     27  C   UNL     1      33.966 -11.027 -23.804  0.00  0.00    -0.001 C 
ATOM     28  C   UNL     1      32.337  -9.671 -22.724  0.00  0.00    +0.094 C 
ATOM     29  C   UNL     1      34.696  -9.876 -24.082  0.00  0.00    +0.014 C 
ATOM     30  C   UNL     1      34.184  -8.663 -23.650  0.00  0.00    +0.059 C 
ATOM     31  C   UNL     1      34.940  -7.407 -23.931  0.00  0.00    +0.052 C 
ENDBRANCH  24  26
ENDBRANCH  10  24
TORSDOF 4
ENDMDL
MODEL 9
REMARK VINA RESULT:      -9.1      3.554      7.199
REMARK  Name = 46207733
REMARK  4 active torsions:
REMARK  status: ('A' for Active; 'I' for Inactive)
REMARK    1  A    between atoms: N_2  and  C_16
REMARK    2  A    between atoms: C_10  and  C_24
REMARK    3  A    between atoms: C_17  and  O_22
REMARK    4  A    between atoms: C_24  and  C_26
REMARK                            x       y       z     vdW  Elec       q    Type
REMARK                         _______ _______ _______ _____ _____    ______ ____
ROOT
ATOM      1  O   UNL     1      37.293 -19.728 -20.461  0.00  0.00    -0.274 OA
ATOM      2  N   UNL     1      35.048 -19.631 -21.073  0.00  0.00    -0.257 N 
ATOM      3  N   UNL     1      33.413 -20.868 -19.878  0.00  0.00    -0.252 NA
ATOM      4  C   UNL     1      36.124 -20.064 -20.296  0.00  0.00    +0.236 C 
ATOM      5  C   UNL     1      33.761 -20.057 -20.820  0.00  0.00    +0.222 C 
ATOM      6  C   UNL     1      35.765 -20.999 -19.203  0.00  0.00    +0.138 C 
ATOM      7  C   UNL     1      34.422 -21.371 -19.030  0.00  0.00    +0.068 C 
ATOM      8  C   UNL     1      34.076 -22.266 -17.984  0.00  0.00    +0.014 C 
ATOM      9  C   UNL     1      36.761 -21.497 -18.363  0.00  0.00    -0.015 C 
ATOM     10  C   UNL     1      36.425 -22.374 -17.338  0.00  0.00    -0.021 C 
ATOM     11  C   UNL     1      35.095 -22.768 -17.135  0.00  0.00    -0.003 C 
ATOM     12  C   UNL     1      32.749 -22.688 -17.745  0.00  0.00    +0.001 C 
ATOM     13  C   UNL     1      34.767 -23.655 -16.096  0.00  0.00    -0.000 C 
ATOM     14  C   UNL     1      32.441 -23.570 -16.708  0.00  0.00    +0.000 C 
ATOM     15  C   UNL     1      33.449 -24.054 -15.884  0.00  0.00    -0.000 C 
ENDROOT
BRANCH   2  16
ATOM     16  C   UNL     1      35.289 -18.717 -22.168  0.00  0.00    +0.104 C 
ATOM     17  C   UNL     1      34.682 -17.341 -21.865  0.00  0.00    +0.129 C 
ATOM     18  C   UNL     1      34.739 -19.303 -23.471  0.00  0.00    +0.022 C 
ATOM     19  C   UNL     1      34.822 -16.387 -23.053  0.00  0.00    +0.031 C 
ATOM     20  C   UNL     1      34.895 -18.338 -24.642  0.00  0.00    +0.002 C 
ATOM     21  C   UNL     1      34.261 -16.984 -24.336  0.00  0.00    +0.003 C 
BRANCH  17  22
ATOM     22  O   UNL     1      35.358 -16.774 -20.743  0.00  0.00    -0.383 OA
ATOM     23  H   UNL     1      35.237 -17.346 -19.970  0.00  0.00    +0.210 HD
ENDBRANCH  17  22
ENDBRANCH   2  16
BRANCH  10  24
ATOM     24  C   UNL     1      37.543 -22.871 -16.473  0.00  0.00    +0.054 C 
BRANCH  24  26
ATOM     25  N   UNL     1      36.622 -25.315 -13.724  0.00  0.00    -0.248 NA
ATOM     26  C   UNL     1      37.086 -23.408 -15.135  0.00  0.00    +0.001 C 
ATOM     27  C   UNL     1      36.714 -22.547 -14.107  0.00  0.00    -0.001 C 
ATOM     28  C   UNL     1      37.022 -24.771 -14.895  0.00  0.00    +0.094 C 
ATOM     29  C   UNL     1      36.297 -23.070 -12.888  0.00  0.00    +0.014 C 
ATOM     30  C   UNL     1      36.269 -24.448 -12.748  0.00  0.00    +0.059 C 
ATOM     31  C   UNL     1      35.826 -25.044 -11.453  0.00  0.00    +0.052 C 
ENDBRANCH  24  26
ENDBRANCH  10  24
TORSDOF 4
ENDMDL
