MODEL 1
REMARK VINA RESULT:      -7.2      0.000      0.000
REMARK  Name = 68093
REMARK  6 active torsions:
REMARK  status: ('A' for Active; 'I' for Inactive)
REMARK    1  A    between atoms: C_1  and  O_11
REMARK    2  A    between atoms: C_2  and  C_8
REMARK    3  A    between atoms: C_3  and  O_15
REMARK    4  A    between atoms: C_8  and  O_9
REMARK    5  A    between atoms: O_11  and  C_13
REMARK    6  A    between atoms: O_15  and  C_17
REMARK                            x       y       z     vdW  Elec       q    Type
REMARK                         _______ _______ _______ _____ _____    ______ ____
ROOT
ATOM      1  C   UNL     1      34.443 -16.176 -22.599  0.00  0.00    +0.189 C 
ATOM      2  C   UNL     1      34.122 -15.670 -23.859  0.00  0.00    +0.113 C 
ATOM      3  C   UNL     1      34.899 -17.489 -22.471  0.00  0.00    +0.183 C 
ATOM      4  C   UNL     1      34.256 -16.476 -24.990  0.00  0.00    +0.010 C 
ATOM      5  C   UNL     1      35.033 -18.295 -23.602  0.00  0.00    +0.041 C 
ATOM      6  C   UNL     1      34.712 -17.788 -24.862  0.00  0.00    +0.004 C 
ENDROOT
BRANCH   2   8
ATOM      7  O   UNL     1      32.606 -13.973 -24.597  0.00  0.00    -0.245 OA
ATOM      8  C   UNL     1      33.643 -14.304 -24.016  0.00  0.00    +0.341 C 
BRANCH   8   9
ATOM      9  O   UNL     1      34.475 -13.393 -23.441  0.00  0.00    -0.477 OA
ATOM     10  H   UNL     1      34.125 -12.727 -22.883  0.00  0.00    +0.295 HD
ENDBRANCH   8   9
ENDBRANCH   2   8
BRANCH   1  11
ATOM     11  O   UNL     1      34.314 -15.394 -21.490  0.00  0.00    -0.421 OA
BRANCH  11  13
ATOM     12  O   UNL     1      32.276 -16.332 -20.819  0.00  0.00    -0.250 OA
ATOM     13  C   UNL     1      33.015 -15.366 -20.959  0.00  0.00    +0.322 C 
ATOM     14  C   UNL     1      32.648 -13.962 -20.581  0.00  0.00    +0.122 C 
ENDBRANCH  11  13
ENDBRANCH   1  11
BRANCH   3  15
ATOM     15  O   UNL     1      35.216 -17.997 -21.248  0.00  0.00    -0.421 OA
BRANCH  15  17
ATOM     16  O   UNL     1      33.359 -19.393 -20.961  0.00  0.00    -0.250 OA
ATOM     17  C   UNL     1      34.569 -19.206 -20.944  0.00  0.00    +0.322 C 
ATOM     18  C   UNL     1      35.580 -20.253 -20.585  0.00  0.00    +0.122 C 
ENDBRANCH  15  17
ENDBRANCH   3  15
TORSDOF 6
ENDMDL
MODEL 2
REMARK VINA RESULT:      -7.0     10.537     12.279
REMARK  Name = 68093
REMARK  6 active torsions:
REMARK  status: ('A' for Active; 'I' for Inactive)
REMARK    1  A    between atoms: C_1  and  O_11
REMARK    2  A    between atoms: C_2  and  C_8
REMARK    3  A    between atoms: C_3  and  O_15
REMARK    4  A    between atoms: C_8  and  O_9
REMARK    5  A    between atoms: O_11  and  C_13
REMARK    6  A    between atoms: O_15  and  C_17
REMARK                            x       y       z     vdW  Elec       q    Type
REMARK                         _______ _______ _______ _____ _____    ______ ____
ROOT
ATOM      1  C   UNL     1      36.179 -24.361 -13.741  0.00  0.00    +0.189 C 
ATOM      2  C   UNL     1      35.016 -23.798 -14.268  0.00  0.00    +0.113 C 
ATOM      3  C   UNL     1      37.415 -24.079 -14.323  0.00  0.00    +0.183 C 
ATOM      4  C   UNL     1      35.090 -22.953 -15.376  0.00  0.00    +0.010 C 
ATOM      5  C   UNL     1      37.490 -23.234 -15.430  0.00  0.00    +0.041 C 
ATOM      6  C   UNL     1      36.327 -22.671 -15.957  0.00  0.00    +0.004 C 
ENDROOT
BRANCH   2   8
ATOM      7  O   UNL     1      32.891 -24.886 -14.118  0.00  0.00    -0.245 OA
ATOM      8  C   UNL     1      33.715 -24.079 -13.679  0.00  0.00    +0.341 C 
BRANCH   8   9
ATOM      9  O   UNL     1      33.484 -23.343 -12.557  0.00  0.00    -0.477 OA
ATOM     10  H   UNL     1      33.250 -23.771 -11.757  0.00  0.00    +0.295 HD
ENDBRANCH   8   9
ENDBRANCH   2   8
BRANCH   1  11
ATOM     11  O   UNL     1      36.113 -25.187 -12.659  0.00  0.00    -0.421 OA
BRANCH  11  13
ATOM     12  O   UNL     1      35.262 -24.857 -10.502  0.00  0.00    -0.250 OA
ATOM     13  C   UNL     1      35.978 -24.514 -11.435  0.00  0.00    +0.322 C 
ATOM     14  C   UNL     1      36.845 -23.291 -11.426  0.00  0.00    +0.122 C 
ENDBRANCH  11  13
ENDBRANCH   1  11
BRANCH   3  15
ATOM     15  O   UNL     1      38.559 -24.622 -13.819  0.00  0.00    -0.421 OA
BRANCH  15  17
ATOM     16  O   UNL     1      38.397 -26.795 -14.675  0.00  0.00    -0.250 OA
ATOM     17  C   UNL     1      39.015 -25.750 -14.521  0.00  0.00    +0.322 C 
ATOM     18  C   UNL     1      40.390 -25.494 -15.063  0.00  0.00    +0.122 C 
ENDBRANCH  15  17
ENDBRANCH   3  15
TORSDOF 6
ENDMDL
MODEL 3
REMARK VINA RESULT:      -6.9      0.737      4.272
REMARK  Name = 68093
REMARK  6 active torsions:
REMARK  status: ('A' for Active; 'I' for Inactive)
REMARK    1  A    between atoms: C_1  and  O_11
REMARK    2  A    between atoms: C_2  and  C_8
REMARK    3  A    between atoms: C_3  and  O_15
REMARK    4  A    between atoms: C_8  and  O_9
REMARK    5  A    between atoms: O_11  and  C_13
REMARK    6  A    between atoms: O_15  and  C_17
REMARK                            x       y       z     vdW  Elec       q    Type
REMARK                         _______ _______ _______ _____ _____    ______ ____
ROOT
ATOM      1  C   UNL     1      34.557 -16.434 -22.397  0.00  0.00    +0.189 C 
ATOM      2  C   UNL     1      34.643 -17.819 -22.540  0.00  0.00    +0.113 C 
ATOM      3  C   UNL     1      34.585 -15.614 -23.526  0.00  0.00    +0.183 C 
ATOM      4  C   UNL     1      34.757 -18.384 -23.811  0.00  0.00    +0.010 C 
ATOM      5  C   UNL     1      34.699 -16.178 -24.796  0.00  0.00    +0.041 C 
ATOM      6  C   UNL     1      34.785 -17.563 -24.939  0.00  0.00    +0.004 C 
ENDROOT
BRANCH   2   8
ATOM      7  O   UNL     1      33.764 -19.557 -21.150  0.00  0.00    -0.245 OA
ATOM      8  C   UNL     1      34.617 -18.694 -21.376  0.00  0.00    +0.341 C 
BRANCH   8   9
ATOM      9  O   UNL     1      35.660 -18.465 -20.532  0.00  0.00    -0.477 OA
ATOM     10  H   UNL     1      35.868 -17.589 -20.274  0.00  0.00    +0.295 HD
ENDBRANCH   8   9
ENDBRANCH   2   8
BRANCH   1  11
ATOM     11  O   UNL     1      34.445 -15.876 -21.158  0.00  0.00    -0.421 OA
BRANCH  11  13
ATOM     12  O   UNL     1      32.194 -16.381 -20.760  0.00  0.00    -0.250 OA
ATOM     13  C   UNL     1      33.125 -15.586 -20.780  0.00  0.00    +0.322 C 
ATOM     14  C   UNL     1      33.008 -14.141 -20.399  0.00  0.00    +0.122 C 
ENDBRANCH  11  13
ENDBRANCH   1  11
BRANCH   3  15
ATOM     15  O   UNL     1      34.502 -14.260 -23.402  0.00  0.00    -0.421 OA
BRANCH  15  17
ATOM     16  O   UNL     1      32.219 -14.104 -23.897  0.00  0.00    -0.250 OA
ATOM     17  C   UNL     1      33.368 -13.697 -24.011  0.00  0.00    +0.322 C 
ATOM     18  C   UNL     1      33.766 -12.511 -24.837  0.00  0.00    +0.122 C 
ENDBRANCH  15  17
ENDBRANCH   3  15
TORSDOF 6
ENDMDL
MODEL 4
REMARK VINA RESULT:      -6.9      8.724     12.519
REMARK  Name = 68093
REMARK  6 active torsions:
REMARK  status: ('A' for Active; 'I' for Inactive)
REMARK    1  A    between atoms: C_1  and  O_11
REMARK    2  A    between atoms: C_2  and  C_8
REMARK    3  A    between atoms: C_3  and  O_15
REMARK    4  A    between atoms: C_8  and  O_9
REMARK    5  A    between atoms: O_11  and  C_13
REMARK    6  A    between atoms: O_15  and  C_17
REMARK                            x       y       z     vdW  Elec       q    Type
REMARK                         _______ _______ _______ _____ _____    ______ ____
ROOT
ATOM      1  C   UNL     1      36.320 -24.083 -13.707  0.00  0.00    +0.189 C 
ATOM      2  C   UNL     1      35.383 -24.194 -12.680  0.00  0.00    +0.113 C 
ATOM      3  C   UNL     1      35.895 -23.856 -15.017  0.00  0.00    +0.183 C 
ATOM      4  C   UNL     1      34.021 -24.079 -12.962  0.00  0.00    +0.010 C 
ATOM      5  C   UNL     1      34.534 -23.741 -15.299  0.00  0.00    +0.041 C 
ATOM      6  C   UNL     1      33.597 -23.852 -14.272  0.00  0.00    +0.004 C 
ENDROOT
BRANCH   2   8
ATOM      7  O   UNL     1      35.316 -25.272 -10.546  0.00  0.00    -0.245 OA
ATOM      8  C   UNL     1      35.804 -24.432 -11.306  0.00  0.00    +0.341 C 
BRANCH   8   9
ATOM      9  O   UNL     1      36.823 -23.613 -10.927  0.00  0.00    -0.477 OA
ATOM     10  H   UNL     1      37.531 -23.953 -10.417  0.00  0.00    +0.295 HD
ENDBRANCH   8   9
ENDBRANCH   2   8
BRANCH   1  11
ATOM     11  O   UNL     1      37.653 -24.194 -13.439  0.00  0.00    -0.421 OA
BRANCH  11  13
ATOM     12  O   UNL     1      37.671 -26.535 -13.424  0.00  0.00    -0.250 OA
ATOM     13  C   UNL     1      38.186 -25.462 -13.713  0.00  0.00    +0.322 C 
ATOM     14  C   UNL     1      39.500 -25.322 -14.422  0.00  0.00    +0.122 C 
ENDBRANCH  11  13
ENDBRANCH   1  11
BRANCH   3  15
ATOM     15  O   UNL     1      36.799 -23.744 -16.031  0.00  0.00    -0.421 OA
BRANCH  15  17
ATOM     16  O   UNL     1      37.880 -21.698 -15.679  0.00  0.00    -0.250 OA
ATOM     17  C   UNL     1      37.149 -22.420 -16.343  0.00  0.00    +0.322 C 
ATOM     18  C   UNL     1      36.488 -22.004 -17.623  0.00  0.00    +0.122 C 
ENDBRANCH  15  17
ENDBRANCH   3  15
TORSDOF 6
ENDMDL
MODEL 5
REMARK VINA RESULT:      -6.9      8.676     11.261
REMARK  Name = 68093
REMARK  6 active torsions:
REMARK  status: ('A' for Active; 'I' for Inactive)
REMARK    1  A    between atoms: C_1  and  O_11
REMARK    2  A    between atoms: C_2  and  C_8
REMARK    3  A    between atoms: C_3  and  O_15
REMARK    4  A    between atoms: C_8  and  O_9
REMARK    5  A    between atoms: O_11  and  C_13
REMARK    6  A    between atoms: O_15  and  C_17
REMARK                            x       y       z     vdW  Elec       q    Type
REMARK                         _______ _______ _______ _____ _____    ______ ____
ROOT
ATOM      1  C   UNL     1      35.004 -24.203 -15.179  0.00  0.00    +0.189 C 
ATOM      2  C   UNL     1      34.029 -23.587 -15.963  0.00  0.00    +0.113 C 
ATOM      3  C   UNL     1      34.753 -24.467 -13.832  0.00  0.00    +0.183 C 
ATOM      4  C   UNL     1      32.802 -23.234 -15.399  0.00  0.00    +0.010 C 
ATOM      5  C   UNL     1      33.527 -24.113 -13.269  0.00  0.00    +0.041 C 
ATOM      6  C   UNL     1      32.551 -23.497 -14.052  0.00  0.00    +0.004 C 
ENDROOT
BRANCH   2   8
ATOM      7  O   UNL     1      33.597 -23.732 -18.311  0.00  0.00    -0.245 OA
ATOM      8  C   UNL     1      34.269 -23.302 -17.370  0.00  0.00    +0.341 C 
BRANCH   8   9
ATOM      9  O   UNL     1      35.343 -22.486 -17.557  0.00  0.00    -0.477 OA
ATOM     10  H   UNL     1      35.854 -22.557 -18.339  0.00  0.00    +0.295 HD
ENDBRANCH   8   9
ENDBRANCH   2   8
BRANCH   1  11
ATOM     11  O   UNL     1      36.205 -24.552 -15.724  0.00  0.00    -0.421 OA
BRANCH  11  13
ATOM     12  O   UNL     1      37.280 -22.509 -15.328  0.00  0.00    -0.250 OA
ATOM     13  C   UNL     1      37.272 -23.734 -15.322  0.00  0.00    +0.322 C 
ATOM     14  C   UNL     1      38.427 -24.581 -14.877  0.00  0.00    +0.122 C 
ENDBRANCH  11  13
ENDBRANCH   1  11
BRANCH   3  15
ATOM     15  O   UNL     1      35.697 -25.068 -13.055  0.00  0.00    -0.421 OA
BRANCH  15  17
ATOM     16  O   UNL     1      35.305 -25.024 -10.747  0.00  0.00    -0.250 OA
ATOM     17  C   UNL     1      35.794 -24.537 -11.758  0.00  0.00    +0.322 C 
ATOM     18  C   UNL     1      36.590 -23.266 -11.783  0.00  0.00    +0.122 C 
ENDBRANCH  15  17
ENDBRANCH   3  15
TORSDOF 6
ENDMDL
MODEL 6
REMARK VINA RESULT:      -6.9      1.663      3.296
REMARK  Name = 68093
REMARK  6 active torsions:
REMARK  status: ('A' for Active; 'I' for Inactive)
REMARK    1  A    between atoms: C_1  and  O_11
REMARK    2  A    between atoms: C_2  and  C_8
REMARK    3  A    between atoms: C_3  and  O_15
REMARK    4  A    between atoms: C_8  and  O_9
REMARK    5  A    between atoms: O_11  and  C_13
REMARK    6  A    between atoms: O_15  and  C_17
REMARK                            x       y       z     vdW  Elec       q    Type
REMARK                         _______ _______ _______ _____ _____    ______ ____
ROOT
ATOM      1  C   UNL     1      34.674 -15.688 -23.155  0.00  0.00    +0.189 C 
ATOM      2  C   UNL     1      33.887 -14.556 -22.941  0.00  0.00    +0.113 C 
ATOM      3  C   UNL     1      34.969 -16.543 -22.092  0.00  0.00    +0.183 C 
ATOM      4  C   UNL     1      33.396 -14.279 -21.665  0.00  0.00    +0.010 C 
ATOM      5  C   UNL     1      34.478 -16.266 -20.816  0.00  0.00    +0.041 C 
ATOM      6  C   UNL     1      33.691 -15.134 -20.602  0.00  0.00    +0.004 C 
ENDROOT
BRANCH   2   8
ATOM      7  O   UNL     1      34.175 -12.609 -24.301  0.00  0.00    -0.245 OA
ATOM      8  C   UNL     1      33.567 -13.650 -24.035  0.00  0.00    +0.341 C 
BRANCH   8   9
ATOM      9  O   UNL     1      32.498 -14.073 -24.763  0.00  0.00    -0.477 OA
ATOM     10  H   UNL     1      32.244 -14.975 -24.741  0.00  0.00    +0.295 HD
ENDBRANCH   8   9
ENDBRANCH   2   8
BRANCH   1  11
ATOM     11  O   UNL     1      35.157 -15.965 -24.400  0.00  0.00    -0.421 OA
BRANCH  11  13
ATOM     12  O   UNL     1      33.412 -16.336 -25.917  0.00  0.00    -0.250 OA
ATOM     13  C   UNL     1      34.298 -16.753 -25.182  0.00  0.00    +0.322 C 
ATOM     14  C   UNL     1      34.620 -18.205 -24.989  0.00  0.00    +0.122 C 
ENDBRANCH  11  13
ENDBRANCH   1  11
BRANCH   3  15
ATOM     15  O   UNL     1      35.736 -17.652 -22.286  0.00  0.00    -0.421 OA
BRANCH  15  17
ATOM     16  O   UNL     1      36.270 -18.934 -20.402  0.00  0.00    -0.250 OA
ATOM     17  C   UNL     1      35.527 -18.666 -21.337  0.00  0.00    +0.322 C 
ATOM     18  C   UNL     1      34.248 -19.390 -21.633  0.00  0.00    +0.122 C 
ENDBRANCH  15  17
ENDBRANCH   3  15
TORSDOF 6
ENDMDL
MODEL 7
REMARK VINA RESULT:      -6.8      6.843     10.632
REMARK  Name = 68093
REMARK  6 active torsions:
REMARK  status: ('A' for Active; 'I' for Inactive)
REMARK    1  A    between atoms: C_1  and  O_11
REMARK    2  A    between atoms: C_2  and  C_8
REMARK    3  A    between atoms: C_3  and  O_15
REMARK    4  A    between atoms: C_8  and  O_9
REMARK    5  A    between atoms: O_11  and  C_13
REMARK    6  A    between atoms: O_15  and  C_17
REMARK                            x       y       z     vdW  Elec       q    Type
REMARK                         _______ _______ _______ _____ _____    ______ ____
ROOT
ATOM      1  C   UNL     1      34.361 -23.880 -15.729  0.00  0.00    +0.189 C 
ATOM      2  C   UNL     1      33.819 -23.857 -14.444  0.00  0.00    +0.113 C 
ATOM      3  C   UNL     1      33.569 -23.536 -16.826  0.00  0.00    +0.183 C 
ATOM      4  C   UNL     1      32.486 -23.491 -14.255  0.00  0.00    +0.010 C 
ATOM      5  C   UNL     1      32.236 -23.171 -16.637  0.00  0.00    +0.041 C 
ATOM      6  C   UNL     1      31.694 -23.148 -15.351  0.00  0.00    +0.004 C 
ENDROOT
BRANCH   2   8
ATOM      7  O   UNL     1      34.681 -23.575 -12.230  0.00  0.00    -0.245 OA
ATOM      8  C   UNL     1      34.626 -24.213 -13.285  0.00  0.00    +0.341 C 
BRANCH   8   9
ATOM      9  O   UNL     1      35.339 -25.355 -13.481  0.00  0.00    -0.477 OA
ATOM     10  H   UNL     1      35.095 -25.947 -14.165  0.00  0.00    +0.295 HD
ENDBRANCH   8   9
ENDBRANCH   2   8
BRANCH   1  11
ATOM     11  O   UNL     1      35.663 -24.236 -15.921  0.00  0.00    -0.421 OA
BRANCH  11  13
ATOM     12  O   UNL     1      36.344 -21.996 -15.965  0.00  0.00    -0.250 OA
ATOM     13  C   UNL     1      36.573 -23.180 -15.756  0.00  0.00    +0.322 C 
ATOM     14  C   UNL     1      37.892 -23.712 -15.281  0.00  0.00    +0.122 C 
ENDBRANCH  11  13
ENDBRANCH   1  11
BRANCH   3  15
ATOM     15  O   UNL     1      34.084 -23.554 -18.086  0.00  0.00    -0.421 OA
BRANCH  15  17
ATOM     16  O   UNL     1      32.778 -21.929 -19.152  0.00  0.00    -0.250 OA
ATOM     17  C   UNL     1      33.868 -22.369 -18.810  0.00  0.00    +0.322 C 
ATOM     18  C   UNL     1      35.179 -21.708 -19.114  0.00  0.00    +0.122 C 
ENDBRANCH  15  17
ENDBRANCH   3  15
TORSDOF 6
ENDMDL
MODEL 8
REMARK VINA RESULT:      -6.8      8.903     12.500
REMARK  Name = 68093
REMARK  6 active torsions:
REMARK  status: ('A' for Active; 'I' for Inactive)
REMARK    1  A    between atoms: C_1  and  O_11
REMARK    2  A    between atoms: C_2  and  C_8
REMARK    3  A    between atoms: C_3  and  O_15
REMARK    4  A    between atoms: C_8  and  O_9
REMARK    5  A    between atoms: O_11  and  C_13
REMARK    6  A    between atoms: O_15  and  C_17
REMARK                            x       y       z     vdW  Elec       q    Type
REMARK                         _______ _______ _______ _____ _____    ______ ____
ROOT
ATOM      1  C   UNL     1      36.274 -24.178 -13.507  0.00  0.00    +0.189 C 
ATOM      2  C   UNL     1      36.802 -24.766 -12.357  0.00  0.00    +0.113 C 
ATOM      3  C   UNL     1      36.814 -24.484 -14.757  0.00  0.00    +0.183 C 
ATOM      4  C   UNL     1      37.869 -25.660 -12.456  0.00  0.00    +0.010 C 
ATOM      5  C   UNL     1      37.882 -25.378 -14.856  0.00  0.00    +0.041 C 
ATOM      6  C   UNL     1      38.409 -25.966 -13.706  0.00  0.00    +0.004 C 
ENDROOT
BRANCH   2   8
ATOM      7  O   UNL     1      36.706 -23.621 -10.259  0.00  0.00    -0.245 OA
ATOM      8  C   UNL     1      36.255 -24.460 -11.043  0.00  0.00    +0.341 C 
BRANCH   8   9
ATOM      9  O   UNL     1      35.158 -25.212 -10.749  0.00  0.00    -0.477 OA
ATOM     10  H   UNL     1      35.027 -25.527  -9.877  0.00  0.00    +0.295 HD
ENDBRANCH   8   9
ENDBRANCH   2   8
BRANCH   1  11
ATOM     11  O   UNL     1      35.231 -23.305 -13.417  0.00  0.00    -0.421 OA
BRANCH  11  13
ATOM     12  O   UNL     1      33.446 -24.763 -13.009  0.00  0.00    -0.250 OA
ATOM     13  C   UNL     1      33.979 -23.883 -13.673  0.00  0.00    +0.322 C 
ATOM     14  C   UNL     1      33.371 -23.266 -14.897  0.00  0.00    +0.122 C 
ENDBRANCH  11  13
ENDBRANCH   1  11
BRANCH   3  15
ATOM     15  O   UNL     1      36.310 -23.919 -15.889  0.00  0.00    -0.421 OA
BRANCH  15  17
ATOM     16  O   UNL     1      37.836 -22.160 -15.641  0.00  0.00    -0.250 OA
ATOM     17  C   UNL     1      36.902 -22.691 -16.228  0.00  0.00    +0.322 C 
ATOM     18  C   UNL     1      36.218 -22.107 -17.428  0.00  0.00    +0.122 C 
ENDBRANCH  15  17
ENDBRANCH   3  15
TORSDOF 6
ENDMDL
MODEL 9
REMARK VINA RESULT:      -6.8      1.598      2.137
REMARK  Name = 68093
REMARK  6 active torsions:
REMARK  status: ('A' for Active; 'I' for Inactive)
REMARK    1  A    between atoms: C_1  and  O_11
REMARK    2  A    between atoms: C_2  and  C_8
REMARK    3  A    between atoms: C_3  and  O_15
REMARK    4  A    between atoms: C_8  and  O_9
REMARK    5  A    between atoms: O_11  and  C_13
REMARK    6  A    between atoms: O_15  and  C_17
REMARK                            x       y       z     vdW  Elec       q    Type
REMARK                         _______ _______ _______ _____ _____    ______ ____
ROOT
ATOM      1  C   UNL     1      34.396 -14.749 -23.294  0.00  0.00    +0.189 C 
ATOM      2  C   UNL     1      33.618 -13.878 -24.057  0.00  0.00    +0.113 C 
ATOM      3  C   UNL     1      34.662 -16.037 -23.760  0.00  0.00    +0.183 C 
ATOM      4  C   UNL     1      33.107 -14.295 -25.286  0.00  0.00    +0.010 C 
ATOM      5  C   UNL     1      34.150 -16.454 -24.989  0.00  0.00    +0.041 C 
ATOM      6  C   UNL     1      33.373 -15.583 -25.752  0.00  0.00    +0.004 C 
ENDROOT
BRANCH   2   8
ATOM      7  O   UNL     1      32.304 -12.188 -22.990  0.00  0.00    -0.245 OA
ATOM      8  C   UNL     1      33.327 -12.530 -23.589  0.00  0.00    +0.341 C 
BRANCH   8   9
ATOM      9  O   UNL     1      34.325 -11.652 -23.884  0.00  0.00    -0.477 OA
ATOM     10  H   UNL     1      34.842 -11.284 -23.196  0.00  0.00    +0.295 HD
ENDBRANCH   8   9
ENDBRANCH   2   8
BRANCH   1  11
ATOM     11  O   UNL     1      34.900 -14.348 -22.091  0.00  0.00    -0.421 OA
BRANCH  11  13
ATOM     12  O   UNL     1      34.951 -15.559 -20.088  0.00  0.00    -0.250 OA
ATOM     13  C   UNL     1      34.333 -15.004 -20.988  0.00  0.00    +0.322 C 
ATOM     14  C   UNL     1      32.837 -14.934 -21.064  0.00  0.00    +0.122 C 
ENDBRANCH  11  13
ENDBRANCH   1  11
BRANCH   3  15
ATOM     15  O   UNL     1      35.420 -16.898 -23.025  0.00  0.00    -0.421 OA
BRANCH  15  17
ATOM     16  O   UNL     1      34.036 -18.295 -21.755  0.00  0.00    -0.250 OA
ATOM     17  C   UNL     1      34.774 -18.106 -22.712  0.00  0.00    +0.322 C 
ATOM     18  C   UNL     1      35.123 -19.152 -23.730  0.00  0.00    +0.122 C 
ENDBRANCH  15  17
ENDBRANCH   3  15
TORSDOF 6
ENDMDL
