MODEL 1
REMARK VINA RESULT:      -9.8      0.000      0.000
REMARK  Name = 121891
REMARK  6 active torsions:
REMARK  status: ('A' for Active; 'I' for Inactive)
REMARK    1  A    between atoms: C_1  and  C_12
REMARK    2  A    between atoms: C_1  and  C_13
REMARK    3  A    between atoms: C_13  and  C_15
REMARK    4  A    between atoms: C_13  and  C_18
REMARK    5  A    between atoms: C_15  and  O_16
REMARK    6  A    between atoms: C_18  and  C_19
REMARK                            x       y       z     vdW  Elec       q    Type
REMARK                         _______ _______ _______ _____ _____    ______ ____
ROOT
ATOM      1  C   UNL     1      34.655 -23.589 -16.883  0.00  0.00    +0.097 C 
ENDROOT
BRANCH   1  12
ATOM      2  O   UNL     1      34.885 -23.149 -14.553  0.00  0.00    -0.275 OA
ATOM      3  N   UNL     1      32.746 -23.125 -15.425  0.00  0.00    -0.280 N 
ATOM      4  C   UNL     1      30.596 -23.092 -14.442  0.00  0.00    +0.022 C 
ATOM      5  C   UNL     1      30.470 -22.743 -15.934  0.00  0.00    +0.022 C 
ATOM      6  C   UNL     1      32.074 -22.810 -14.169  0.00  0.00    +0.093 C 
ATOM      7  C   UNL     1      31.786 -23.262 -16.520  0.00  0.00    +0.093 C 
ATOM      8  C   UNL     1      30.237 -24.552 -14.131  0.00  0.00    +0.002 C 
ATOM      9  C   UNL     1      29.212 -23.284 -16.606  0.00  0.00    +0.002 C 
ATOM     10  C   UNL     1      28.900 -24.951 -14.741  0.00  0.00    +0.000 C 
ATOM     11  C   UNL     1      28.901 -24.735 -16.251  0.00  0.00    +0.000 C 
ATOM     12  C   UNL     1      34.118 -23.270 -15.510  0.00  0.00    +0.226 C 
ENDBRANCH   1  12
BRANCH   1  13
ATOM     13  C   UNL     1      35.106 -22.301 -17.572  0.00  0.00    +0.112 C 
BRANCH  13  15
ATOM     14  O   UNL     1      37.098 -20.919 -17.310  0.00  0.00    -0.250 OA
ATOM     15  C   UNL     1      36.536 -21.995 -17.146  0.00  0.00    +0.314 C 
BRANCH  15  16
ATOM     16  O   UNL     1      37.151 -23.066 -16.581  0.00  0.00    -0.480 OA
ATOM     17  H   UNL     1      37.779 -23.559 -17.072  0.00  0.00    +0.295 HD
ENDBRANCH  15  16
ENDBRANCH  13  15
BRANCH  13  18
ATOM     18  C   UNL     1      35.032 -22.465 -19.104  0.00  0.00    +0.038 C 
BRANCH  18  19
ATOM     19  C   UNL     1      34.570 -21.215 -19.816  0.00  0.00    -0.022 C 
ATOM     20  C   UNL     1      33.218 -20.919 -19.860  0.00  0.00    -0.004 C 
ATOM     21  C   UNL     1      35.509 -20.389 -20.412  0.00  0.00    -0.004 C 
ATOM     22  C   UNL     1      32.792 -19.765 -20.517  0.00  0.00    -0.000 C 
ATOM     23  C   UNL     1      35.083 -19.235 -21.069  0.00  0.00    -0.000 C 
ATOM     24  C   UNL     1      33.725 -18.923 -21.122  0.00  0.00    -0.000 C 
ENDBRANCH  18  19
ENDBRANCH  13  18
ENDBRANCH   1  13
TORSDOF 6
ENDMDL
MODEL 2
REMARK VINA RESULT:      -9.2      5.636     10.460
REMARK  Name = 121891
REMARK  6 active torsions:
REMARK  status: ('A' for Active; 'I' for Inactive)
REMARK    1  A    between atoms: C_1  and  C_12
REMARK    2  A    between atoms: C_1  and  C_13
REMARK    3  A    between atoms: C_13  and  C_15
REMARK    4  A    between atoms: C_13  and  C_18
REMARK    5  A    between atoms: C_15  and  O_16
REMARK    6  A    between atoms: C_18  and  C_19
REMARK                            x       y       z     vdW  Elec       q    Type
REMARK                         _______ _______ _______ _____ _____    ______ ____
ROOT
ATOM      1  C   UNL     1      35.740 -16.815 -22.881  0.00  0.00    +0.097 C 
ENDROOT
BRANCH   1  12
ATOM      2  O   UNL     1      34.608 -17.924 -24.660  0.00  0.00    -0.275 OA
ATOM      3  N   UNL     1      34.059 -15.712 -24.276  0.00  0.00    -0.280 N 
ATOM      4  C   UNL     1      32.819 -14.115 -25.501  0.00  0.00    +0.022 C 
ATOM      5  C   UNL     1      33.022 -13.600 -24.066  0.00  0.00    +0.022 C 
ATOM      6  C   UNL     1      33.068 -15.615 -25.342  0.00  0.00    +0.093 C 
ATOM      7  C   UNL     1      34.195 -14.444 -23.561  0.00  0.00    +0.093 C 
ATOM      8  C   UNL     1      33.793 -13.490 -26.510  0.00  0.00    +0.002 C 
ATOM      9  C   UNL     1      33.225 -12.092 -23.959  0.00  0.00    +0.002 C 
ATOM     10  C   UNL     1      33.822 -11.970 -26.405  0.00  0.00    +0.000 C 
ATOM     11  C   UNL     1      34.193 -11.526 -24.994  0.00  0.00    +0.000 C 
ATOM     12  C   UNL     1      34.756 -16.879 -24.022  0.00  0.00    +0.226 C 
ENDBRANCH   1  12
BRANCH   1  13
ATOM     13  C   UNL     1      35.135 -17.473 -21.641  0.00  0.00    +0.112 C 
BRANCH  13  15
ATOM     14  O   UNL     1      33.009 -16.465 -20.999  0.00  0.00    -0.250 OA
ATOM     15  C   UNL     1      34.233 -16.462 -20.944  0.00  0.00    +0.314 C 
BRANCH  15  16
ATOM     16  O   UNL     1      34.935 -15.519 -20.266  0.00  0.00    -0.480 OA
ATOM     17  H   UNL     1      34.733 -15.338 -19.368  0.00  0.00    +0.295 HD
ENDBRANCH  15  16
ENDBRANCH  13  15
BRANCH  13  18
ATOM     18  C   UNL     1      34.321 -18.720 -22.048  0.00  0.00    +0.038 C 
BRANCH  18  19
ATOM     19  C   UNL     1      34.378 -19.828 -21.023  0.00  0.00    -0.022 C 
ATOM     20  C   UNL     1      35.609 -20.332 -20.636  0.00  0.00    -0.004 C 
ATOM     21  C   UNL     1      33.198 -20.320 -20.490  0.00  0.00    -0.004 C 
ATOM     22  C   UNL     1      35.662 -21.356 -19.690  0.00  0.00    -0.000 C 
ATOM     23  C   UNL     1      33.250 -21.343 -19.544  0.00  0.00    -0.000 C 
ATOM     24  C   UNL     1      34.482 -21.861 -19.144  0.00  0.00    -0.000 C 
ENDBRANCH  18  19
ENDBRANCH  13  18
ENDBRANCH   1  13
TORSDOF 6
ENDMDL
MODEL 3
REMARK VINA RESULT:      -9.1      8.703     13.017
REMARK  Name = 121891
REMARK  6 active torsions:
REMARK  status: ('A' for Active; 'I' for Inactive)
REMARK    1  A    between atoms: C_1  and  C_12
REMARK    2  A    between atoms: C_1  and  C_13
REMARK    3  A    between atoms: C_13  and  C_15
REMARK    4  A    between atoms: C_13  and  C_18
REMARK    5  A    between atoms: C_15  and  O_16
REMARK    6  A    between atoms: C_18  and  C_19
REMARK                            x       y       z     vdW  Elec       q    Type
REMARK                         _______ _______ _______ _____ _____    ______ ____
ROOT
ATOM      1  C   UNL     1      33.613 -12.953 -24.274  0.00  0.00    +0.097 C 
ENDROOT
BRANCH   1  12
ATOM      2  O   UNL     1      31.883 -13.136 -22.646  0.00  0.00    -0.275 OA
ATOM      3  N   UNL     1      32.790 -11.039 -22.990  0.00  0.00    -0.280 N 
ATOM      4  C   UNL     1      32.150  -8.866 -22.313  0.00  0.00    +0.022 C 
ATOM      5  C   UNL     1      33.597  -8.825 -22.830  0.00  0.00    +0.022 C 
ATOM      6  C   UNL     1      31.961 -10.352 -22.006  0.00  0.00    +0.093 C 
ATOM      7  C   UNL     1      33.706 -10.111 -23.652  0.00  0.00    +0.093 C 
ATOM      8  C   UNL     1      31.126  -8.373 -23.346  0.00  0.00    +0.002 C 
ATOM      9  C   UNL     1      33.963  -7.550 -23.583  0.00  0.00    +0.002 C 
ATOM     10  C   UNL     1      31.523  -7.029 -23.943  0.00  0.00    +0.000 C 
ATOM     11  C   UNL     1      32.904  -7.102 -24.586  0.00  0.00    +0.000 C 
ATOM     12  C   UNL     1      32.677 -12.396 -23.229  0.00  0.00    +0.226 C 
ENDBRANCH   1  12
BRANCH   1  13
ATOM     13  C   UNL     1      33.514 -14.478 -24.293  0.00  0.00    +0.112 C 
BRANCH  13  15
ATOM     14  O   UNL     1      33.826 -15.778 -26.332  0.00  0.00    -0.250 OA
ATOM     15  C   UNL     1      33.197 -14.929 -25.713  0.00  0.00    +0.314 C 
BRANCH  15  16
ATOM     16  O   UNL     1      32.143 -14.260 -26.247  0.00  0.00    -0.480 OA
ATOM     17  H   UNL     1      31.588 -13.743 -25.697  0.00  0.00    +0.295 HD
ENDBRANCH  15  16
ENDBRANCH  13  15
BRANCH  13  18
ATOM     18  C   UNL     1      34.845 -15.101 -23.822  0.00  0.00    +0.038 C 
BRANCH  18  19
ATOM     19  C   UNL     1      34.664 -16.405 -23.080  0.00  0.00    -0.022 C 
ATOM     20  C   UNL     1      34.991 -17.595 -23.708  0.00  0.00    -0.004 C 
ATOM     21  C   UNL     1      34.174 -16.384 -21.785  0.00  0.00    -0.004 C 
ATOM     22  C   UNL     1      34.823 -18.798 -23.023  0.00  0.00    -0.000 C 
ATOM     23  C   UNL     1      34.006 -17.587 -21.099  0.00  0.00    -0.000 C 
ATOM     24  C   UNL     1      34.331 -18.794 -21.718  0.00  0.00    -0.000 C 
ENDBRANCH  18  19
ENDBRANCH  13  18
ENDBRANCH   1  13
TORSDOF 6
ENDMDL
MODEL 4
REMARK VINA RESULT:      -8.7      2.639      4.513
REMARK  Name = 121891
REMARK  6 active torsions:
REMARK  status: ('A' for Active; 'I' for Inactive)
REMARK    1  A    between atoms: C_1  and  C_12
REMARK    2  A    between atoms: C_1  and  C_13
REMARK    3  A    between atoms: C_13  and  C_15
REMARK    4  A    between atoms: C_13  and  C_18
REMARK    5  A    between atoms: C_15  and  O_16
REMARK    6  A    between atoms: C_18  and  C_19
REMARK                            x       y       z     vdW  Elec       q    Type
REMARK                         _______ _______ _______ _____ _____    ______ ____
ROOT
ATOM      1  C   UNL     1      34.371 -23.752 -16.905  0.00  0.00    +0.097 C 
ENDROOT
BRANCH   1  12
ATOM      2  O   UNL     1      33.002 -22.796 -15.206  0.00  0.00    -0.275 OA
ATOM      3  N   UNL     1      34.764 -24.123 -14.518  0.00  0.00    -0.280 N 
ATOM      4  C   UNL     1      35.778 -24.508 -12.417  0.00  0.00    +0.022 C 
ATOM      5  C   UNL     1      36.245 -25.589 -13.406  0.00  0.00    +0.022 C 
ATOM      6  C   UNL     1      34.507 -23.986 -13.089  0.00  0.00    +0.093 C 
ATOM      7  C   UNL     1      35.930 -24.968 -14.769  0.00  0.00    +0.093 C 
ATOM      8  C   UNL     1      36.808 -23.386 -12.220  0.00  0.00    +0.002 C 
ATOM      9  C   UNL     1      37.694 -26.031 -13.222  0.00  0.00    +0.002 C 
ATOM     10  C   UNL     1      38.195 -23.935 -11.914  0.00  0.00    +0.000 C 
ATOM     11  C   UNL     1      38.668 -24.875 -13.018  0.00  0.00    +0.000 C 
ATOM     12  C   UNL     1      33.974 -23.505 -15.470  0.00  0.00    +0.226 C 
ENDBRANCH   1  12
BRANCH   1  13
ATOM     13  C   UNL     1      34.840 -22.444 -17.542  0.00  0.00    +0.112 C 
BRANCH  13  15
ATOM     14  O   UNL     1      36.504 -21.657 -15.943  0.00  0.00    -0.250 OA
ATOM     15  C   UNL     1      36.245 -22.134 -17.041  0.00  0.00    +0.314 C 
BRANCH  15  16
ATOM     16  O   UNL     1      37.200 -22.416 -17.964  0.00  0.00    -0.480 OA
ATOM     17  H   UNL     1      38.026 -22.765 -17.692  0.00  0.00    +0.295 HD
ENDBRANCH  15  16
ENDBRANCH  13  15
BRANCH  13  18
ATOM     18  C   UNL     1      34.841 -22.575 -19.080  0.00  0.00    +0.038 C 
BRANCH  18  19
ATOM     19  C   UNL     1      34.470 -21.292 -19.787  0.00  0.00    -0.022 C 
ATOM     20  C   UNL     1      33.137 -20.923 -19.868  0.00  0.00    -0.004 C 
ATOM     21  C   UNL     1      35.470 -20.510 -20.340  0.00  0.00    -0.004 C 
ATOM     22  C   UNL     1      32.795 -19.739 -20.521  0.00  0.00    -0.000 C 
ATOM     23  C   UNL     1      35.128 -19.326 -20.993  0.00  0.00    -0.000 C 
ATOM     24  C   UNL     1      33.790 -18.941 -21.083  0.00  0.00    -0.000 C 
ENDBRANCH  18  19
ENDBRANCH  13  18
ENDBRANCH   1  13
TORSDOF 6
ENDMDL
MODEL 5
REMARK VINA RESULT:      -8.6      1.541      2.199
REMARK  Name = 121891
REMARK  6 active torsions:
REMARK  status: ('A' for Active; 'I' for Inactive)
REMARK    1  A    between atoms: C_1  and  C_12
REMARK    2  A    between atoms: C_1  and  C_13
REMARK    3  A    between atoms: C_13  and  C_15
REMARK    4  A    between atoms: C_13  and  C_18
REMARK    5  A    between atoms: C_15  and  O_16
REMARK    6  A    between atoms: C_18  and  C_19
REMARK                            x       y       z     vdW  Elec       q    Type
REMARK                         _______ _______ _______ _____ _____    ______ ____
ROOT
ATOM      1  C   UNL     1      34.642 -22.644 -14.373  0.00  0.00    +0.097 C 
ENDROOT
BRANCH   1  12
ATOM      2  O   UNL     1      34.569 -24.951 -13.784  0.00  0.00    -0.275 OA
ATOM      3  N   UNL     1      32.549 -23.891 -14.150  0.00  0.00    -0.280 N 
ATOM      4  C   UNL     1      30.333 -24.673 -14.415  0.00  0.00    +0.022 C 
ATOM      5  C   UNL     1      30.303 -23.156 -14.168  0.00  0.00    +0.022 C 
ATOM      6  C   UNL     1      31.715 -25.058 -13.885  0.00  0.00    +0.093 C 
ATOM      7  C   UNL     1      31.735 -22.726 -14.496  0.00  0.00    +0.093 C 
ATOM      8  C   UNL     1      30.178 -25.047 -15.896  0.00  0.00    +0.002 C 
ATOM      9  C   UNL     1      29.218 -22.412 -14.938  0.00  0.00    +0.002 C 
ATOM     10  C   UNL     1      28.987 -24.347 -16.537  0.00  0.00    +0.000 C 
ATOM     11  C   UNL     1      29.103 -22.833 -16.400  0.00  0.00    +0.000 C 
ATOM     12  C   UNL     1      33.929 -23.939 -14.075  0.00  0.00    +0.226 C 
ENDBRANCH   1  12
BRANCH   1  13
ATOM     13  C   UNL     1      35.522 -22.814 -15.612  0.00  0.00    +0.112 C 
BRANCH  13  15
ATOM     14  O   UNL     1      37.655 -23.408 -14.588  0.00  0.00    -0.250 OA
ATOM     15  C   UNL     1      36.684 -23.734 -15.261  0.00  0.00    +0.314 C 
BRANCH  15  16
ATOM     16  O   UNL     1      36.550 -24.971 -15.805  0.00  0.00    -0.480 OA
ATOM     17  H   UNL     1      36.097 -25.079 -16.619  0.00  0.00    +0.295 HD
ENDBRANCH  15  16
ENDBRANCH  13  15
BRANCH  13  18
ATOM     18  C   UNL     1      34.697 -23.416 -16.769  0.00  0.00    +0.038 C 
BRANCH  18  19
ATOM     19  C   UNL     1      34.609 -22.508 -17.973  0.00  0.00    -0.022 C 
ATOM     20  C   UNL     1      33.375 -22.269 -18.553  0.00  0.00    -0.004 C 
ATOM     21  C   UNL     1      35.765 -21.934 -18.475  0.00  0.00    -0.004 C 
ATOM     22  C   UNL     1      33.293 -21.431 -19.666  0.00  0.00    -0.000 C 
ATOM     23  C   UNL     1      35.684 -21.096 -19.586  0.00  0.00    -0.000 C 
ATOM     24  C   UNL     1      34.448 -20.845 -20.182  0.00  0.00    -0.000 C 
ENDBRANCH  18  19
ENDBRANCH  13  18
ENDBRANCH   1  13
TORSDOF 6
ENDMDL
MODEL 6
REMARK VINA RESULT:      -8.6      9.424     12.559
REMARK  Name = 121891
REMARK  6 active torsions:
REMARK  status: ('A' for Active; 'I' for Inactive)
REMARK    1  A    between atoms: C_1  and  C_12
REMARK    2  A    between atoms: C_1  and  C_13
REMARK    3  A    between atoms: C_13  and  C_15
REMARK    4  A    between atoms: C_13  and  C_18
REMARK    5  A    between atoms: C_15  and  O_16
REMARK    6  A    between atoms: C_18  and  C_19
REMARK                            x       y       z     vdW  Elec       q    Type
REMARK                         _______ _______ _______ _____ _____    ______ ____
ROOT
ATOM      1  C   UNL     1      34.197 -12.924 -24.343  0.00  0.00    +0.097 C 
ENDROOT
BRANCH   1  12
ATOM      2  O   UNL     1      34.339 -10.787 -25.386  0.00  0.00    -0.275 OA
ATOM      3  N   UNL     1      32.873 -10.999 -23.614  0.00  0.00    -0.280 N 
ATOM      4  C   UNL     1      31.663  -9.437 -22.315  0.00  0.00    +0.022 C 
ATOM      5  C   UNL     1      31.098 -10.844 -22.061  0.00  0.00    +0.022 C 
ATOM      6  C   UNL     1      32.398  -9.620 -23.644  0.00  0.00    +0.093 C 
ATOM      7  C   UNL     1      32.226 -11.759 -22.545  0.00  0.00    +0.093 C 
ATOM      8  C   UNL     1      32.617  -8.960 -21.210  0.00  0.00    +0.002 C 
ATOM      9  C   UNL     1      30.642 -11.092 -20.627  0.00  0.00    +0.002 C 
ATOM     10  C   UNL     1      32.010  -9.134 -19.823  0.00  0.00    +0.000 C 
ATOM     11  C   UNL     1      31.623 -10.588 -19.573  0.00  0.00    +0.000 C 
ATOM     12  C   UNL     1      33.819 -11.472 -24.504  0.00  0.00    +0.226 C 
ENDBRANCH   1  12
BRANCH   1  13
ATOM     13  C   UNL     1      33.091 -13.810 -24.916  0.00  0.00    +0.112 C 
BRANCH  13  15
ATOM     14  O   UNL     1      32.706 -12.882 -27.138  0.00  0.00    -0.250 OA
ATOM     15  C   UNL     1      33.174 -13.771 -26.437  0.00  0.00    +0.314 C 
BRANCH  15  16
ATOM     16  O   UNL     1      33.806 -14.857 -26.951  0.00  0.00    -0.480 OA
ATOM     17  H   UNL     1      33.476 -15.267 -27.727  0.00  0.00    +0.295 HD
ENDBRANCH  15  16
ENDBRANCH  13  15
BRANCH  13  18
ATOM     18  C   UNL     1      33.259 -15.259 -24.412  0.00  0.00    +0.038 C 
BRANCH  18  19
ATOM     19  C   UNL     1      33.521 -15.346 -22.926  0.00  0.00    -0.022 C 
ATOM     20  C   UNL     1      34.660 -15.991 -22.475  0.00  0.00    -0.004 C 
ATOM     21  C   UNL     1      32.616 -14.779 -22.044  0.00  0.00    -0.004 C 
ATOM     22  C   UNL     1      34.902 -16.072 -21.104  0.00  0.00    -0.000 C 
ATOM     23  C   UNL     1      32.857 -14.860 -20.673  0.00  0.00    -0.000 C 
ATOM     24  C   UNL     1      34.000 -15.506 -20.203  0.00  0.00    -0.000 C 
ENDBRANCH  18  19
ENDBRANCH  13  18
ENDBRANCH   1  13
TORSDOF 6
ENDMDL
MODEL 7
REMARK VINA RESULT:      -8.6      9.518     13.903
REMARK  Name = 121891
REMARK  6 active torsions:
REMARK  status: ('A' for Active; 'I' for Inactive)
REMARK    1  A    between atoms: C_1  and  C_12
REMARK    2  A    between atoms: C_1  and  C_13
REMARK    3  A    between atoms: C_13  and  C_15
REMARK    4  A    between atoms: C_13  and  C_18
REMARK    5  A    between atoms: C_15  and  O_16
REMARK    6  A    between atoms: C_18  and  C_19
REMARK                            x       y       z     vdW  Elec       q    Type
REMARK                         _______ _______ _______ _____ _____    ______ ____
ROOT
ATOM      1  C   UNL     1      33.821 -12.309 -24.477  0.00  0.00    +0.097 C 
ENDROOT
BRANCH   1  12
ATOM      2  O   UNL     1      32.064 -12.174 -22.874  0.00  0.00    -0.275 OA
ATOM      3  N   UNL     1      33.228 -10.231 -23.330  0.00  0.00    -0.280 N 
ATOM      4  C   UNL     1      32.855  -7.957 -22.800  0.00  0.00    +0.022 C 
ATOM      5  C   UNL     1      34.302  -8.127 -23.291  0.00  0.00    +0.022 C 
ATOM      6  C   UNL     1      32.479  -9.386 -22.406  0.00  0.00    +0.093 C 
ATOM      7  C   UNL     1      34.259  -9.466 -24.030  0.00  0.00    +0.093 C 
ATOM      8  C   UNL     1      31.911  -7.408 -23.880  0.00  0.00    +0.002 C 
ATOM      9  C   UNL     1      34.831  -6.957 -24.115  0.00  0.00    +0.002 C 
ATOM     10  C   UNL     1      32.479  -6.164 -24.551  0.00  0.00    +0.000 C 
ATOM     11  C   UNL     1      33.847  -6.447 -25.163  0.00  0.00    +0.000 C 
ATOM     12  C   UNL     1      32.950 -11.576 -23.487  0.00  0.00    +0.226 C 
ENDBRANCH   1  12
BRANCH   1  13
ATOM     13  C   UNL     1      33.211 -13.677 -24.785  0.00  0.00    +0.112 C 
BRANCH  13  15
ATOM     14  O   UNL     1      32.649 -12.931 -27.037  0.00  0.00    -0.250 OA
ATOM     15  C   UNL     1      33.059 -13.814 -26.294  0.00  0.00    +0.314 C 
BRANCH  15  16
ATOM     16  O   UNL     1      33.400 -15.050 -26.741  0.00  0.00    -0.480 OA
ATOM     17  H   UNL     1      33.623 -15.178 -27.643  0.00  0.00    +0.295 HD
ENDBRANCH  15  16
ENDBRANCH  13  15
BRANCH  13  18
ATOM     18  C   UNL     1      34.121 -14.797 -24.238  0.00  0.00    +0.038 C 
BRANCH  18  19
ATOM     19  C   UNL     1      33.874 -15.107 -22.780  0.00  0.00    -0.022 C 
ATOM     20  C   UNL     1      32.597 -14.963 -22.263  0.00  0.00    -0.004 C 
ATOM     21  C   UNL     1      34.929 -15.529 -21.989  0.00  0.00    -0.004 C 
ATOM     22  C   UNL     1      32.368 -15.249 -20.917  0.00  0.00    -0.000 C 
ATOM     23  C   UNL     1      34.701 -15.815 -20.643  0.00  0.00    -0.000 C 
ATOM     24  C   UNL     1      33.421 -15.675 -20.107  0.00  0.00    -0.000 C 
ENDBRANCH  18  19
ENDBRANCH  13  18
ENDBRANCH   1  13
TORSDOF 6
ENDMDL
MODEL 8
REMARK VINA RESULT:      -8.6     10.900     14.709
REMARK  Name = 121891
REMARK  6 active torsions:
REMARK  status: ('A' for Active; 'I' for Inactive)
REMARK    1  A    between atoms: C_1  and  C_12
REMARK    2  A    between atoms: C_1  and  C_13
REMARK    3  A    between atoms: C_13  and  C_15
REMARK    4  A    between atoms: C_13  and  C_18
REMARK    5  A    between atoms: C_15  and  O_16
REMARK    6  A    between atoms: C_18  and  C_19
REMARK                            x       y       z     vdW  Elec       q    Type
REMARK                         _______ _______ _______ _____ _____    ______ ____
ROOT
ATOM      1  C   UNL     1      31.282 -11.109 -22.117  0.00  0.00    +0.097 C 
ENDROOT
BRANCH   1  12
ATOM      2  O   UNL     1      31.663 -10.265 -19.922  0.00  0.00    -0.275 OA
ATOM      3  N   UNL     1      32.061  -8.829 -21.688  0.00  0.00    -0.280 N 
ATOM      4  C   UNL     1      32.459  -6.502 -21.826  0.00  0.00    +0.022 C 
ATOM      5  C   UNL     1      32.832  -7.156 -23.168  0.00  0.00    +0.022 C 
ATOM      6  C   UNL     1      32.480  -7.696 -20.871  0.00  0.00    +0.093 C 
ATOM      7  C   UNL     1      32.097  -8.498 -23.112  0.00  0.00    +0.093 C 
ATOM      8  C   UNL     1      31.080  -5.826 -21.847  0.00  0.00    +0.002 C 
ATOM      9  C   UNL     1      32.519  -6.304 -24.394  0.00  0.00    +0.002 C 
ATOM     10  C   UNL     1      30.921  -4.898 -23.044  0.00  0.00    +0.000 C 
ATOM     11  C   UNL     1      31.142  -5.649 -24.353  0.00  0.00    +0.000 C 
ATOM     12  C   UNL     1      31.682 -10.037 -21.133  0.00  0.00    +0.226 C 
ENDBRANCH   1  12
BRANCH   1  13
ATOM     13  C   UNL     1      32.472 -12.031 -22.385  0.00  0.00    +0.112 C 
BRANCH  13  15
ATOM     14  O   UNL     1      32.149 -14.425 -22.049  0.00  0.00    -0.250 OA
ATOM     15  C   UNL     1      32.293 -13.306 -21.571  0.00  0.00    +0.314 C 
BRANCH  15  16
ATOM     16  O   UNL     1      32.279 -13.071 -20.234  0.00  0.00    -0.480 OA
ATOM     17  H   UNL     1      32.882 -12.459 -19.859  0.00  0.00    +0.295 HD
ENDBRANCH  15  16
ENDBRANCH  13  15
BRANCH  13  18
ATOM     18  C   UNL     1      32.552 -12.368 -23.889  0.00  0.00    +0.038 C 
BRANCH  18  19
ATOM     19  C   UNL     1      33.633 -11.601 -24.615  0.00  0.00    -0.022 C 
ATOM     20  C   UNL     1      34.278 -10.561 -23.967  0.00  0.00    -0.004 C 
ATOM     21  C   UNL     1      33.958 -11.954 -25.914  0.00  0.00    -0.004 C 
ATOM     22  C   UNL     1      35.276  -9.852 -24.636  0.00  0.00    -0.000 C 
ATOM     23  C   UNL     1      34.956 -11.246 -26.584  0.00  0.00    -0.000 C 
ATOM     24  C   UNL     1      35.615 -10.195 -25.945  0.00  0.00    -0.000 C 
ENDBRANCH  18  19
ENDBRANCH  13  18
ENDBRANCH   1  13
TORSDOF 6
ENDMDL
MODEL 9
REMARK VINA RESULT:      -8.6     10.559     13.996
REMARK  Name = 121891
REMARK  6 active torsions:
REMARK  status: ('A' for Active; 'I' for Inactive)
REMARK    1  A    between atoms: C_1  and  C_12
REMARK    2  A    between atoms: C_1  and  C_13
REMARK    3  A    between atoms: C_13  and  C_15
REMARK    4  A    between atoms: C_13  and  C_18
REMARK    5  A    between atoms: C_15  and  O_16
REMARK    6  A    between atoms: C_18  and  C_19
REMARK                            x       y       z     vdW  Elec       q    Type
REMARK                         _______ _______ _______ _____ _____    ______ ____
ROOT
ATOM      1  C   UNL     1      32.994 -10.301 -23.704  0.00  0.00    +0.097 C 
ENDROOT
BRANCH   1  12
ATOM      2  O   UNL     1      31.774 -10.321 -21.657  0.00  0.00    -0.275 OA
ATOM      3  N   UNL     1      32.481 -12.359 -22.484  0.00  0.00    -0.280 N 
ATOM      4  C   UNL     1      32.571 -14.537 -21.566  0.00  0.00    +0.022 C 
ATOM      5  C   UNL     1      32.767 -14.625 -23.089  0.00  0.00    +0.022 C 
ATOM      6  C   UNL     1      31.916 -13.164 -21.406  0.00  0.00    +0.093 C 
ATOM      7  C   UNL     1      33.165 -13.197 -23.468  0.00  0.00    +0.093 C 
ATOM      8  C   UNL     1      33.888 -14.624 -20.782  0.00  0.00    +0.002 C 
ATOM      9  C   UNL     1      33.747 -15.705 -23.538  0.00  0.00    +0.002 C 
ATOM     10  C   UNL     1      34.733 -15.813 -21.221  0.00  0.00    +0.000 C 
ATOM     11  C   UNL     1      35.030 -15.751 -22.715  0.00  0.00    +0.000 C 
ATOM     12  C   UNL     1      32.358 -10.983 -22.517  0.00  0.00    +0.226 C 
ENDBRANCH   1  12
BRANCH   1  13
ATOM     13  C   UNL     1      33.159  -8.809 -23.412  0.00  0.00    +0.112 C 
BRANCH  13  15
ATOM     14  O   UNL     1      35.052  -7.281 -23.587  0.00  0.00    -0.250 OA
ATOM     15  C   UNL     1      34.610  -8.421 -23.666  0.00  0.00    +0.314 C 
BRANCH  15  16
ATOM     16  O   UNL     1      35.377  -9.482 -24.028  0.00  0.00    -0.480 OA
ATOM     17  H   UNL     1      35.454 -10.221 -23.456  0.00  0.00    +0.295 HD
ENDBRANCH  15  16
ENDBRANCH  13  15
BRANCH  13  18
ATOM     18  C   UNL     1      32.222  -7.985 -24.320  0.00  0.00    +0.038 C 
BRANCH  18  19
ATOM     19  C   UNL     1      31.748  -6.702 -23.679  0.00  0.00    -0.022 C 
ATOM     20  C   UNL     1      31.278  -6.728 -22.376  0.00  0.00    -0.004 C 
ATOM     21  C   UNL     1      31.791  -5.525 -24.406  0.00  0.00    -0.004 C 
ATOM     22  C   UNL     1      30.840  -5.544 -21.783  0.00  0.00    -0.000 C 
ATOM     23  C   UNL     1      31.354  -4.340 -23.814  0.00  0.00    -0.000 C 
ATOM     24  C   UNL     1      30.878  -4.350 -22.503  0.00  0.00    -0.000 C 
ENDBRANCH  18  19
ENDBRANCH  13  18
ENDBRANCH   1  13
TORSDOF 6
ENDMDL
