MODEL 1
REMARK VINA RESULT:      -8.6      0.000      0.000
REMARK  Name = 3457
REMARK  6 active torsions:
REMARK  status: ('A' for Active; 'I' for Inactive)
REMARK    1  A    between atoms: N_3  and  C_22
REMARK    2  A    between atoms: C_5  and  C_13
REMARK    3  A    between atoms: C_6  and  C_10
REMARK    4  A    between atoms: C_13  and  C_14
REMARK    5  A    between atoms: C_22  and  O_23
REMARK    6  A    between atoms: O_23  and  C_24
REMARK                            x       y       z     vdW  Elec       q    Type
REMARK                         _______ _______ _______ _____ _____    ______ ____
ROOT
ATOM      1  O   UNL     1      35.399 -16.642 -21.450  0.00  0.00    -0.267 OA
ATOM      2  O   UNL     1      34.892 -17.089 -25.969  0.00  0.00    -0.246 OA
ATOM      3  N   UNL     1      33.600 -15.476 -24.879  0.00  0.00    -0.259 N 
ATOM      4  N   UNL     1      35.137 -16.833 -23.719  0.00  0.00    -0.275 N 
ATOM      5  C   UNL     1      33.255 -14.842 -23.676  0.00  0.00    +0.048 A 
ATOM      6  C   UNL     1      33.847 -15.175 -22.508  0.00  0.00    +0.046 A 
ATOM      7  C   UNL     1      34.861 -16.271 -22.491  0.00  0.00    +0.258 A 
ATOM      8  C   UNL     1      34.560 -16.501 -24.938  0.00  0.00    +0.332 A 
ATOM      9  H   UNL     1      35.817 -17.546 -23.733  0.00  0.00    +0.173 HD
ENDROOT
BRANCH   6  10
ATOM     10  C   UNL     1      33.604 -14.520 -21.174  0.00  0.00    +0.028 C 
ATOM     11  C   UNL     1      32.527 -15.279 -20.408  0.00  0.00    +0.005 C 
ATOM     12  C   UNL     1      34.896 -14.442 -20.372  0.00  0.00    +0.005 C 
ENDBRANCH   6  10
BRANCH   5  13
ATOM     13  C   UNL     1      32.179 -13.779 -23.746  0.00  0.00    +0.070 C 
BRANCH  13  14
ATOM     14  C   UNL     1      32.754 -12.397 -23.704  0.00  0.00    -0.017 C 
ATOM     15  C   UNL     1      33.784 -12.050 -24.573  0.00  0.00    -0.008 C 
ATOM     16  C   UNL     1      32.252 -11.467 -22.798  0.00  0.00    -0.008 C 
ATOM     17  C   UNL     1      34.319 -10.763 -24.535  0.00  0.00    -0.022 C 
ATOM     18  C   UNL     1      32.787 -10.179 -22.760  0.00  0.00    -0.022 C 
ATOM     19  C   UNL     1      33.819  -9.827 -23.629  0.00  0.00    -0.009 C 
ATOM     20  C   UNL     1      35.423 -10.385 -25.464  0.00  0.00    +0.031 C 
ATOM     21  C   UNL     1      32.252  -9.179 -21.791  0.00  0.00    +0.031 C 
ENDBRANCH  13  14
ENDBRANCH   5  13
BRANCH   3  22
ATOM     22  C   UNL     1      32.937 -15.056 -26.115  0.00  0.00    +0.259 C 
BRANCH  22  23
ATOM     23  O   UNL     1      33.928 -14.646 -27.045  0.00  0.00    -0.332 OA
BRANCH  23  24
ATOM     24  C   UNL     1      33.683 -13.331 -27.523  0.00  0.00    +0.145 C 
ATOM     25  C   UNL     1      32.194 -13.057 -27.472  0.00  0.00    +0.035 C 
ENDBRANCH  23  24
ENDBRANCH  22  23
ENDBRANCH   3  22
TORSDOF 6
ENDMDL
MODEL 2
REMARK VINA RESULT:      -8.6      0.033      1.749
REMARK  Name = 3457
REMARK  6 active torsions:
REMARK  status: ('A' for Active; 'I' for Inactive)
REMARK    1  A    between atoms: N_3  and  C_22
REMARK    2  A    between atoms: C_5  and  C_13
REMARK    3  A    between atoms: C_6  and  C_10
REMARK    4  A    between atoms: C_13  and  C_14
REMARK    5  A    between atoms: C_22  and  O_23
REMARK    6  A    between atoms: O_23  and  C_24
REMARK                            x       y       z     vdW  Elec       q    Type
REMARK                         _______ _______ _______ _____ _____    ______ ____
ROOT
ATOM      1  O   UNL     1      35.402 -16.638 -21.434  0.00  0.00    -0.267 OA
ATOM      2  O   UNL     1      34.924 -17.075 -25.957  0.00  0.00    -0.246 OA
ATOM      3  N   UNL     1      33.613 -15.475 -24.869  0.00  0.00    -0.259 N 
ATOM      4  N   UNL     1      35.154 -16.824 -23.704  0.00  0.00    -0.275 N 
ATOM      5  C   UNL     1      33.256 -14.847 -23.666  0.00  0.00    +0.048 A 
ATOM      6  C   UNL     1      33.845 -15.180 -22.496  0.00  0.00    +0.046 A 
ATOM      7  C   UNL     1      34.866 -16.267 -22.477  0.00  0.00    +0.258 A 
ATOM      8  C   UNL     1      34.581 -16.492 -24.926  0.00  0.00    +0.332 A 
ATOM      9  H   UNL     1      35.840 -17.531 -23.717  0.00  0.00    +0.173 HD
ENDROOT
BRANCH   6  10
ATOM     10  C   UNL     1      33.588 -14.531 -21.162  0.00  0.00    +0.028 C 
ATOM     11  C   UNL     1      32.514 -15.302 -20.404  0.00  0.00    +0.005 C 
ATOM     12  C   UNL     1      34.876 -14.444 -20.352  0.00  0.00    +0.005 C 
ENDBRANCH   6  10
BRANCH   5  13
ATOM     13  C   UNL     1      32.172 -13.793 -23.739  0.00  0.00    +0.070 C 
BRANCH  13  14
ATOM     14  C   UNL     1      32.736 -12.407 -23.686  0.00  0.00    -0.017 C 
ATOM     15  C   UNL     1      32.226 -11.487 -22.775  0.00  0.00    -0.008 C 
ATOM     16  C   UNL     1      33.769 -12.048 -24.547  0.00  0.00    -0.008 C 
ATOM     17  C   UNL     1      32.752 -10.196 -22.725  0.00  0.00    -0.022 C 
ATOM     18  C   UNL     1      34.296 -10.757 -24.497  0.00  0.00    -0.022 C 
ATOM     19  C   UNL     1      33.787  -9.832 -23.586  0.00  0.00    -0.009 C 
ATOM     20  C   UNL     1      32.209  -9.206 -21.751  0.00  0.00    +0.031 C 
ATOM     21  C   UNL     1      35.404 -10.368 -25.417  0.00  0.00    +0.031 C 
ENDBRANCH  13  14
ENDBRANCH   5  13
BRANCH   3  22
ATOM     22  C   UNL     1      32.954 -15.057 -26.107  0.00  0.00    +0.259 C 
BRANCH  22  23
ATOM     23  O   UNL     1      33.948 -14.648 -27.035  0.00  0.00    -0.332 OA
BRANCH  23  24
ATOM     24  C   UNL     1      33.701 -13.336 -27.521  0.00  0.00    +0.145 C 
ATOM     25  C   UNL     1      32.212 -13.063 -27.467  0.00  0.00    +0.035 C 
ENDBRANCH  23  24
ENDBRANCH  22  23
ENDBRANCH   3  22
TORSDOF 6
ENDMDL
MODEL 3
REMARK VINA RESULT:      -8.0      9.089     12.162
REMARK  Name = 3457
REMARK  6 active torsions:
REMARK  status: ('A' for Active; 'I' for Inactive)
REMARK    1  A    between atoms: N_3  and  C_22
REMARK    2  A    between atoms: C_5  and  C_13
REMARK    3  A    between atoms: C_6  and  C_10
REMARK    4  A    between atoms: C_13  and  C_14
REMARK    5  A    between atoms: C_22  and  O_23
REMARK    6  A    between atoms: O_23  and  C_24
REMARK                            x       y       z     vdW  Elec       q    Type
REMARK                         _______ _______ _______ _____ _____    ______ ____
ROOT
ATOM      1  O   UNL     1      35.113 -23.539 -13.293  0.00  0.00    -0.267 OA
ATOM      2  O   UNL     1      30.741 -22.395 -13.971  0.00  0.00    -0.246 OA
ATOM      3  N   UNL     1      31.982 -23.114 -15.816  0.00  0.00    -0.259 N 
ATOM      4  N   UNL     1      32.919 -22.988 -13.658  0.00  0.00    -0.275 N 
ATOM      5  C   UNL     1      33.209 -23.572 -16.320  0.00  0.00    +0.048 A 
ATOM      6  C   UNL     1      34.277 -23.758 -15.514  0.00  0.00    +0.046 A 
ATOM      7  C   UNL     1      34.161 -23.428 -14.063  0.00  0.00    +0.258 A 
ATOM      8  C   UNL     1      31.798 -22.805 -14.458  0.00  0.00    +0.332 A 
ATOM      9  H   UNL     1      32.815 -22.782 -12.701  0.00  0.00    +0.173 HD
ENDROOT
BRANCH   6  10
ATOM     10  C   UNL     1      35.616 -24.304 -15.932  0.00  0.00    +0.028 C 
ATOM     11  C   UNL     1      36.708 -23.277 -15.659  0.00  0.00    +0.005 C 
ATOM     12  C   UNL     1      35.907 -25.617 -15.215  0.00  0.00    +0.005 C 
ENDBRANCH   6  10
BRANCH   5  13
ATOM     13  C   UNL     1      33.282 -23.834 -17.809  0.00  0.00    +0.070 C 
BRANCH  13  14
ATOM     14  C   UNL     1      33.792 -22.644 -18.562  0.00  0.00    -0.017 C 
ATOM     15  C   UNL     1      35.162 -22.415 -18.648  0.00  0.00    -0.008 C 
ATOM     16  C   UNL     1      32.892 -21.775 -19.173  0.00  0.00    -0.008 C 
ATOM     17  C   UNL     1      35.637 -21.307 -19.350  0.00  0.00    -0.022 C 
ATOM     18  C   UNL     1      33.367 -20.668 -19.876  0.00  0.00    -0.022 C 
ATOM     19  C   UNL     1      34.739 -20.434 -19.964  0.00  0.00    -0.009 C 
ATOM     20  C   UNL     1      37.104 -21.057 -19.446  0.00  0.00    +0.031 C 
ATOM     21  C   UNL     1      32.406 -19.734 -20.532  0.00  0.00    +0.031 C 
ENDBRANCH  13  14
ENDBRANCH   5  13
BRANCH   3  22
ATOM     22  C   UNL     1      30.855 -22.953 -16.737  0.00  0.00    +0.259 C 
BRANCH  22  23
ATOM     23  O   UNL     1      29.820 -23.842 -16.348  0.00  0.00    -0.332 OA
BRANCH  23  24
ATOM     24  C   UNL     1      28.565 -23.450 -16.888  0.00  0.00    +0.145 C 
ATOM     25  C   UNL     1      27.831 -22.606 -15.868  0.00  0.00    +0.035 C 
ENDBRANCH  23  24
ENDBRANCH  22  23
ENDBRANCH   3  22
TORSDOF 6
ENDMDL
MODEL 4
REMARK VINA RESULT:      -7.9      9.210     12.289
REMARK  Name = 3457
REMARK  6 active torsions:
REMARK  status: ('A' for Active; 'I' for Inactive)
REMARK    1  A    between atoms: N_3  and  C_22
REMARK    2  A    between atoms: C_5  and  C_13
REMARK    3  A    between atoms: C_6  and  C_10
REMARK    4  A    between atoms: C_13  and  C_14
REMARK    5  A    between atoms: C_22  and  O_23
REMARK    6  A    between atoms: O_23  and  C_24
REMARK                            x       y       z     vdW  Elec       q    Type
REMARK                         _______ _______ _______ _____ _____    ______ ____
ROOT
ATOM      1  O   UNL     1      35.264 -23.492 -13.253  0.00  0.00    -0.267 OA
ATOM      2  O   UNL     1      30.828 -22.553 -13.819  0.00  0.00    -0.246 OA
ATOM      3  N   UNL     1      32.051 -23.226 -15.693  0.00  0.00    -0.259 N 
ATOM      4  N   UNL     1      33.038 -23.044 -13.562  0.00  0.00    -0.275 N 
ATOM      5  C   UNL     1      33.283 -23.631 -16.228  0.00  0.00    +0.048 A 
ATOM      6  C   UNL     1      34.380 -23.763 -15.449  0.00  0.00    +0.046 A 
ATOM      7  C   UNL     1      34.287 -23.430 -13.997  0.00  0.00    +0.258 A 
ATOM      8  C   UNL     1      31.888 -22.917 -14.332  0.00  0.00    +0.332 A 
ATOM      9  H   UNL     1      32.950 -22.837 -12.603  0.00  0.00    +0.173 HD
ENDROOT
BRANCH   6  10
ATOM     10  C   UNL     1      35.731 -24.250 -15.901  0.00  0.00    +0.028 C 
ATOM     11  C   UNL     1      36.791 -23.196 -15.607  0.00  0.00    +0.005 C 
ATOM     12  C   UNL     1      36.074 -25.575 -15.231  0.00  0.00    +0.005 C 
ENDBRANCH   6  10
BRANCH   5  13
ATOM     13  C   UNL     1      33.329 -23.898 -17.717  0.00  0.00    +0.070 C 
BRANCH  13  14
ATOM     14  C   UNL     1      33.815 -22.707 -18.484  0.00  0.00    -0.017 C 
ATOM     15  C   UNL     1      32.898 -21.856 -19.094  0.00  0.00    -0.008 C 
ATOM     16  C   UNL     1      35.181 -22.457 -18.580  0.00  0.00    -0.008 C 
ATOM     17  C   UNL     1      33.351 -20.746 -19.807  0.00  0.00    -0.022 C 
ATOM     18  C   UNL     1      35.634 -21.347 -19.293  0.00  0.00    -0.022 C 
ATOM     19  C   UNL     1      34.719 -20.492 -19.906  0.00  0.00    -0.009 C 
ATOM     20  C   UNL     1      32.373 -19.831 -20.463  0.00  0.00    +0.031 C 
ATOM     21  C   UNL     1      37.097 -21.074 -19.398  0.00  0.00    +0.031 C 
ENDBRANCH  13  14
ENDBRANCH   5  13
BRANCH   3  22
ATOM     22  C   UNL     1      30.894 -23.122 -16.585  0.00  0.00    +0.259 C 
BRANCH  22  23
ATOM     23  O   UNL     1      30.042 -24.234 -16.355  0.00  0.00    -0.332 OA
BRANCH  23  24
ATOM     24  C   UNL     1      28.681 -23.909 -16.604  0.00  0.00    +0.145 C 
ATOM     25  C   UNL     1      28.496 -22.413 -16.454  0.00  0.00    +0.035 C 
ENDBRANCH  23  24
ENDBRANCH  22  23
ENDBRANCH   3  22
TORSDOF 6
ENDMDL
MODEL 5
REMARK VINA RESULT:      -7.7     10.141     13.529
REMARK  Name = 3457
REMARK  6 active torsions:
REMARK  status: ('A' for Active; 'I' for Inactive)
REMARK    1  A    between atoms: N_3  and  C_22
REMARK    2  A    between atoms: C_5  and  C_13
REMARK    3  A    between atoms: C_6  and  C_10
REMARK    4  A    between atoms: C_13  and  C_14
REMARK    5  A    between atoms: C_22  and  O_23
REMARK    6  A    between atoms: O_23  and  C_24
REMARK                            x       y       z     vdW  Elec       q    Type
REMARK                         _______ _______ _______ _____ _____    ______ ____
ROOT
ATOM      1  O   UNL     1      30.950 -23.850 -16.303  0.00  0.00    -0.267 OA
ATOM      2  O   UNL     1      33.998 -23.089 -19.621  0.00  0.00    -0.246 OA
ATOM      3  N   UNL     1      34.691 -22.787 -17.409  0.00  0.00    -0.259 N 
ATOM      4  N   UNL     1      32.503 -23.477 -17.946  0.00  0.00    -0.275 N 
ATOM      5  C   UNL     1      34.367 -22.827 -16.045  0.00  0.00    +0.048 A 
ATOM      6  C   UNL     1      33.140 -23.203 -15.622  0.00  0.00    +0.046 A 
ATOM      7  C   UNL     1      32.094 -23.542 -16.632  0.00  0.00    +0.258 A 
ATOM      8  C   UNL     1      33.761 -23.114 -18.411  0.00  0.00    +0.332 A 
ATOM      9  H   UNL     1      31.834 -23.715 -18.628  0.00  0.00    +0.173 HD
ENDROOT
BRANCH   6  10
ATOM     10  C   UNL     1      32.703 -23.344 -14.188  0.00  0.00    +0.028 C 
ATOM     11  C   UNL     1      31.447 -22.518 -13.941  0.00  0.00    +0.005 C 
ATOM     12  C   UNL     1      32.472 -24.810 -13.841  0.00  0.00    +0.005 C 
ENDBRANCH   6  10
BRANCH   5  13
ATOM     13  C   UNL     1      35.451 -22.416 -15.071  0.00  0.00    +0.070 C 
BRANCH  13  14
ATOM     14  C   UNL     1      35.892 -23.559 -14.210  0.00  0.00    -0.017 C 
ATOM     15  C   UNL     1      36.471 -24.682 -14.794  0.00  0.00    -0.008 C 
ATOM     16  C   UNL     1      35.723 -23.490 -12.830  0.00  0.00    -0.008 C 
ATOM     17  C   UNL     1      36.883 -25.745 -13.991  0.00  0.00    -0.022 C 
ATOM     18  C   UNL     1      36.136 -24.554 -12.028  0.00  0.00    -0.022 C 
ATOM     19  C   UNL     1      36.716 -25.681 -12.608  0.00  0.00    -0.009 C 
ATOM     20  C   UNL     1      37.504 -26.952 -14.612  0.00  0.00    +0.031 C 
ATOM     21  C   UNL     1      35.957 -24.484 -10.548  0.00  0.00    +0.031 C 
ENDBRANCH  13  14
ENDBRANCH   5  13
BRANCH   3  22
ATOM     22  C   UNL     1      36.044 -22.392 -17.803  0.00  0.00    +0.259 C 
BRANCH  22  23
ATOM     23  O   UNL     1      35.993 -21.085 -18.356  0.00  0.00    -0.332 OA
BRANCH  23  24
ATOM     24  C   UNL     1      36.609 -21.036 -19.636  0.00  0.00    +0.145 C 
ATOM     25  C   UNL     1      35.740 -20.218 -20.570  0.00  0.00    +0.035 C 
ENDBRANCH  23  24
ENDBRANCH  22  23
ENDBRANCH   3  22
TORSDOF 6
ENDMDL
MODEL 6
REMARK VINA RESULT:      -7.6      8.742     12.010
REMARK  Name = 3457
REMARK  6 active torsions:
REMARK  status: ('A' for Active; 'I' for Inactive)
REMARK    1  A    between atoms: N_3  and  C_22
REMARK    2  A    between atoms: C_5  and  C_13
REMARK    3  A    between atoms: C_6  and  C_10
REMARK    4  A    between atoms: C_13  and  C_14
REMARK    5  A    between atoms: C_22  and  O_23
REMARK    6  A    between atoms: O_23  and  C_24
REMARK                            x       y       z     vdW  Elec       q    Type
REMARK                         _______ _______ _______ _____ _____    ______ ____
ROOT
ATOM      1  O   UNL     1      37.580 -22.492 -15.186  0.00  0.00    -0.267 OA
ATOM      2  O   UNL     1      36.343 -20.708 -19.207  0.00  0.00    -0.246 OA
ATOM      3  N   UNL     1      34.942 -22.312 -18.245  0.00  0.00    -0.259 N 
ATOM      4  N   UNL     1      36.927 -21.602 -17.194  0.00  0.00    -0.275 N 
ATOM      5  C   UNL     1      34.690 -23.185 -17.176  0.00  0.00    +0.048 A 
ATOM      6  C   UNL     1      35.526 -23.262 -16.117  0.00  0.00    +0.046 A 
ATOM      7  C   UNL     1      36.765 -22.430 -16.105  0.00  0.00    +0.258 A 
ATOM      8  C   UNL     1      36.078 -21.486 -18.288  0.00  0.00    +0.332 A 
ATOM      9  H   UNL     1      37.729 -21.030 -17.198  0.00  0.00    +0.173 HD
ENDROOT
BRANCH   6  10
ATOM     10  C   UNL     1      35.323 -24.110 -14.890  0.00  0.00    +0.028 C 
ATOM     11  C   UNL     1      36.086 -25.422 -15.030  0.00  0.00    +0.005 C 
ATOM     12  C   UNL     1      35.755 -23.355 -13.639  0.00  0.00    +0.005 C 
ENDBRANCH   6  10
BRANCH   5  13
ATOM     13  C   UNL     1      33.448 -24.046 -17.272  0.00  0.00    +0.070 C 
BRANCH  13  14
ATOM     14  C   UNL     1      32.356 -23.554 -16.374  0.00  0.00    -0.017 C 
ATOM     15  C   UNL     1      31.115 -23.224 -16.911  0.00  0.00    -0.008 C 
ATOM     16  C   UNL     1      32.588 -23.433 -15.007  0.00  0.00    -0.008 C 
ATOM     17  C   UNL     1      30.097 -22.767 -16.074  0.00  0.00    -0.022 C 
ATOM     18  C   UNL     1      31.569 -22.976 -14.170  0.00  0.00    -0.022 C 
ATOM     19  C   UNL     1      30.325 -22.644 -14.703  0.00  0.00    -0.009 C 
ATOM     20  C   UNL     1      28.765 -22.412 -16.644  0.00  0.00    +0.031 C 
ATOM     21  C   UNL     1      31.813 -22.844 -12.703  0.00  0.00    +0.031 C 
ENDBRANCH  13  14
ENDBRANCH   5  13
BRANCH   3  22
ATOM     22  C   UNL     1      33.988 -22.260 -19.354  0.00  0.00    +0.259 C 
BRANCH  22  23
ATOM     23  O   UNL     1      33.170 -21.110 -19.196  0.00  0.00    -0.332 OA
BRANCH  23  24
ATOM     24  C   UNL     1      32.747 -20.593 -20.451  0.00  0.00    +0.145 C 
ATOM     25  C   UNL     1      33.733 -19.538 -20.907  0.00  0.00    +0.035 C 
ENDBRANCH  23  24
ENDBRANCH  22  23
ENDBRANCH   3  22
TORSDOF 6
ENDMDL
MODEL 7
REMARK VINA RESULT:      -7.5      1.613      4.026
REMARK  Name = 3457
REMARK  6 active torsions:
REMARK  status: ('A' for Active; 'I' for Inactive)
REMARK    1  A    between atoms: N_3  and  C_22
REMARK    2  A    between atoms: C_5  and  C_13
REMARK    3  A    between atoms: C_6  and  C_10
REMARK    4  A    between atoms: C_13  and  C_14
REMARK    5  A    between atoms: C_22  and  O_23
REMARK    6  A    between atoms: O_23  and  C_24
REMARK                            x       y       z     vdW  Elec       q    Type
REMARK                         _______ _______ _______ _____ _____    ______ ____
ROOT
ATOM      1  O   UNL     1      34.391 -16.518 -25.847  0.00  0.00    -0.267 OA
ATOM      2  O   UNL     1      35.063 -15.729 -21.397  0.00  0.00    -0.246 OA
ATOM      3  N   UNL     1      33.740 -14.215 -22.588  0.00  0.00    -0.259 N 
ATOM      4  N   UNL     1      34.698 -16.108 -23.614  0.00  0.00    -0.275 N 
ATOM      5  C   UNL     1      33.163 -13.845 -23.812  0.00  0.00    +0.048 A 
ATOM      6  C   UNL     1      33.327 -14.596 -24.924  0.00  0.00    +0.046 A 
ATOM      7  C   UNL     1      34.175 -15.823 -24.857  0.00  0.00    +0.258 A 
ATOM      8  C   UNL     1      34.533 -15.367 -22.449  0.00  0.00    +0.332 A 
ATOM      9  H   UNL     1      35.246 -16.923 -23.543  0.00  0.00    +0.173 HD
ENDROOT
BRANCH   6  10
ATOM     10  C   UNL     1      32.703 -14.332 -26.269  0.00  0.00    +0.028 C 
ATOM     11  C   UNL     1      33.689 -13.591 -27.164  0.00  0.00    +0.005 C 
ATOM     12  C   UNL     1      32.249 -15.636 -26.914  0.00  0.00    +0.005 C 
ENDBRANCH   6  10
BRANCH   5  13
ATOM     13  C   UNL     1      32.362 -12.561 -23.832  0.00  0.00    +0.070 C 
BRANCH  13  14
ATOM     14  C   UNL     1      33.234 -11.362 -24.046  0.00  0.00    -0.017 C 
ATOM     15  C   UNL     1      34.217 -11.390 -25.030  0.00  0.00    -0.008 C 
ATOM     16  C   UNL     1      33.052 -10.227 -23.262  0.00  0.00    -0.008 C 
ATOM     17  C   UNL     1      35.027 -10.272 -25.231  0.00  0.00    -0.022 C 
ATOM     18  C   UNL     1      33.862  -9.109 -23.464  0.00  0.00    -0.022 C 
ATOM     19  C   UNL     1      34.849  -9.132 -24.448  0.00  0.00    -0.009 C 
ATOM     20  C   UNL     1      36.084 -10.296 -26.284  0.00  0.00    +0.031 C 
ATOM     21  C   UNL     1      33.671  -7.889 -22.626  0.00  0.00    +0.031 C 
ENDBRANCH  13  14
ENDBRANCH   5  13
BRANCH   3  22
ATOM     22  C   UNL     1      33.509 -13.371 -21.414  0.00  0.00    +0.259 C 
BRANCH  22  23
ATOM     23  O   UNL     1      32.117 -13.346 -21.140  0.00  0.00    -0.332 OA
BRANCH  23  24
ATOM     24  C   UNL     1      31.782 -12.302 -20.237  0.00  0.00    +0.145 C 
ATOM     25  C   UNL     1      30.728 -11.419 -20.872  0.00  0.00    +0.035 C 
ENDBRANCH  23  24
ENDBRANCH  22  23
ENDBRANCH   3  22
TORSDOF 6
ENDMDL
MODEL 8
REMARK VINA RESULT:      -7.3      9.399     12.643
REMARK  Name = 3457
REMARK  6 active torsions:
REMARK  status: ('A' for Active; 'I' for Inactive)
REMARK    1  A    between atoms: N_3  and  C_22
REMARK    2  A    between atoms: C_5  and  C_13
REMARK    3  A    between atoms: C_6  and  C_10
REMARK    4  A    between atoms: C_13  and  C_14
REMARK    5  A    between atoms: C_22  and  O_23
REMARK    6  A    between atoms: O_23  and  C_24
REMARK                            x       y       z     vdW  Elec       q    Type
REMARK                         _______ _______ _______ _____ _____    ______ ____
ROOT
ATOM      1  O   UNL     1      30.746 -23.055 -13.754  0.00  0.00    -0.267 OA
ATOM      2  O   UNL     1      35.276 -23.281 -13.203  0.00  0.00    -0.246 OA
ATOM      3  N   UNL     1      34.420 -23.599 -15.354  0.00  0.00    -0.259 N 
ATOM      4  N   UNL     1      33.022 -23.157 -13.509  0.00  0.00    -0.275 N 
ATOM      5  C   UNL     1      33.294 -23.663 -16.189  0.00  0.00    +0.048 A 
ATOM      6  C   UNL     1      32.047 -23.461 -15.709  0.00  0.00    +0.046 A 
ATOM      7  C   UNL     1      31.861 -23.205 -14.250  0.00  0.00    +0.258 A 
ATOM      8  C   UNL     1      34.318 -23.342 -13.976  0.00  0.00    +0.332 A 
ATOM      9  H   UNL     1      32.923 -22.971 -12.547  0.00  0.00    +0.173 HD
ENDROOT
BRANCH   6  10
ATOM     10  C   UNL     1      30.779 -23.442 -16.520  0.00  0.00    +0.028 C 
ATOM     11  C   UNL     1      29.908 -24.638 -16.157  0.00  0.00    +0.005 C 
ATOM     12  C   UNL     1      30.028 -22.132 -16.310  0.00  0.00    +0.005 C 
ENDBRANCH   6  10
BRANCH   5  13
ATOM     13  C   UNL     1      33.541 -23.984 -17.648  0.00  0.00    +0.070 C 
BRANCH  13  14
ATOM     14  C   UNL     1      33.939 -22.770 -18.428  0.00  0.00    -0.017 C 
ATOM     15  C   UNL     1      35.286 -22.450 -18.571  0.00  0.00    -0.008 C 
ATOM     16  C   UNL     1      32.959 -21.969 -19.008  0.00  0.00    -0.008 C 
ATOM     17  C   UNL     1      35.656 -21.320 -19.299  0.00  0.00    -0.022 C 
ATOM     18  C   UNL     1      33.330 -20.839 -19.737  0.00  0.00    -0.022 C 
ATOM     19  C   UNL     1      34.678 -20.515 -19.882  0.00  0.00    -0.009 C 
ATOM     20  C   UNL     1      37.099 -20.973 -19.456  0.00  0.00    +0.031 C 
ATOM     21  C   UNL     1      32.282 -19.978 -20.360  0.00  0.00    +0.031 C 
ENDBRANCH  13  14
ENDBRANCH   5  13
BRANCH   3  22
ATOM     22  C   UNL     1      35.746 -23.807 -15.938  0.00  0.00    +0.259 C 
BRANCH  22  23
ATOM     23  O   UNL     1      36.106 -25.170 -15.773  0.00  0.00    -0.332 OA
BRANCH  23  24
ATOM     24  C   UNL     1      37.308 -25.305 -15.027  0.00  0.00    +0.145 C 
ATOM     25  C   UNL     1      37.248 -26.587 -14.222  0.00  0.00    +0.035 C 
ENDBRANCH  23  24
ENDBRANCH  22  23
ENDBRANCH   3  22
TORSDOF 6
ENDMDL
MODEL 9
REMARK VINA RESULT:      -7.3      9.199     12.490
REMARK  Name = 3457
REMARK  6 active torsions:
REMARK  status: ('A' for Active; 'I' for Inactive)
REMARK    1  A    between atoms: N_3  and  C_22
REMARK    2  A    between atoms: C_5  and  C_13
REMARK    3  A    between atoms: C_6  and  C_10
REMARK    4  A    between atoms: C_13  and  C_14
REMARK    5  A    between atoms: C_22  and  O_23
REMARK    6  A    between atoms: O_23  and  C_24
REMARK                            x       y       z     vdW  Elec       q    Type
REMARK                         _______ _______ _______ _____ _____    ______ ____
ROOT
ATOM      1  O   UNL     1      37.956 -23.527 -14.376  0.00  0.00    -0.267 OA
ATOM      2  O   UNL     1      37.178 -20.516 -17.723  0.00  0.00    -0.246 OA
ATOM      3  N   UNL     1      35.595 -22.200 -17.378  0.00  0.00    -0.259 N 
ATOM      4  N   UNL     1      37.532 -22.021 -16.050  0.00  0.00    -0.275 N 
ATOM      5  C   UNL     1      35.197 -23.327 -16.642  0.00  0.00    +0.048 A 
ATOM      6  C   UNL     1      35.936 -23.793 -15.611  0.00  0.00    +0.046 A 
ATOM      7  C   UNL     1      37.225 -23.119 -15.276  0.00  0.00    +0.258 A 
ATOM      8  C   UNL     1      36.785 -21.506 -17.102  0.00  0.00    +0.332 A 
ATOM      9  H   UNL     1      38.370 -21.550 -15.833  0.00  0.00    +0.173 HD
ENDROOT
BRANCH   6  10
ATOM     10  C   UNL     1      35.575 -24.948 -14.716  0.00  0.00    +0.028 C 
ATOM     11  C   UNL     1      36.446 -26.155 -15.044  0.00  0.00    +0.005 C 
ATOM     12  C   UNL     1      35.714 -24.553 -13.250  0.00  0.00    +0.005 C 
ENDBRANCH   6  10
BRANCH   5  13
ATOM     13  C   UNL     1      33.910 -24.002 -17.066  0.00  0.00    +0.070 C 
BRANCH  13  14
ATOM     14  C   UNL     1      32.745 -23.557 -16.238  0.00  0.00    -0.017 C 
ATOM     15  C   UNL     1      32.894 -23.397 -14.863  0.00  0.00    -0.008 C 
ATOM     16  C   UNL     1      31.520 -23.303 -16.849  0.00  0.00    -0.008 C 
ATOM     17  C   UNL     1      31.809 -22.981 -14.093  0.00  0.00    -0.022 C 
ATOM     18  C   UNL     1      30.435 -22.886 -16.077  0.00  0.00    -0.022 C 
ATOM     19  C   UNL     1      30.580 -22.725 -14.700  0.00  0.00    -0.009 C 
ATOM     20  C   UNL     1      31.964 -22.808 -12.619  0.00  0.00    +0.031 C 
ATOM     21  C   UNL     1      29.120 -22.612 -16.727  0.00  0.00    +0.031 C 
ENDBRANCH  13  14
ENDBRANCH   5  13
BRANCH   3  22
ATOM     22  C   UNL     1      34.740 -21.731 -18.470  0.00  0.00    +0.259 C 
BRANCH  22  23
ATOM     23  O   UNL     1      35.382 -22.016 -19.703  0.00  0.00    -0.332 OA
BRANCH  23  24
ATOM     24  C   UNL     1      35.428 -20.872 -20.545  0.00  0.00    +0.145 C 
ATOM     25  C   UNL     1      34.081 -20.180 -20.509  0.00  0.00    +0.035 C 
ENDBRANCH  23  24
ENDBRANCH  22  23
ENDBRANCH   3  22
TORSDOF 6
ENDMDL
