MODEL 1
REMARK VINA RESULT:      -6.7      0.000      0.000
REMARK  Name = 5289024
REMARK  4 active torsions:
REMARK  status: ('A' for Active; 'I' for Inactive)
REMARK    1  A    between atoms: C_5  and  O_11
REMARK    2  A    between atoms: C_6  and  O_13
REMARK    3  A    between atoms: C_8  and  C_15
REMARK    4  A    between atoms: C_15  and  O_16
REMARK                            x       y       z     vdW  Elec       q    Type
REMARK                         _______ _______ _______ _____ _____    ______ ____
ROOT
ATOM      1  S   UNL     1      34.564 -19.261 -22.817  0.00  0.00    -0.069 S 
ATOM      2  O   UNL     1      35.089 -16.886 -24.078  0.00  0.00    -0.340 OA
ATOM      3  N   UNL     1      35.607 -18.233 -20.644  0.00  0.00    -0.264 NA
ATOM      4  C   UNL     1      35.609 -17.142 -21.654  0.00  0.00    +0.170 C 
ATOM      5  C   UNL     1      34.461 -16.179 -21.334  0.00  0.00    +0.165 C 
ATOM      6  C   UNL     1      34.139 -15.278 -22.524  0.00  0.00    +0.169 C 
ATOM      7  C   UNL     1      35.538 -17.758 -23.054  0.00  0.00    +0.192 C 
ATOM      8  C   UNL     1      33.919 -16.124 -23.779  0.00  0.00    +0.175 C 
ATOM      9  C   UNL     1      35.059 -19.292 -21.144  0.00  0.00    +0.082 C 
ATOM     10  C   UNL     1      34.857 -20.552 -20.374  0.00  0.00    +0.059 C 
ENDROOT
BRANCH   5  11
ATOM     11  O   UNL     1      34.852 -15.369 -20.223  0.00  0.00    -0.380 OA
ATOM     12  H   UNL     1      34.089 -15.225 -19.643  0.00  0.00    +0.211 HD
ENDBRANCH   5  11
BRANCH   6  13
ATOM     13  O   UNL     1      32.962 -14.538 -22.208  0.00  0.00    -0.379 OA
ATOM     14  H   UNL     1      32.733 -14.677 -21.275  0.00  0.00    +0.211 HD
ENDBRANCH   6  13
BRANCH   8  15
ATOM     15  C   UNL     1      33.622 -15.270 -25.008  0.00  0.00    +0.169 C 
BRANCH  15  16
ATOM     16  O   UNL     1      33.954 -16.014 -26.165  0.00  0.00    -0.379 OA
ATOM     17  H   UNL     1      33.280 -15.870 -26.847  0.00  0.00    +0.211 HD
ENDBRANCH  15  16
ENDBRANCH   8  15
TORSDOF 4
ENDMDL
MODEL 2
REMARK VINA RESULT:      -6.7      2.453      4.807
REMARK  Name = 5289024
REMARK  4 active torsions:
REMARK  status: ('A' for Active; 'I' for Inactive)
REMARK    1  A    between atoms: C_5  and  O_11
REMARK    2  A    between atoms: C_6  and  O_13
REMARK    3  A    between atoms: C_8  and  C_15
REMARK    4  A    between atoms: C_15  and  O_16
REMARK                            x       y       z     vdW  Elec       q    Type
REMARK                         _______ _______ _______ _____ _____    ______ ____
ROOT
ATOM      1  S   UNL     1      33.071 -15.549 -20.899  0.00  0.00    -0.069 S 
ATOM      2  O   UNL     1      35.093 -17.389 -20.720  0.00  0.00    -0.340 OA
ATOM      3  N   UNL     1      34.234 -14.616 -23.054  0.00  0.00    -0.264 NA
ATOM      4  C   UNL     1      35.031 -15.800 -22.640  0.00  0.00    +0.170 C 
ATOM      5  C   UNL     1      34.681 -16.972 -23.562  0.00  0.00    +0.165 C 
ATOM      6  C   UNL     1      35.133 -18.304 -22.970  0.00  0.00    +0.169 C 
ATOM      7  C   UNL     1      34.780 -16.075 -21.155  0.00  0.00    +0.192 C 
ATOM      8  C   UNL     1      34.605 -18.450 -21.542  0.00  0.00    +0.175 C 
ATOM      9  C   UNL     1      33.224 -14.468 -22.261  0.00  0.00    +0.082 C 
ATOM     10  C   UNL     1      32.197 -13.401 -22.431  0.00  0.00    +0.059 C 
ENDROOT
BRANCH   5  11
ATOM     11  O   UNL     1      35.338 -16.766 -24.816  0.00  0.00    -0.380 OA
ATOM     12  H   UNL     1      36.201 -16.349 -24.664  0.00  0.00    +0.211 HD
ENDBRANCH   5  11
BRANCH   6  13
ATOM     13  O   UNL     1      34.624 -19.347 -23.799  0.00  0.00    -0.379 OA
ATOM     14  H   UNL     1      34.070 -19.941 -23.268  0.00  0.00    +0.211 HD
ENDBRANCH   6  13
BRANCH   8  15
ATOM     15  C   UNL     1      35.053 -19.755 -20.890  0.00  0.00    +0.169 C 
BRANCH  15  16
ATOM     16  O   UNL     1      36.252 -19.515 -20.178  0.00  0.00    -0.379 OA
ATOM     17  H   UNL     1      36.049 -19.052 -19.349  0.00  0.00    +0.211 HD
ENDBRANCH  15  16
ENDBRANCH   8  15
TORSDOF 4
ENDMDL
MODEL 3
REMARK VINA RESULT:      -6.7     11.725     12.863
REMARK  Name = 5289024
REMARK  4 active torsions:
REMARK  status: ('A' for Active; 'I' for Inactive)
REMARK    1  A    between atoms: C_5  and  O_11
REMARK    2  A    between atoms: C_6  and  O_13
REMARK    3  A    between atoms: C_8  and  C_15
REMARK    4  A    between atoms: C_15  and  O_16
REMARK                            x       y       z     vdW  Elec       q    Type
REMARK                         _______ _______ _______ _____ _____    ______ ____
ROOT
ATOM      1  S   UNL     1      35.477 -24.567 -14.954  0.00  0.00    -0.069 S 
ATOM      2  O   UNL     1      37.639 -25.889 -13.911  0.00  0.00    -0.340 OA
ATOM      3  N   UNL     1      34.529 -24.385 -12.517  0.00  0.00    -0.264 NA
ATOM      4  C   UNL     1      35.868 -25.019 -12.388  0.00  0.00    +0.170 C 
ATOM      5  C   UNL     1      36.859 -23.967 -11.881  0.00  0.00    +0.165 C 
ATOM      6  C   UNL     1      38.304 -24.407 -12.105  0.00  0.00    +0.169 C 
ATOM      7  C   UNL     1      36.252 -25.647 -13.731  0.00  0.00    +0.192 C 
ATOM      8  C   UNL     1      38.509 -24.812 -13.566  0.00  0.00    +0.175 C 
ATOM      9  C   UNL     1      34.299 -24.094 -13.756  0.00  0.00    +0.082 C 
ATOM     10  C   UNL     1      33.062 -23.403 -14.220  0.00  0.00    +0.059 C 
ENDROOT
BRANCH   5  11
ATOM     11  O   UNL     1      36.635 -23.779 -10.482  0.00  0.00    -0.380 OA
ATOM     12  H   UNL     1      35.902 -23.157 -10.352  0.00  0.00    +0.211 HD
ENDBRANCH   5  11
BRANCH   6  13
ATOM     13  O   UNL     1      39.152 -23.312 -11.767  0.00  0.00    -0.379 OA
ATOM     14  H   UNL     1      39.402 -23.373 -10.831  0.00  0.00    +0.211 HD
ENDBRANCH   6  13
BRANCH   8  15
ATOM     15  C   UNL     1      39.933 -25.288 -13.839  0.00  0.00    +0.169 C 
BRANCH  15  16
ATOM     16  O   UNL     1      39.869 -26.518 -14.538  0.00  0.00    -0.379 OA
ATOM     17  H   UNL     1      40.724 -26.693 -14.963  0.00  0.00    +0.211 HD
ENDBRANCH  15  16
ENDBRANCH   8  15
TORSDOF 4
ENDMDL
MODEL 4
REMARK VINA RESULT:      -6.6      9.060     11.363
REMARK  Name = 5289024
REMARK  4 active torsions:
REMARK  status: ('A' for Active; 'I' for Inactive)
REMARK    1  A    between atoms: C_5  and  O_11
REMARK    2  A    between atoms: C_6  and  O_13
REMARK    3  A    between atoms: C_8  and  C_15
REMARK    4  A    between atoms: C_15  and  O_16
REMARK                            x       y       z     vdW  Elec       q    Type
REMARK                         _______ _______ _______ _____ _____    ______ ____
ROOT
ATOM      1  S   UNL     1      36.490 -22.362 -16.318  0.00  0.00    -0.069 S 
ATOM      2  O   UNL     1      37.410 -23.866 -14.220  0.00  0.00    -0.340 OA
ATOM      3  N   UNL     1      34.513 -24.066 -16.553  0.00  0.00    -0.264 NA
ATOM      4  C   UNL     1      35.283 -24.497 -15.357  0.00  0.00    +0.170 C 
ATOM      5  C   UNL     1      34.517 -24.067 -14.102  0.00  0.00    +0.165 C 
ATOM      6  C   UNL     1      35.409 -24.102 -12.863  0.00  0.00    +0.169 C 
ATOM      7  C   UNL     1      36.703 -23.931 -15.448  0.00  0.00    +0.192 C 
ATOM      8  C   UNL     1      36.692 -23.310 -13.118  0.00  0.00    +0.175 C 
ATOM      9  C   UNL     1      35.031 -22.989 -17.044  0.00  0.00    +0.082 C 
ATOM     10  C   UNL     1      34.466 -22.269 -18.221  0.00  0.00    +0.059 C 
ENDROOT
BRANCH   5  11
ATOM     11  O   UNL     1      33.420 -24.965 -13.918  0.00  0.00    -0.380 OA
ATOM     12  H   UNL     1      32.604 -24.457 -13.785  0.00  0.00    +0.211 HD
ENDBRANCH   5  11
BRANCH   6  13
ATOM     13  O   UNL     1      34.677 -23.531 -11.780  0.00  0.00    -0.379 OA
ATOM     14  H   UNL     1      34.026 -22.900 -12.126  0.00  0.00    +0.211 HD
ENDBRANCH   6  13
BRANCH   8  15
ATOM     15  C   UNL     1      37.635 -23.336 -11.919  0.00  0.00    +0.169 C 
BRANCH  15  16
ATOM     16  O   UNL     1      37.245 -22.318 -11.016  0.00  0.00    -0.379 OA
ATOM     17  H   UNL     1      36.307 -22.108 -11.152  0.00  0.00    +0.211 HD
ENDBRANCH  15  16
ENDBRANCH   8  15
TORSDOF 4
ENDMDL
MODEL 5
REMARK VINA RESULT:      -6.5     11.275     12.346
REMARK  Name = 5289024
REMARK  4 active torsions:
REMARK  status: ('A' for Active; 'I' for Inactive)
REMARK    1  A    between atoms: C_5  and  O_11
REMARK    2  A    between atoms: C_6  and  O_13
REMARK    3  A    between atoms: C_8  and  C_15
REMARK    4  A    between atoms: C_15  and  O_16
REMARK                            x       y       z     vdW  Elec       q    Type
REMARK                         _______ _______ _______ _____ _____    ______ ____
ROOT
ATOM      1  S   UNL     1      37.673 -25.830 -14.938  0.00  0.00    -0.069 S 
ATOM      2  O   UNL     1      35.607 -24.065 -14.585  0.00  0.00    -0.340 OA
ATOM      3  N   UNL     1      39.127 -24.297 -13.387  0.00  0.00    -0.264 NA
ATOM      4  C   UNL     1      37.767 -23.698 -13.394  0.00  0.00    +0.170 C 
ATOM      5  C   UNL     1      37.069 -24.051 -12.078  0.00  0.00    +0.165 C 
ATOM      6  C   UNL     1      35.561 -23.832 -12.167  0.00  0.00    +0.169 C 
ATOM      7  C   UNL     1      37.021 -24.171 -14.645  0.00  0.00    +0.192 C 
ATOM      8  C   UNL     1      34.997 -24.555 -13.391  0.00  0.00    +0.175 C 
ATOM      9  C   UNL     1      39.133 -25.380 -14.093  0.00  0.00    +0.082 C 
ATOM     10  C   UNL     1      40.333 -26.251 -14.249  0.00  0.00    +0.059 C 
ENDROOT
BRANCH   5  11
ATOM     11  O   UNL     1      37.607 -23.217 -11.048  0.00  0.00    -0.380 OA
ATOM     12  H   UNL     1      37.758 -22.326 -11.400  0.00  0.00    +0.211 HD
ENDBRANCH   5  11
BRANCH   6  13
ATOM     13  O   UNL     1      34.973 -24.341 -10.972  0.00  0.00    -0.379 OA
ATOM     14  H   UNL     1      35.608 -24.917 -10.518  0.00  0.00    +0.211 HD
ENDBRANCH   6  13
BRANCH   8  15
ATOM     15  C   UNL     1      33.493 -24.345 -13.545  0.00  0.00    +0.169 C 
BRANCH  15  16
ATOM     16  O   UNL     1      33.117 -23.212 -12.784  0.00  0.00    -0.379 OA
ATOM     17  H   UNL     1      33.877 -22.903 -12.265  0.00  0.00    +0.211 HD
ENDBRANCH  15  16
ENDBRANCH   8  15
TORSDOF 4
ENDMDL
MODEL 6
REMARK VINA RESULT:      -6.5      3.849      5.511
REMARK  Name = 5289024
REMARK  4 active torsions:
REMARK  status: ('A' for Active; 'I' for Inactive)
REMARK    1  A    between atoms: C_5  and  O_11
REMARK    2  A    between atoms: C_6  and  O_13
REMARK    3  A    between atoms: C_8  and  C_15
REMARK    4  A    between atoms: C_15  and  O_16
REMARK                            x       y       z     vdW  Elec       q    Type
REMARK                         _______ _______ _______ _____ _____    ______ ____
ROOT
ATOM      1  S   UNL     1      34.143 -15.292 -23.651  0.00  0.00    -0.069 S 
ATOM      2  O   UNL     1      32.890 -12.866 -23.878  0.00  0.00    -0.340 OA
ATOM      3  N   UNL     1      33.442 -15.783 -26.128  0.00  0.00    -0.264 NA
ATOM      4  C   UNL     1      32.997 -14.393 -25.845  0.00  0.00    +0.170 C 
ATOM      5  C   UNL     1      33.976 -13.422 -26.511  0.00  0.00    +0.165 C 
ATOM      6  C   UNL     1      33.835 -12.011 -25.946  0.00  0.00    +0.169 C 
ATOM      7  C   UNL     1      32.866 -14.210 -24.330  0.00  0.00    +0.192 C 
ATOM      8  C   UNL     1      33.925 -12.045 -24.419  0.00  0.00    +0.175 C 
ATOM      9  C   UNL     1      34.058 -16.264 -25.098  0.00  0.00    +0.082 C 
ATOM     10  C   UNL     1      34.673 -17.622 -25.071  0.00  0.00    +0.059 C 
ENDROOT
BRANCH   5  11
ATOM     11  O   UNL     1      33.697 -13.397 -27.913  0.00  0.00    -0.380 OA
ATOM     12  H   UNL     1      33.041 -14.079 -28.125  0.00  0.00    +0.211 HD
ENDBRANCH   5  11
BRANCH   6  13
ATOM     13  O   UNL     1      34.885 -11.214 -26.489  0.00  0.00    -0.379 OA
ATOM     14  H   UNL     1      35.268 -10.661 -25.790  0.00  0.00    +0.211 HD
ENDBRANCH   6  13
BRANCH   8  15
ATOM     15  C   UNL     1      33.761 -10.661 -23.799  0.00  0.00    +0.169 C 
BRANCH  15  16
ATOM     16  O   UNL     1      34.993  -9.971 -23.907  0.00  0.00    -0.379 OA
ATOM     17  H   UNL     1      35.723 -10.609 -23.900  0.00  0.00    +0.211 HD
ENDBRANCH  15  16
ENDBRANCH   8  15
TORSDOF 4
ENDMDL
MODEL 7
REMARK VINA RESULT:      -6.5     11.241     12.467
REMARK  Name = 5289024
REMARK  4 active torsions:
REMARK  status: ('A' for Active; 'I' for Inactive)
REMARK    1  A    between atoms: C_5  and  O_11
REMARK    2  A    between atoms: C_6  and  O_13
REMARK    3  A    between atoms: C_8  and  C_15
REMARK    4  A    between atoms: C_15  and  O_16
REMARK                            x       y       z     vdW  Elec       q    Type
REMARK                         _______ _______ _______ _____ _____    ______ ____
ROOT
ATOM      1  S   UNL     1      36.035 -23.534 -12.927  0.00  0.00    -0.069 S 
ATOM      2  O   UNL     1      38.352 -23.902 -14.342  0.00  0.00    -0.340 OA
ATOM      3  N   UNL     1      34.738 -24.562 -14.959  0.00  0.00    -0.264 NA
ATOM      4  C   UNL     1      36.181 -24.665 -15.301  0.00  0.00    +0.170 C 
ATOM      5  C   UNL     1      36.630 -26.114 -15.094  0.00  0.00    +0.165 C 
ATOM      6  C   UNL     1      38.152 -26.224 -15.027  0.00  0.00    +0.169 C 
ATOM      7  C   UNL     1      36.964 -23.642 -14.472  0.00  0.00    +0.192 C 
ATOM      8  C   UNL     1      38.704 -25.241 -13.994  0.00  0.00    +0.175 C 
ATOM      9  C   UNL     1      34.603 -24.056 -13.777  0.00  0.00    +0.082 C 
ATOM     10  C   UNL     1      33.282 -23.863 -13.114  0.00  0.00    +0.059 C 
ENDROOT
BRANCH   5  11
ATOM     11  O   UNL     1      36.149 -26.893 -16.192  0.00  0.00    -0.380 OA
ATOM     12  H   UNL     1      35.840 -26.303 -16.897  0.00  0.00    +0.211 HD
ENDBRANCH   5  11
BRANCH   6  13
ATOM     13  O   UNL     1      38.479 -27.564 -14.666  0.00  0.00    -0.379 OA
ATOM     14  H   UNL     1      39.353 -27.790 -15.020  0.00  0.00    +0.211 HD
ENDBRANCH   6  13
BRANCH   8  15
ATOM     15  C   UNL     1      40.227 -25.289 -13.907  0.00  0.00    +0.169 C 
BRANCH  15  16
ATOM     16  O   UNL     1      40.723 -25.945 -15.060  0.00  0.00    -0.379 OA
ATOM     17  H   UNL     1      40.014 -26.024 -15.718  0.00  0.00    +0.211 HD
ENDBRANCH  15  16
ENDBRANCH   8  15
TORSDOF 4
ENDMDL
MODEL 8
REMARK VINA RESULT:      -6.4      1.680      2.183
REMARK  Name = 5289024
REMARK  4 active torsions:
REMARK  status: ('A' for Active; 'I' for Inactive)
REMARK    1  A    between atoms: C_5  and  O_11
REMARK    2  A    between atoms: C_6  and  O_13
REMARK    3  A    between atoms: C_8  and  C_15
REMARK    4  A    between atoms: C_15  and  O_16
REMARK                            x       y       z     vdW  Elec       q    Type
REMARK                         _______ _______ _______ _____ _____    ______ ____
ROOT
ATOM      1  S   UNL     1      34.138 -18.348 -24.665  0.00  0.00    -0.069 S 
ATOM      2  O   UNL     1      34.361 -15.969 -26.006  0.00  0.00    -0.340 OA
ATOM      3  N   UNL     1      35.408 -17.234 -22.662  0.00  0.00    -0.264 NA
ATOM      4  C   UNL     1      35.215 -16.160 -23.672  0.00  0.00    +0.170 C 
ATOM      5  C   UNL     1      34.072 -15.253 -23.208  0.00  0.00    +0.165 C 
ATOM      6  C   UNL     1      33.545 -14.388 -24.351  0.00  0.00    +0.169 C 
ATOM      7  C   UNL     1      34.989 -16.801 -25.044  0.00  0.00    +0.192 C 
ATOM      8  C   UNL     1      33.203 -15.265 -25.557  0.00  0.00    +0.175 C 
ATOM      9  C   UNL     1      34.855 -18.327 -23.074  0.00  0.00    +0.082 C 
ATOM     10  C   UNL     1      34.825 -19.584 -22.272  0.00  0.00    +0.059 C 
ENDROOT
BRANCH   5  11
ATOM     11  O   UNL     1      34.565 -14.406 -22.167  0.00  0.00    -0.380 OA
ATOM     12  H   UNL     1      33.914 -13.713 -21.977  0.00  0.00    +0.211 HD
ENDBRANCH   5  11
BRANCH   6  13
ATOM     13  O   UNL     1      32.383 -13.705 -23.885  0.00  0.00    -0.379 OA
ATOM     14  H   UNL     1      31.631 -14.318 -23.870  0.00  0.00    +0.211 HD
ENDBRANCH   6  13
BRANCH   8  15
ATOM     15  C   UNL     1      32.697 -14.446 -26.742  0.00  0.00    +0.169 C 
BRANCH  15  16
ATOM     16  O   UNL     1      33.814 -13.971 -27.470  0.00  0.00    -0.379 OA
ATOM     17  H   UNL     1      34.352 -14.723 -27.765  0.00  0.00    +0.211 HD
ENDBRANCH  15  16
ENDBRANCH   8  15
TORSDOF 4
ENDMDL
MODEL 9
REMARK VINA RESULT:      -6.4      3.465      5.180
REMARK  Name = 5289024
REMARK  4 active torsions:
REMARK  status: ('A' for Active; 'I' for Inactive)
REMARK    1  A    between atoms: C_5  and  O_11
REMARK    2  A    between atoms: C_6  and  O_13
REMARK    3  A    between atoms: C_8  and  C_15
REMARK    4  A    between atoms: C_15  and  O_16
REMARK                            x       y       z     vdW  Elec       q    Type
REMARK                         _______ _______ _______ _____ _____    ______ ____
ROOT
ATOM      1  S   UNL     1      32.731 -14.133 -21.700  0.00  0.00    -0.069 S 
ATOM      2  O   UNL     1      34.658 -15.338 -23.230  0.00  0.00    -0.340 OA
ATOM      3  N   UNL     1      32.904 -12.053 -23.284  0.00  0.00    -0.264 NA
ATOM      4  C   UNL     1      33.806 -13.082 -23.862  0.00  0.00    +0.170 C 
ATOM      5  C   UNL     1      33.115 -13.714 -25.074  0.00  0.00    +0.165 C 
ATOM      6  C   UNL     1      33.776 -15.030 -25.472  0.00  0.00    +0.169 C 
ATOM      7  C   UNL     1      34.187 -14.082 -22.767  0.00  0.00    +0.192 C 
ATOM      8  C   UNL     1      33.881 -15.954 -24.257  0.00  0.00    +0.175 C 
ATOM      9  C   UNL     1      32.306 -12.529 -22.241  0.00  0.00    +0.082 C 
ATOM     10  C   UNL     1      31.295 -11.766 -21.455  0.00  0.00    +0.059 C 
ENDROOT
BRANCH   5  11
ATOM     11  O   UNL     1      33.199 -12.795 -26.167  0.00  0.00    -0.380 OA
ATOM     12  H   UNL     1      33.854 -12.109 -25.963  0.00  0.00    +0.211 HD
ENDBRANCH   5  11
BRANCH   6  13
ATOM     13  O   UNL     1      32.977 -15.632 -26.489  0.00  0.00    -0.379 OA
ATOM     14  H   UNL     1      32.970 -16.595 -26.367  0.00  0.00    +0.211 HD
ENDBRANCH   6  13
BRANCH   8  15
ATOM     15  C   UNL     1      34.563 -17.277 -24.594  0.00  0.00    +0.169 C 
BRANCH  15  16
ATOM     16  O   UNL     1      35.258 -17.126 -25.818  0.00  0.00    -0.379 OA
ATOM     17  H   UNL     1      36.152 -17.495 -25.730  0.00  0.00    +0.211 HD
ENDBRANCH  15  16
ENDBRANCH   8  15
TORSDOF 4
ENDMDL
