MODEL 1
REMARK VINA RESULT:      -7.8      0.000      0.000
REMARK  Name = 10176764
REMARK  0 active torsions:
REMARK  status: ('A' for Active; 'I' for Inactive)
REMARK                            x       y       z     vdW  Elec       q    Type
REMARK                         _______ _______ _______ _____ _____    ______ ____
ROOT
ATOM      1  O   UNL     1      33.572 -24.637 -12.973  0.00  0.00    -0.478 OA
ATOM      2  N   UNL     1      36.903 -25.356 -14.314  0.00  0.00    +0.387 N 
ATOM      3  N   UNL     1      31.712 -23.637 -15.983  0.00  0.00    -0.245 NA
ATOM      4  C   UNL     1      35.193 -23.804 -14.648  0.00  0.00    +0.022 C 
ATOM      5  C   UNL     1      34.733 -23.812 -13.168  0.00  0.00    +0.162 C 
ATOM      6  C   UNL     1      35.637 -25.211 -15.059  0.00  0.00    -0.073 C 
ATOM      7  C   UNL     1      36.510 -23.029 -14.822  0.00  0.00    -0.021 C 
ATOM      8  C   UNL     1      37.601 -24.077 -14.568  0.00  0.00    -0.077 C 
ATOM      9  C   UNL     1      34.062 -23.243 -15.510  0.00  0.00    +0.050 C 
ATOM     10  C   UNL     1      35.838 -24.350 -12.246  0.00  0.00    +0.021 C 
ATOM     11  C   UNL     1      36.597 -25.526 -12.879  0.00  0.00    -0.074 C 
ATOM     12  C   UNL     1      32.730 -23.802 -15.103  0.00  0.00    +0.093 C 
ATOM     13  C   UNL     1      32.566 -24.438 -13.876  0.00  0.00    +0.152 C 
ATOM     14  C   UNL     1      31.314 -24.955 -13.555  0.00  0.00    +0.040 C 
ATOM     15  C   UNL     1      30.506 -24.140 -15.634  0.00  0.00    +0.099 C 
ATOM     16  C   UNL     1      30.259 -24.803 -14.445  0.00  0.00    +0.024 C 
ATOM     17  H   UNL     1      37.464 -26.160 -14.595  0.00  0.00    -0.080 HD
ENDROOT
TORSDOF 0
ENDMDL
MODEL 2
REMARK VINA RESULT:      -7.7      1.106      1.295
REMARK  Name = 10176764
REMARK  0 active torsions:
REMARK  status: ('A' for Active; 'I' for Inactive)
REMARK                            x       y       z     vdW  Elec       q    Type
REMARK                         _______ _______ _______ _____ _____    ______ ____
ROOT
ATOM      1  O   UNL     1      34.526 -24.371 -13.135  0.00  0.00    -0.478 OA
ATOM      2  N   UNL     1      37.494 -26.236 -14.194  0.00  0.00    +0.387 N 
ATOM      3  N   UNL     1      33.102 -23.272 -16.342  0.00  0.00    -0.245 NA
ATOM      4  C   UNL     1      36.346 -24.300 -14.810  0.00  0.00    +0.022 C 
ATOM      5  C   UNL     1      35.887 -23.969 -13.368  0.00  0.00    +0.162 C 
ATOM      6  C   UNL     1      36.344 -25.818 -15.019  0.00  0.00    -0.073 C 
ATOM      7  C   UNL     1      37.840 -23.990 -15.008  0.00  0.00    -0.021 C 
ATOM      8  C   UNL     1      38.554 -25.274 -14.567  0.00  0.00    -0.077 C 
ATOM      9  C   UNL     1      35.454 -23.545 -15.794  0.00  0.00    +0.050 C 
ATOM     10  C   UNL     1      36.761 -24.686 -12.327  0.00  0.00    +0.021 C 
ATOM     11  C   UNL     1      37.131 -26.110 -12.767  0.00  0.00    -0.074 C 
ATOM     12  C   UNL     1      34.009 -23.616 -15.394  0.00  0.00    +0.093 C 
ATOM     13  C   UNL     1      33.642 -24.002 -14.108  0.00  0.00    +0.152 C 
ATOM     14  C   UNL     1      32.288 -24.068 -13.793  0.00  0.00    +0.040 C 
ATOM     15  C   UNL     1      31.796 -23.335 -15.998  0.00  0.00    +0.099 C 
ATOM     16  C   UNL     1      31.341 -23.726 -14.751  0.00  0.00    +0.024 C 
ATOM     17  H   UNL     1      37.786 -27.202 -14.342  0.00  0.00    -0.080 HD
ENDROOT
TORSDOF 0
ENDMDL
MODEL 3
REMARK VINA RESULT:      -7.6     12.434     13.979
REMARK  Name = 10176764
REMARK  0 active torsions:
REMARK  status: ('A' for Active; 'I' for Inactive)
REMARK                            x       y       z     vdW  Elec       q    Type
REMARK                         _______ _______ _______ _____ _____    ______ ____
ROOT
ATOM      1  O   UNL     1      33.956 -13.802 -24.089  0.00  0.00    -0.478 OA
ATOM      2  N   UNL     1      34.845 -16.011 -21.307  0.00  0.00    +0.387 N 
ATOM      3  N   UNL     1      32.257 -11.027 -22.377  0.00  0.00    -0.245 NA
ATOM      4  C   UNL     1      33.062 -14.645 -21.940  0.00  0.00    +0.022 C 
ATOM      5  C   UNL     1      33.257 -14.889 -23.458  0.00  0.00    +0.162 C 
ATOM      6  C   UNL     1      34.427 -14.598 -21.244  0.00  0.00    -0.073 C 
ATOM      7  C   UNL     1      32.436 -15.868 -21.251  0.00  0.00    -0.021 C 
ATOM      8  C   UNL     1      33.636 -16.749 -20.878  0.00  0.00    -0.077 C 
ATOM      9  C   UNL     1      32.234 -13.375 -21.750  0.00  0.00    +0.050 C 
ATOM     10  C   UNL     1      34.070 -16.167 -23.716  0.00  0.00    +0.021 C 
ATOM     11  C   UNL     1      35.209 -16.342 -22.701  0.00  0.00    -0.074 C 
ATOM     12  C   UNL     1      32.686 -12.279 -22.671  0.00  0.00    +0.093 C 
ATOM     13  C   UNL     1      33.491 -12.557 -23.772  0.00  0.00    +0.152 C 
ATOM     14  C   UNL     1      33.897 -11.503 -24.584  0.00  0.00    +0.040 C 
ATOM     15  C   UNL     1      32.659 -10.028 -23.194  0.00  0.00    +0.099 C 
ATOM     16  C   UNL     1      33.474 -10.211 -24.298  0.00  0.00    +0.024 C 
ATOM     17  H   UNL     1      35.653 -16.235 -20.728  0.00  0.00    -0.080 HD
ENDROOT
TORSDOF 0
ENDMDL
MODEL 4
REMARK VINA RESULT:      -7.6     16.319     17.939
REMARK  Name = 10176764
REMARK  0 active torsions:
REMARK  status: ('A' for Active; 'I' for Inactive)
REMARK                            x       y       z     vdW  Elec       q    Type
REMARK                         _______ _______ _______ _____ _____    ______ ____
ROOT
ATOM      1  O   UNL     1      33.821  -9.403 -23.964  0.00  0.00    -0.478 OA
ATOM      2  N   UNL     1      31.437  -6.637 -23.691  0.00  0.00    +0.387 N 
ATOM      3  N   UNL     1      32.032 -12.150 -22.299  0.00  0.00    -0.245 NA
ATOM      4  C   UNL     1      32.184  -8.422 -22.388  0.00  0.00    +0.022 C 
ATOM      5  C   UNL     1      33.624  -8.393 -22.960  0.00  0.00    +0.162 C 
ATOM      6  C   UNL     1      31.181  -8.076 -23.493  0.00  0.00    -0.073 C 
ATOM      7  C   UNL     1      31.944  -7.256 -21.414  0.00  0.00    -0.021 C 
ATOM      8  C   UNL     1      31.483  -6.101 -22.313  0.00  0.00    -0.077 C 
ATOM      9  C   UNL     1      31.940  -9.786 -21.744  0.00  0.00    +0.050 C 
ATOM     10  C   UNL     1      33.939  -7.035 -23.606  0.00  0.00    +0.021 C 
ATOM     11  C   UNL     1      32.735  -6.470 -24.376  0.00  0.00    -0.074 C 
ATOM     12  C   UNL     1      32.469 -10.901 -22.597  0.00  0.00    +0.093 C 
ATOM     13  C   UNL     1      33.373 -10.647 -23.625  0.00  0.00    +0.152 C 
ATOM     14  C   UNL     1      33.819 -11.715 -24.399  0.00  0.00    +0.040 C 
ATOM     15  C   UNL     1      32.496 -13.165 -23.063  0.00  0.00    +0.099 C 
ATOM     16  C   UNL     1      33.379 -13.002 -24.115  0.00  0.00    +0.024 C 
ATOM     17  H   UNL     1      30.738  -6.162 -24.261  0.00  0.00    -0.080 HD
ENDROOT
TORSDOF 0
ENDMDL
MODEL 5
REMARK VINA RESULT:      -7.5     10.129     11.610
REMARK  Name = 10176764
REMARK  0 active torsions:
REMARK  status: ('A' for Active; 'I' for Inactive)
REMARK                            x       y       z     vdW  Elec       q    Type
REMARK                         _______ _______ _______ _____ _____    ______ ____
ROOT
ATOM      1  O   UNL     1      34.736 -16.186 -23.531  0.00  0.00    -0.478 OA
ATOM      2  N   UNL     1      36.106 -18.462 -21.010  0.00  0.00    +0.387 N 
ATOM      3  N   UNL     1      32.306 -14.229 -21.585  0.00  0.00    -0.245 NA
ATOM      4  C   UNL     1      34.041 -17.534 -21.574  0.00  0.00    +0.022 C 
ATOM      5  C   UNL     1      34.337 -17.497 -23.095  0.00  0.00    +0.162 C 
ATOM      6  C   UNL     1      35.322 -17.231 -20.790  0.00  0.00    -0.073 C 
ATOM      7  C   UNL     1      33.746 -18.964 -21.094  0.00  0.00    -0.021 C 
ATOM      8  C   UNL     1      35.128 -19.544 -20.762  0.00  0.00    -0.077 C 
ATOM      9  C   UNL     1      32.897 -16.566 -21.275  0.00  0.00    +0.050 C 
ATOM     10  C   UNL     1      35.470 -18.467 -23.464  0.00  0.00    +0.021 C 
ATOM     11  C   UNL     1      36.585 -18.481 -22.408  0.00  0.00    -0.074 C 
ATOM     12  C   UNL     1      33.064 -15.269 -22.012  0.00  0.00    +0.093 C 
ATOM     13  C   UNL     1      33.945 -15.166 -23.085  0.00  0.00    +0.152 C 
ATOM     14  C   UNL     1      34.076 -13.936 -23.723  0.00  0.00    +0.040 C 
ATOM     15  C   UNL     1      32.449 -13.053 -22.237  0.00  0.00    +0.099 C 
ATOM     16  C   UNL     1      33.314 -12.855 -23.298  0.00  0.00    +0.024 C 
ATOM     17  H   UNL     1      36.928 -18.547 -20.413  0.00  0.00    -0.080 HD
ENDROOT
TORSDOF 0
ENDMDL
MODEL 6
REMARK VINA RESULT:      -7.4      1.637      2.635
REMARK  Name = 10176764
REMARK  0 active torsions:
REMARK  status: ('A' for Active; 'I' for Inactive)
REMARK                            x       y       z     vdW  Elec       q    Type
REMARK                         _______ _______ _______ _____ _____    ______ ____
ROOT
ATOM      1  O   UNL     1      35.179 -24.489 -15.882  0.00  0.00    -0.478 OA
ATOM      2  N   UNL     1      37.771 -23.694 -13.421  0.00  0.00    +0.387 N 
ATOM      3  N   UNL     1      32.130 -23.255 -14.240  0.00  0.00    -0.245 NA
ATOM      4  C   UNL     1      35.568 -24.464 -13.438  0.00  0.00    +0.022 C 
ATOM      5  C   UNL     1      35.721 -25.231 -14.776  0.00  0.00    +0.162 C 
ATOM      6  C   UNL     1      36.392 -23.173 -13.486  0.00  0.00    -0.073 C 
ATOM      7  C   UNL     1      36.268 -25.203 -12.286  0.00  0.00    -0.021 C 
ATOM      8  C   UNL     1      37.713 -24.690 -12.328  0.00  0.00    -0.077 C 
ATOM      9  C   UNL     1      34.081 -24.233 -13.172  0.00  0.00    +0.050 C 
ATOM     10  C   UNL     1      37.197 -25.512 -15.092  0.00  0.00    +0.021 C 
ATOM     11  C   UNL     1      38.103 -24.331 -14.712  0.00  0.00    -0.074 C 
ATOM     12  C   UNL     1      33.360 -23.797 -14.414  0.00  0.00    +0.093 C 
ATOM     13  C   UNL     1      33.936 -23.964 -15.670  0.00  0.00    +0.152 C 
ATOM     14  C   UNL     1      33.233 -23.526 -16.789  0.00  0.00    +0.040 C 
ATOM     15  C   UNL     1      31.469 -22.853 -15.349  0.00  0.00    +0.099 C 
ATOM     16  C   UNL     1      31.973 -22.963 -16.633  0.00  0.00    +0.024 C 
ATOM     17  H   UNL     1      38.480 -22.981 -13.250  0.00  0.00    -0.080 HD
ENDROOT
TORSDOF 0
ENDMDL
MODEL 7
REMARK VINA RESULT:      -7.3     10.880     12.671
REMARK  Name = 10176764
REMARK  0 active torsions:
REMARK  status: ('A' for Active; 'I' for Inactive)
REMARK                            x       y       z     vdW  Elec       q    Type
REMARK                         _______ _______ _______ _____ _____    ______ ____
ROOT
ATOM      1  O   UNL     1      34.199 -15.556 -24.138  0.00  0.00    -0.478 OA
ATOM      2  N   UNL     1      32.030 -13.878 -21.710  0.00  0.00    +0.387 N 
ATOM      3  N   UNL     1      34.967 -18.728 -22.444  0.00  0.00    -0.245 NA
ATOM      4  C   UNL     1      33.941 -15.218 -21.699  0.00  0.00    +0.022 C 
ATOM      5  C   UNL     1      34.481 -14.667 -23.043  0.00  0.00    +0.162 C 
ATOM      6  C   UNL     1      32.412 -15.303 -21.752  0.00  0.00    -0.073 C 
ATOM      7  C   UNL     1      34.128 -14.202 -20.561  0.00  0.00    -0.021 C 
ATOM      8  C   UNL     1      32.868 -13.328 -20.622  0.00  0.00    -0.077 C 
ATOM      9  C   UNL     1      34.618 -16.557 -21.410  0.00  0.00    +0.050 C 
ATOM     10  C   UNL     1      33.849 -13.308 -23.382  0.00  0.00    +0.021 C 
ATOM     11  C   UNL     1      32.360 -13.255 -23.009  0.00  0.00    -0.074 C 
ATOM     12  C   UNL     1      34.690 -17.415 -22.639  0.00  0.00    +0.093 C 
ATOM     13  C   UNL     1      34.495 -16.869 -23.905  0.00  0.00    +0.152 C 
ATOM     14  C   UNL     1      34.555 -17.712 -25.011  0.00  0.00    +0.040 C 
ATOM     15  C   UNL     1      35.031 -19.515 -23.541  0.00  0.00    +0.099 C 
ATOM     16  C   UNL     1      34.831 -19.061 -24.833  0.00  0.00    +0.024 C 
ATOM     17  H   UNL     1      31.037 -13.715 -21.546  0.00  0.00    -0.080 HD
ENDROOT
TORSDOF 0
ENDMDL
MODEL 8
REMARK VINA RESULT:      -7.2      1.316      4.866
REMARK  Name = 10176764
REMARK  0 active torsions:
REMARK  status: ('A' for Active; 'I' for Inactive)
REMARK                            x       y       z     vdW  Elec       q    Type
REMARK                         _______ _______ _______ _____ _____    ______ ____
ROOT
ATOM      1  O   UNL     1      33.291 -24.724 -12.978  0.00  0.00    -0.478 OA
ATOM      2  N   UNL     1      30.693 -22.698 -14.576  0.00  0.00    +0.387 N 
ATOM      3  N   UNL     1      36.377 -23.053 -14.073  0.00  0.00    -0.245 NA
ATOM      4  C   UNL     1      32.816 -23.521 -15.088  0.00  0.00    +0.022 C 
ATOM      5  C   UNL     1      32.644 -24.818 -14.259  0.00  0.00    +0.162 C 
ATOM      6  C   UNL     1      32.115 -22.357 -14.379  0.00  0.00    -0.073 C 
ATOM      7  C   UNL     1      32.011 -23.580 -16.396  0.00  0.00    -0.021 C 
ATOM      8  C   UNL     1      30.621 -23.059 -16.009  0.00  0.00    -0.077 C 
ATOM      9  C   UNL     1      34.307 -23.284 -15.325  0.00  0.00    +0.050 C 
ATOM     10  C   UNL     1      31.161 -25.122 -14.002  0.00  0.00    +0.021 C 
ATOM     11  C   UNL     1      30.352 -23.849 -13.715  0.00  0.00    -0.074 C 
ATOM     12  C   UNL     1      35.110 -23.534 -14.082  0.00  0.00    +0.093 C 
ATOM     13  C   UNL     1      34.568 -24.240 -13.011  0.00  0.00    +0.152 C 
ATOM     14  C   UNL     1      35.348 -24.430 -11.875  0.00  0.00    +0.040 C 
ATOM     15  C   UNL     1      37.112 -23.266 -12.959  0.00  0.00    +0.099 C 
ATOM     16  C   UNL     1      36.647 -23.939 -11.842  0.00  0.00    +0.024 C 
ATOM     17  H   UNL     1      30.046 -21.947 -14.339  0.00  0.00    -0.080 HD
ENDROOT
TORSDOF 0
ENDMDL
MODEL 9
REMARK VINA RESULT:      -7.0      1.617      4.944
REMARK  Name = 10176764
REMARK  0 active torsions:
REMARK  status: ('A' for Active; 'I' for Inactive)
REMARK                            x       y       z     vdW  Elec       q    Type
REMARK                         _______ _______ _______ _____ _____    ______ ____
ROOT
ATOM      1  O   UNL     1      33.751 -24.363 -13.901  0.00  0.00    -0.478 OA
ATOM      2  N   UNL     1      30.405 -22.890 -14.130  0.00  0.00    +0.387 N 
ATOM      3  N   UNL     1      35.512 -22.750 -16.697  0.00  0.00    -0.245 NA
ATOM      4  C   UNL     1      32.070 -23.656 -15.575  0.00  0.00    +0.022 C 
ATOM      5  C   UNL     1      32.565 -24.763 -14.610  0.00  0.00    +0.162 C 
ATOM      6  C   UNL     1      31.648 -22.421 -14.772  0.00  0.00    -0.073 C 
ATOM      7  C   UNL     1      30.731 -24.039 -16.227  0.00  0.00    -0.021 C 
ATOM      8  C   UNL     1      29.671 -23.544 -15.235  0.00  0.00    -0.077 C 
ATOM      9  C   UNL     1      33.165 -23.374 -16.602  0.00  0.00    +0.050 C 
ATOM     10  C   UNL     1      31.497 -25.106 -13.561  0.00  0.00    +0.021 C 
ATOM     11  C   UNL     1      30.751 -23.858 -13.068  0.00  0.00    -0.074 C 
ATOM     12  C   UNL     1      34.520 -23.307 -15.959  0.00  0.00    +0.093 C 
ATOM     13  C   UNL     1      34.729 -23.811 -14.678  0.00  0.00    +0.152 C 
ATOM     14  C   UNL     1      36.000 -23.708 -14.121  0.00  0.00    +0.040 C 
ATOM     15  C   UNL     1      36.737 -22.678 -16.129  0.00  0.00    +0.099 C 
ATOM     16  C   UNL     1      37.029 -23.135 -14.856  0.00  0.00    +0.024 C 
ATOM     17  H   UNL     1      29.856 -22.152 -13.691  0.00  0.00    -0.080 HD
ENDROOT
TORSDOF 0
ENDMDL
