MODEL 1
REMARK VINA RESULT:     -10.1      0.000      0.000
REMARK  Name = 26388
REMARK  6 active torsions:
REMARK  status: ('A' for Active; 'I' for Inactive)
REMARK    1  A    between atoms: N_2  and  C_19
REMARK    2  A    between atoms: C_8  and  S_15
REMARK    3  A    between atoms: C_19  and  C_20
REMARK    4  A    between atoms: C_20  and  C_21
REMARK    5  A    between atoms: C_21  and  N_22
REMARK    6  A    between atoms: C_23  and  C_31
REMARK                            x       y       z     vdW  Elec       q    Type
REMARK                         _______ _______ _______ _____ _____    ______ ____
ROOT
ATOM      1  S   UNL     1      31.464 -24.516 -13.411  0.00  0.00    -0.084 S 
ATOM      2  N   UNL     1      32.756 -23.732 -16.128  0.00  0.00    -0.286 N 
ATOM      3  C   UNL     1      33.660 -23.955 -15.059  0.00  0.00    +0.059 C 
ATOM      4  C   UNL     1      31.385 -23.401 -15.981  0.00  0.00    +0.058 C 
ATOM      5  C   UNL     1      33.194 -24.292 -13.773  0.00  0.00    +0.043 C 
ATOM      6  C   UNL     1      30.695 -23.683 -14.786  0.00  0.00    +0.043 C 
ATOM      7  C   UNL     1      35.056 -23.815 -15.218  0.00  0.00    +0.034 C 
ATOM      8  C   UNL     1      35.947 -24.021 -14.161  0.00  0.00    +0.107 C 
ATOM      9  C   UNL     1      30.661 -22.744 -17.000  0.00  0.00    +0.015 C 
ATOM     10  C   UNL     1      34.095 -24.504 -12.714  0.00  0.00    +0.009 C 
ATOM     11  C   UNL     1      35.466 -24.369 -12.908  0.00  0.00    +0.019 C 
ATOM     12  C   UNL     1      29.337 -23.345 -14.642  0.00  0.00    +0.008 C 
ATOM     13  C   UNL     1      29.314 -22.406 -16.850  0.00  0.00    +0.001 C 
ATOM     14  C   UNL     1      28.650 -22.709 -15.671  0.00  0.00    +0.001 C 
ENDROOT
BRANCH   8  15
ATOM     15  S   UNL     1      37.665 -23.851 -14.420  0.00  0.00    +0.010 S 
ATOM     16  O   UNL     1      37.861 -22.952 -15.548  0.00  0.00    -0.169 OA
ATOM     17  O   UNL     1      38.307 -23.562 -13.146  0.00  0.00    -0.169 OA
ATOM     18  C   UNL     1      38.200 -25.474 -14.914  0.00  0.00    +0.182 C 
ENDBRANCH   8  15
BRANCH   2  19
ATOM     19  C   UNL     1      33.298 -23.780 -17.493  0.00  0.00    +0.093 C 
BRANCH  19  20
ATOM     20  C   UNL     1      33.522 -22.368 -18.034  0.00  0.00    -0.001 C 
BRANCH  20  21
ATOM     21  C   UNL     1      34.634 -22.257 -19.081  0.00  0.00    -0.076 C 
BRANCH  21  22
ATOM     22  N   UNL     1      34.786 -20.889 -19.575  0.00  0.00    +0.387 N 
ATOM     23  C   UNL     1      35.140 -18.837 -21.629  0.00  0.00    +0.072 C 
ATOM     24  C   UNL     1      33.792 -19.092 -20.955  0.00  0.00    -0.014 C 
ATOM     25  C   UNL     1      36.281 -19.283 -20.718  0.00  0.00    -0.014 C 
ATOM     26  C   UNL     1      33.677 -20.539 -20.473  0.00  0.00    -0.077 C 
ATOM     27  C   UNL     1      36.083 -20.724 -20.245  0.00  0.00    -0.077 C 
ATOM     28  H   UNL     1      34.760 -20.249 -18.779  0.00  0.00    -0.080 HD
BRANCH  23  31
ATOM     29  O   UNL     1      34.985 -16.504 -21.140  0.00  0.00    -0.275 OA
ATOM     30  N   UNL     1      35.721 -17.135 -23.227  0.00  0.00    -0.329 N 
ATOM     31  C   UNL     1      35.272 -17.381 -21.951  0.00  0.00    +0.219 C 
ATOM     32  H   UNL     1      35.842 -16.207 -23.536  0.00  0.00    +0.145 HD
ATOM     33  H   UNL     1      35.921 -17.885 -23.832  0.00  0.00    +0.145 HD
ENDBRANCH  23  31
ENDBRANCH  21  22
ENDBRANCH  20  21
ENDBRANCH  19  20
ENDBRANCH   2  19
TORSDOF 6
ENDMDL
MODEL 2
REMARK VINA RESULT:      -9.8      2.499      5.129
REMARK  Name = 26388
REMARK  6 active torsions:
REMARK  status: ('A' for Active; 'I' for Inactive)
REMARK    1  A    between atoms: N_2  and  C_19
REMARK    2  A    between atoms: C_8  and  S_15
REMARK    3  A    between atoms: C_19  and  C_20
REMARK    4  A    between atoms: C_20  and  C_21
REMARK    5  A    between atoms: C_21  and  N_22
REMARK    6  A    between atoms: C_23  and  C_31
REMARK                            x       y       z     vdW  Elec       q    Type
REMARK                         _______ _______ _______ _____ _____    ______ ____
ROOT
ATOM      1  S   UNL     1      35.184 -24.654 -12.457  0.00  0.00    -0.084 S 
ATOM      2  N   UNL     1      35.390 -23.176 -15.184  0.00  0.00    -0.286 N 
ATOM      3  C   UNL     1      34.079 -23.530 -14.774  0.00  0.00    +0.059 C 
ATOM      4  C   UNL     1      36.581 -23.795 -14.729  0.00  0.00    +0.058 C 
ATOM      5  C   UNL     1      33.859 -24.224 -13.568  0.00  0.00    +0.043 C 
ATOM      6  C   UNL     1      36.608 -24.515 -13.519  0.00  0.00    +0.043 C 
ATOM      7  C   UNL     1      32.945 -23.240 -15.563  0.00  0.00    +0.034 C 
ATOM      8  C   UNL     1      31.654 -23.601 -15.165  0.00  0.00    +0.107 C 
ATOM      9  C   UNL     1      37.779 -23.753 -15.476  0.00  0.00    +0.015 C 
ATOM     10  C   UNL     1      32.558 -24.580 -13.170  0.00  0.00    +0.009 C 
ATOM     11  C   UNL     1      31.461 -24.269 -13.966  0.00  0.00    +0.019 C 
ATOM     12  C   UNL     1      37.791 -25.134 -13.075  0.00  0.00    +0.008 C 
ATOM     13  C   UNL     1      38.950 -24.373 -15.034  0.00  0.00    +0.001 C 
ATOM     14  C   UNL     1      38.957 -25.063 -13.831  0.00  0.00    +0.001 C 
ENDROOT
BRANCH   8  15
ATOM     15  S   UNL     1      30.286 -23.202 -16.173  0.00  0.00    +0.010 S 
ATOM     16  O   UNL     1      30.752 -22.320 -17.233  0.00  0.00    -0.169 OA
ATOM     17  O   UNL     1      29.577 -24.428 -16.512  0.00  0.00    -0.169 OA
ATOM     18  C   UNL     1      29.213 -22.262 -15.110  0.00  0.00    +0.182 C 
ENDBRANCH   8  15
BRANCH   2  19
ATOM     19  C   UNL     1      35.518 -22.135 -16.213  0.00  0.00    +0.093 C 
BRANCH  19  20
ATOM     20  C   UNL     1      35.522 -22.755 -17.610  0.00  0.00    -0.001 C 
BRANCH  20  21
ATOM     21  C   UNL     1      34.346 -22.333 -18.497  0.00  0.00    -0.076 C 
BRANCH  21  22
ATOM     22  N   UNL     1      34.618 -21.085 -19.209  0.00  0.00    +0.387 N 
ATOM     23  C   UNL     1      35.191 -19.451 -21.566  0.00  0.00    +0.072 C 
ATOM     24  C   UNL     1      33.808 -19.489 -20.917  0.00  0.00    -0.014 C 
ATOM     25  C   UNL     1      36.267 -19.813 -20.544  0.00  0.00    -0.014 C 
ATOM     26  C   UNL     1      33.566 -20.819 -20.201  0.00  0.00    -0.077 C 
ATOM     27  C   UNL     1      35.943 -21.133 -19.841  0.00  0.00    -0.077 C 
ATOM     28  H   UNL     1      34.618 -20.318 -18.537  0.00  0.00    -0.080 HD
BRANCH  23  31
ATOM     29  O   UNL     1      35.348 -17.071 -21.441  0.00  0.00    -0.275 OA
ATOM     30  N   UNL     1      35.775 -18.088 -23.460  0.00  0.00    -0.329 N 
ATOM     31  C   UNL     1      35.446 -18.086 -22.126  0.00  0.00    +0.219 C 
ATOM     32  H   UNL     1      35.962 -17.237 -23.922  0.00  0.00    +0.145 HD
ATOM     33  H   UNL     1      35.824 -18.938 -23.955  0.00  0.00    +0.145 HD
ENDBRANCH  23  31
ENDBRANCH  21  22
ENDBRANCH  20  21
ENDBRANCH  19  20
ENDBRANCH   2  19
TORSDOF 6
ENDMDL
MODEL 3
REMARK VINA RESULT:      -9.4     12.005     15.947
REMARK  Name = 26388
REMARK  6 active torsions:
REMARK  status: ('A' for Active; 'I' for Inactive)
REMARK    1  A    between atoms: N_2  and  C_19
REMARK    2  A    between atoms: C_8  and  S_15
REMARK    3  A    between atoms: C_19  and  C_20
REMARK    4  A    between atoms: C_20  and  C_21
REMARK    5  A    between atoms: C_21  and  N_22
REMARK    6  A    between atoms: C_23  and  C_31
REMARK                            x       y       z     vdW  Elec       q    Type
REMARK                         _______ _______ _______ _____ _____    ______ ____
ROOT
ATOM      1  S   UNL     1      32.225  -7.573 -19.810  0.00  0.00    -0.084 S 
ATOM      2  N   UNL     1      32.241  -8.756 -22.686  0.00  0.00    -0.286 N 
ATOM      3  C   UNL     1      32.049  -7.353 -22.599  0.00  0.00    +0.059 C 
ATOM      4  C   UNL     1      31.982  -9.680 -21.642  0.00  0.00    +0.058 C 
ATOM      5  C   UNL     1      31.999  -6.704 -21.349  0.00  0.00    +0.043 C 
ATOM      6  C   UNL     1      31.925  -9.260 -20.298  0.00  0.00    +0.043 C 
ATOM      7  C   UNL     1      31.864  -6.551 -23.745  0.00  0.00    +0.034 C 
ATOM      8  C   UNL     1      31.662  -5.170 -23.659  0.00  0.00    +0.107 C 
ATOM      9  C   UNL     1      31.734 -11.046 -21.898  0.00  0.00    +0.015 C 
ATOM     10  C   UNL     1      31.800  -5.314 -21.268  0.00  0.00    +0.009 C 
ATOM     11  C   UNL     1      31.633  -4.551 -22.419  0.00  0.00    +0.019 C 
ATOM     12  C   UNL     1      31.660 -10.180 -19.268  0.00  0.00    +0.008 C 
ATOM     13  C   UNL     1      31.467 -11.955 -20.871  0.00  0.00    +0.001 C 
ATOM     14  C   UNL     1      31.432 -11.522 -19.554  0.00  0.00    +0.001 C 
ENDROOT
BRANCH   8  15
ATOM     15  S   UNL     1      31.455  -4.225 -25.112  0.00  0.00    +0.010 S 
ATOM     16  O   UNL     1      32.313  -4.792 -26.141  0.00  0.00    -0.169 OA
ATOM     17  O   UNL     1      30.031  -4.061 -25.368  0.00  0.00    -0.169 OA
ATOM     18  C   UNL     1      32.093  -2.620 -24.689  0.00  0.00    +0.182 C 
ENDBRANCH   8  15
BRANCH   2  19
ATOM     19  C   UNL     1      32.675  -9.299 -23.979  0.00  0.00    +0.093 C 
BRANCH  19  20
ATOM     20  C   UNL     1      34.110  -9.818 -23.893  0.00  0.00    -0.001 C 
BRANCH  20  21
ATOM     21  C   UNL     1      34.706 -10.269 -25.230  0.00  0.00    -0.076 C 
BRANCH  21  22
ATOM     22  N   UNL     1      34.560 -11.709 -25.437  0.00  0.00    +0.387 N 
ATOM     23  C   UNL     1      33.065 -14.207 -25.714  0.00  0.00    +0.072 C 
ATOM     24  C   UNL     1      33.670 -13.482 -26.916  0.00  0.00    -0.014 C 
ATOM     25  C   UNL     1      33.828 -13.852 -24.440  0.00  0.00    -0.014 C 
ATOM     26  C   UNL     1      33.785 -11.979 -26.656  0.00  0.00    -0.077 C 
ATOM     27  C   UNL     1      33.937 -12.336 -24.263  0.00  0.00    -0.077 C 
ATOM     28  H   UNL     1      35.487 -12.118 -25.557  0.00  0.00    -0.080 HD
BRANCH  23  31
ATOM     29  O   UNL     1      32.386 -16.236 -26.777  0.00  0.00    -0.275 OA
ATOM     30  N   UNL     1      34.001 -16.349 -25.143  0.00  0.00    -0.329 N 
ATOM     31  C   UNL     1      33.106 -15.686 -25.948  0.00  0.00    +0.219 C 
ATOM     32  H   UNL     1      34.103 -17.326 -25.220  0.00  0.00    +0.145 HD
ATOM     33  H   UNL     1      34.541 -15.848 -24.489  0.00  0.00    +0.145 HD
ENDBRANCH  23  31
ENDBRANCH  21  22
ENDBRANCH  20  21
ENDBRANCH  19  20
ENDBRANCH   2  19
TORSDOF 6
ENDMDL
MODEL 4
REMARK VINA RESULT:      -9.1     10.108     15.624
REMARK  Name = 26388
REMARK  6 active torsions:
REMARK  status: ('A' for Active; 'I' for Inactive)
REMARK    1  A    between atoms: N_2  and  C_19
REMARK    2  A    between atoms: C_8  and  S_15
REMARK    3  A    between atoms: C_19  and  C_20
REMARK    4  A    between atoms: C_20  and  C_21
REMARK    5  A    between atoms: C_21  and  N_22
REMARK    6  A    between atoms: C_23  and  C_31
REMARK                            x       y       z     vdW  Elec       q    Type
REMARK                         _______ _______ _______ _____ _____    ______ ____
ROOT
ATOM      1  S   UNL     1      32.367  -7.639 -19.841  0.00  0.00    -0.084 S 
ATOM      2  N   UNL     1      32.160  -8.827 -22.706  0.00  0.00    -0.286 N 
ATOM      3  C   UNL     1      32.037  -7.417 -22.615  0.00  0.00    +0.059 C 
ATOM      4  C   UNL     1      31.921  -9.736 -21.644  0.00  0.00    +0.058 C 
ATOM      5  C   UNL     1      32.090  -6.763 -21.368  0.00  0.00    +0.043 C 
ATOM      6  C   UNL     1      31.963  -9.312 -20.302  0.00  0.00    +0.043 C 
ATOM      7  C   UNL     1      31.822  -6.610 -23.753  0.00  0.00    +0.034 C 
ATOM      8  C   UNL     1      31.688  -5.221 -23.662  0.00  0.00    +0.107 C 
ATOM      9  C   UNL     1      31.596 -11.090 -21.878  0.00  0.00    +0.015 C 
ATOM     10  C   UNL     1      31.960  -5.366 -21.282  0.00  0.00    +0.009 C 
ATOM     11  C   UNL     1      31.760  -4.599 -22.425  0.00  0.00    +0.019 C 
ATOM     12  C   UNL     1      31.718 -10.216 -19.253  0.00  0.00    +0.008 C 
ATOM     13  C   UNL     1      31.349 -11.984 -20.833  0.00  0.00    +0.001 C 
ATOM     14  C   UNL     1      31.412 -11.546 -19.519  0.00  0.00    +0.001 C 
ENDROOT
BRANCH   8  15
ATOM     15  S   UNL     1      31.438  -4.271 -25.105  0.00  0.00    +0.010 S 
ATOM     16  O   UNL     1      32.362  -4.750 -26.122  0.00  0.00    -0.169 OA
ATOM     17  O   UNL     1      30.012  -4.216 -25.392  0.00  0.00    -0.169 OA
ATOM     18  C   UNL     1      31.937  -2.628 -24.643  0.00  0.00    +0.182 C 
ENDBRANCH   8  15
BRANCH   2  19
ATOM     19  C   UNL     1      32.491  -9.393 -24.021  0.00  0.00    +0.093 C 
BRANCH  19  20
ATOM     20  C   UNL     1      33.517 -10.517 -23.881  0.00  0.00    -0.001 C 
BRANCH  20  21
ATOM     21  C   UNL     1      33.578 -11.477 -25.074  0.00  0.00    -0.076 C 
BRANCH  21  22
ATOM     22  N   UNL     1      34.053 -12.804 -24.685  0.00  0.00    +0.387 N 
ATOM     23  C   UNL     1      33.786 -15.486 -23.549  0.00  0.00    +0.072 C 
ATOM     24  C   UNL     1      33.841 -15.241 -25.056  0.00  0.00    -0.014 C 
ATOM     25  C   UNL     1      34.481 -14.349 -22.801  0.00  0.00    -0.014 C 
ATOM     26  C   UNL     1      33.318 -13.848 -25.412  0.00  0.00    -0.077 C 
ATOM     27  C   UNL     1      33.935 -12.987 -23.232  0.00  0.00    -0.077 C 
ATOM     28  H   UNL     1      35.040 -12.883 -24.933  0.00  0.00    -0.080 HD
BRANCH  23  31
ATOM     29  O   UNL     1      34.280 -17.357 -22.149  0.00  0.00    -0.275 OA
ATOM     30  N   UNL     1      35.238 -17.275 -24.239  0.00  0.00    -0.329 N 
ATOM     31  C   UNL     1      34.441 -16.793 -23.229  0.00  0.00    +0.219 C 
ATOM     32  H   UNL     1      35.714 -18.131 -24.125  0.00  0.00    +0.145 HD
ATOM     33  H   UNL     1      35.334 -16.766 -25.076  0.00  0.00    +0.145 HD
ENDBRANCH  23  31
ENDBRANCH  21  22
ENDBRANCH  20  21
ENDBRANCH  19  20
ENDBRANCH   2  19
TORSDOF 6
ENDMDL
MODEL 5
REMARK VINA RESULT:      -9.0      3.473      6.463
REMARK  Name = 26388
REMARK  6 active torsions:
REMARK  status: ('A' for Active; 'I' for Inactive)
REMARK    1  A    between atoms: N_2  and  C_19
REMARK    2  A    between atoms: C_8  and  S_15
REMARK    3  A    between atoms: C_19  and  C_20
REMARK    4  A    between atoms: C_20  and  C_21
REMARK    5  A    between atoms: C_21  and  N_22
REMARK    6  A    between atoms: C_23  and  C_31
REMARK                            x       y       z     vdW  Elec       q    Type
REMARK                         _______ _______ _______ _____ _____    ______ ____
ROOT
ATOM      1  S   UNL     1      37.112 -21.325 -17.446  0.00  0.00    -0.084 S 
ATOM      2  N   UNL     1      34.821 -23.249 -16.598  0.00  0.00    -0.286 N 
ATOM      3  C   UNL     1      36.091 -23.514 -16.024  0.00  0.00    +0.059 C 
ATOM      4  C   UNL     1      34.605 -22.525 -17.798  0.00  0.00    +0.058 C 
ATOM      5  C   UNL     1      37.213 -22.726 -16.349  0.00  0.00    +0.043 C 
ATOM      6  C   UNL     1      35.579 -21.640 -18.298  0.00  0.00    +0.043 C 
ATOM      7  C   UNL     1      36.300 -24.591 -15.136  0.00  0.00    +0.034 C 
ATOM      8  C   UNL     1      37.555 -24.860 -14.580  0.00  0.00    +0.107 C 
ATOM      9  C   UNL     1      33.428 -22.683 -18.563  0.00  0.00    +0.015 C 
ATOM     10  C   UNL     1      38.471 -22.998 -15.784  0.00  0.00    +0.009 C 
ATOM     11  C   UNL     1      38.640 -24.060 -14.902  0.00  0.00    +0.019 C 
ATOM     12  C   UNL     1      35.362 -20.931 -19.494  0.00  0.00    +0.008 C 
ATOM     13  C   UNL     1      33.219 -21.980 -19.753  0.00  0.00    +0.001 C 
ATOM     14  C   UNL     1      34.187 -21.101 -20.217  0.00  0.00    +0.001 C 
ENDROOT
BRANCH   8  15
ATOM     15  S   UNL     1      37.751 -26.196 -13.474  0.00  0.00    +0.010 S 
ATOM     16  O   UNL     1      37.147 -27.373 -14.081  0.00  0.00    -0.169 OA
ATOM     17  O   UNL     1      39.138 -26.242 -13.033  0.00  0.00    -0.169 OA
ATOM     18  C   UNL     1      36.772 -25.746 -12.059  0.00  0.00    +0.182 C 
ENDBRANCH   8  15
BRANCH   2  19
ATOM     19  C   UNL     1      33.645 -23.829 -15.935  0.00  0.00    +0.093 C 
BRANCH  19  20
ATOM     20  C   UNL     1      33.542 -23.336 -14.492  0.00  0.00    -0.001 C 
BRANCH  20  21
ATOM     21  C   UNL     1      32.450 -24.019 -13.662  0.00  0.00    -0.076 C 
BRANCH  21  22
ATOM     22  N   UNL     1      31.115 -23.766 -14.202  0.00  0.00    +0.387 N 
ATOM     23  C   UNL     1      29.170 -23.248 -16.324  0.00  0.00    +0.072 C 
ATOM     24  C   UNL     1      29.305 -24.617 -15.658  0.00  0.00    -0.014 C 
ATOM     25  C   UNL     1      29.662 -22.150 -15.384  0.00  0.00    -0.014 C 
ATOM     26  C   UNL     1      30.721 -24.839 -15.126  0.00  0.00    -0.077 C 
ATOM     27  C   UNL     1      31.067 -22.454 -14.862  0.00  0.00    -0.077 C 
ATOM     28  H   UNL     1      30.447 -23.754 -13.431  0.00  0.00    -0.080 HD
BRANCH  23  31
ATOM     29  O   UNL     1      27.265 -23.410 -17.758  0.00  0.00    -0.275 OA
ATOM     30  N   UNL     1      27.034 -22.296 -15.758  0.00  0.00    -0.329 N 
ATOM     31  C   UNL     1      27.740 -23.010 -16.697  0.00  0.00    +0.219 C 
ATOM     32  H   UNL     1      26.083 -22.087 -15.910  0.00  0.00    +0.145 HD
ATOM     33  H   UNL     1      27.479 -21.994 -14.933  0.00  0.00    +0.145 HD
ENDBRANCH  23  31
ENDBRANCH  21  22
ENDBRANCH  20  21
ENDBRANCH  19  20
ENDBRANCH   2  19
TORSDOF 6
ENDMDL
MODEL 6
REMARK VINA RESULT:      -8.8      8.818     12.409
REMARK  Name = 26388
REMARK  6 active torsions:
REMARK  status: ('A' for Active; 'I' for Inactive)
REMARK    1  A    between atoms: N_2  and  C_19
REMARK    2  A    between atoms: C_8  and  S_15
REMARK    3  A    between atoms: C_19  and  C_20
REMARK    4  A    between atoms: C_20  and  C_21
REMARK    5  A    between atoms: C_21  and  N_22
REMARK    6  A    between atoms: C_23  and  C_31
REMARK                            x       y       z     vdW  Elec       q    Type
REMARK                         _______ _______ _______ _____ _____    ______ ____
ROOT
ATOM      1  S   UNL     1      33.535 -17.005 -24.966  0.00  0.00    -0.084 S 
ATOM      2  N   UNL     1      34.328 -15.314 -22.481  0.00  0.00    -0.286 N 
ATOM      3  C   UNL     1      34.103 -14.583 -23.675  0.00  0.00    +0.059 C 
ATOM      4  C   UNL     1      34.657 -16.692 -22.418  0.00  0.00    +0.058 C 
ATOM      5  C   UNL     1      33.761 -15.240 -24.874  0.00  0.00    +0.043 C 
ATOM      6  C   UNL     1      34.371 -17.556 -23.493  0.00  0.00    +0.043 C 
ATOM      7  C   UNL     1      34.244 -13.180 -23.731  0.00  0.00    +0.034 C 
ATOM      8  C   UNL     1      34.035 -12.461 -24.912  0.00  0.00    +0.107 C 
ATOM      9  C   UNL     1      35.317 -17.253 -21.303  0.00  0.00    +0.015 C 
ATOM     10  C   UNL     1      33.547 -14.511 -26.058  0.00  0.00    +0.009 C 
ATOM     11  C   UNL     1      33.683 -13.127 -26.075  0.00  0.00    +0.019 C 
ATOM     12  C   UNL     1      34.707 -18.921 -23.428  0.00  0.00    +0.008 C 
ATOM     13  C   UNL     1      35.653 -18.608 -21.245  0.00  0.00    +0.001 C 
ATOM     14  C   UNL     1      35.346 -19.443 -22.309  0.00  0.00    +0.001 C 
ENDROOT
BRANCH   8  15
ATOM     15  S   UNL     1      34.208 -10.723 -24.918  0.00  0.00    +0.010 S 
ATOM     16  O   UNL     1      32.930 -10.147 -25.307  0.00  0.00    -0.169 OA
ATOM     17  O   UNL     1      34.840 -10.308 -23.674  0.00  0.00    -0.169 OA
ATOM     18  C   UNL     1      35.374 -10.401 -26.223  0.00  0.00    +0.182 C 
ENDBRANCH   8  15
BRANCH   2  19
ATOM     19  C   UNL     1      34.285 -14.570 -21.215  0.00  0.00    +0.093 C 
BRANCH  19  20
ATOM     20  C   UNL     1      32.924 -14.734 -20.538  0.00  0.00    -0.001 C 
BRANCH  20  21
ATOM     21  C   UNL     1      31.821 -13.831 -21.100  0.00  0.00    -0.076 C 
BRANCH  21  22
ATOM     22  N   UNL     1      32.154 -12.414 -20.967  0.00  0.00    +0.387 N 
ATOM     23  C   UNL     1      31.554  -9.573 -20.616  0.00  0.00    +0.072 C 
ATOM     24  C   UNL     1      32.112 -10.434 -19.483  0.00  0.00    -0.014 C 
ATOM     25  C   UNL     1      31.940 -10.162 -21.970  0.00  0.00    -0.014 C 
ATOM     26  C   UNL     1      31.722 -11.903 -19.659  0.00  0.00    -0.077 C 
ATOM     27  C   UNL     1      31.554 -11.640 -22.063  0.00  0.00    -0.077 C 
ATOM     28  H   UNL     1      33.168 -12.309 -21.027  0.00  0.00    -0.080 HD
BRANCH  23  31
ATOM     29  O   UNL     1      32.593  -7.763 -19.453  0.00  0.00    -0.275 OA
ATOM     30  N   UNL     1      31.913  -7.418 -21.623  0.00  0.00    -0.329 N 
ATOM     31  C   UNL     1      32.079  -8.177 -20.490  0.00  0.00    +0.219 C 
ATOM     32  H   UNL     1      32.226  -6.483 -21.641  0.00  0.00    +0.145 HD
ATOM     33  H   UNL     1      31.481  -7.807 -22.418  0.00  0.00    +0.145 HD
ENDBRANCH  23  31
ENDBRANCH  21  22
ENDBRANCH  20  21
ENDBRANCH  19  20
ENDBRANCH   2  19
TORSDOF 6
ENDMDL
MODEL 7
REMARK VINA RESULT:      -8.5      9.541     12.825
REMARK  Name = 26388
REMARK  6 active torsions:
REMARK  status: ('A' for Active; 'I' for Inactive)
REMARK    1  A    between atoms: N_2  and  C_19
REMARK    2  A    between atoms: C_8  and  S_15
REMARK    3  A    between atoms: C_19  and  C_20
REMARK    4  A    between atoms: C_20  and  C_21
REMARK    5  A    between atoms: C_21  and  N_22
REMARK    6  A    between atoms: C_23  and  C_31
REMARK                            x       y       z     vdW  Elec       q    Type
REMARK                         _______ _______ _______ _____ _____    ______ ____
ROOT
ATOM      1  S   UNL     1      34.428 -16.180 -21.169  0.00  0.00    -0.084 S 
ATOM      2  N   UNL     1      33.674 -14.357 -23.571  0.00  0.00    -0.286 N 
ATOM      3  C   UNL     1      33.172 -13.949 -22.309  0.00  0.00    +0.059 C 
ATOM      4  C   UNL     1      34.073 -15.677 -23.902  0.00  0.00    +0.058 C 
ATOM      5  C   UNL     1      33.426 -14.706 -21.148  0.00  0.00    +0.043 C 
ATOM      6  C   UNL     1      34.415 -16.604 -22.899  0.00  0.00    +0.043 C 
ATOM      7  C   UNL     1      32.371 -12.796 -22.159  0.00  0.00    +0.034 C 
ATOM      8  C   UNL     1      31.866 -12.402 -20.917  0.00  0.00    +0.107 C 
ATOM      9  C   UNL     1      34.109 -16.134 -25.237  0.00  0.00    +0.015 C 
ATOM     10  C   UNL     1      32.920 -14.302 -19.900  0.00  0.00    +0.009 C 
ATOM     11  C   UNL     1      32.143 -13.154 -19.786  0.00  0.00    +0.019 C 
ATOM     12  C   UNL     1      34.803 -17.915 -23.232  0.00  0.00    +0.008 C 
ATOM     13  C   UNL     1      34.490 -17.438 -25.563  0.00  0.00    +0.001 C 
ATOM     14  C   UNL     1      34.840 -18.329 -24.559  0.00  0.00    +0.001 C 
ENDROOT
BRANCH   8  15
ATOM     15  S   UNL     1      30.894 -10.957 -20.788  0.00  0.00    +0.010 S 
ATOM     16  O   UNL     1      30.282 -10.711 -22.085  0.00  0.00    -0.169 OA
ATOM     17  O   UNL     1      30.056 -11.057 -19.601  0.00  0.00    -0.169 OA
ATOM     18  C   UNL     1      32.071  -9.659 -20.483  0.00  0.00    +0.182 C 
ENDBRANCH   8  15
BRANCH   2  19
ATOM     19  C   UNL     1      33.717 -13.349 -24.639  0.00  0.00    +0.093 C 
BRANCH  19  20
ATOM     20  C   UNL     1      34.103 -11.982 -24.075  0.00  0.00    -0.001 C 
BRANCH  20  21
ATOM     21  C   UNL     1      34.503 -10.947 -25.131  0.00  0.00    -0.076 C 
BRANCH  21  22
ATOM     22  N   UNL     1      33.960  -9.622 -24.831  0.00  0.00    +0.387 N 
ATOM     23  C   UNL     1      33.009  -7.484 -23.077  0.00  0.00    +0.072 C 
ATOM     24  C   UNL     1      34.382  -7.439 -23.746  0.00  0.00    -0.014 C 
ATOM     25  C   UNL     1      32.054  -8.362 -23.884  0.00  0.00    -0.014 C 
ATOM     26  C   UNL     1      34.912  -8.847 -24.022  0.00  0.00    -0.077 C 
ATOM     27  C   UNL     1      32.661  -9.739 -24.155  0.00  0.00    -0.077 C 
ATOM     28  H   UNL     1      33.814  -9.122 -25.709  0.00  0.00    -0.080 HD
BRANCH  23  31
ATOM     29  O   UNL     1      32.316  -5.366 -23.938  0.00  0.00    -0.275 OA
ATOM     30  N   UNL     1      32.164  -5.724 -21.670  0.00  0.00    -0.329 N 
ATOM     31  C   UNL     1      32.462  -6.095 -22.960  0.00  0.00    +0.219 C 
ATOM     32  H   UNL     1      31.799  -4.828 -21.488  0.00  0.00    +0.145 HD
ATOM     33  H   UNL     1      32.317  -6.354 -20.929  0.00  0.00    +0.145 HD
ENDBRANCH  23  31
ENDBRANCH  21  22
ENDBRANCH  20  21
ENDBRANCH  19  20
ENDBRANCH   2  19
TORSDOF 6
ENDMDL
MODEL 8
REMARK VINA RESULT:      -8.4     10.666     14.182
REMARK  Name = 26388
REMARK  6 active torsions:
REMARK  status: ('A' for Active; 'I' for Inactive)
REMARK    1  A    between atoms: N_2  and  C_19
REMARK    2  A    between atoms: C_8  and  S_15
REMARK    3  A    between atoms: C_19  and  C_20
REMARK    4  A    between atoms: C_20  and  C_21
REMARK    5  A    between atoms: C_21  and  N_22
REMARK    6  A    between atoms: C_23  and  C_31
REMARK                            x       y       z     vdW  Elec       q    Type
REMARK                         _______ _______ _______ _____ _____    ______ ____
ROOT
ATOM      1  S   UNL     1      33.658 -14.992 -23.146  0.00  0.00    -0.084 S 
ATOM      2  N   UNL     1      33.100 -12.018 -23.859  0.00  0.00    -0.286 N 
ATOM      3  C   UNL     1      32.774 -12.403 -22.534  0.00  0.00    +0.059 C 
ATOM      4  C   UNL     1      33.217 -12.903 -24.961  0.00  0.00    +0.058 C 
ATOM      5  C   UNL     1      32.959 -13.731 -22.099  0.00  0.00    +0.043 C 
ATOM      6  C   UNL     1      33.445 -14.279 -24.765  0.00  0.00    +0.043 C 
ATOM      7  C   UNL     1      32.219 -11.496 -21.606  0.00  0.00    +0.034 C 
ATOM      8  C   UNL     1      31.885 -11.880 -20.304  0.00  0.00    +0.107 C 
ATOM      9  C   UNL     1      33.074 -12.460 -26.294  0.00  0.00    +0.015 C 
ATOM     10  C   UNL     1      32.626 -14.110 -20.786  0.00  0.00    +0.009 C 
ATOM     11  C   UNL     1      32.092 -13.188 -19.893  0.00  0.00    +0.019 C 
ATOM     12  C   UNL     1      33.552 -15.154 -25.861  0.00  0.00    +0.008 C 
ATOM     13  C   UNL     1      33.176 -13.334 -27.379  0.00  0.00    +0.001 C 
ATOM     14  C   UNL     1      33.418 -14.683 -27.162  0.00  0.00    +0.001 C 
ENDROOT
BRANCH   8  15
ATOM     15  S   UNL     1      31.217 -10.710 -19.193  0.00  0.00    +0.010 S 
ATOM     16  O   UNL     1      29.814 -10.522 -19.530  0.00  0.00    -0.169 OA
ATOM     17  O   UNL     1      31.590 -11.083 -17.836  0.00  0.00    -0.169 OA
ATOM     18  C   UNL     1      32.079  -9.201 -19.570  0.00  0.00    +0.182 C 
ENDBRANCH   8  15
BRANCH   2  19
ATOM     19  C   UNL     1      33.261 -10.582 -24.125  0.00  0.00    +0.093 C 
BRANCH  19  20
ATOM     20  C   UNL     1      34.741 -10.206 -24.185  0.00  0.00    -0.001 C 
BRANCH  20  21
ATOM     21  C   UNL     1      35.026  -8.710 -24.026  0.00  0.00    -0.076 C 
BRANCH  21  22
ATOM     22  N   UNL     1      33.797  -7.931 -23.883  0.00  0.00    +0.387 N 
ATOM     23  C   UNL     1      32.221  -5.580 -23.148  0.00  0.00    +0.072 C 
ATOM     24  C   UNL     1      32.564  -5.909 -24.600  0.00  0.00    -0.014 C 
ATOM     25  C   UNL     1      32.237  -6.848 -22.298  0.00  0.00    -0.014 C 
ATOM     26  C   UNL     1      33.865  -6.708 -24.696  0.00  0.00    -0.077 C 
ATOM     27  C   UNL     1      33.550  -7.615 -22.470  0.00  0.00    -0.077 C 
ATOM     28  H   UNL     1      33.014  -8.491 -24.222  0.00  0.00    -0.080 HD
BRANCH  23  31
ATOM     29  O   UNL     1      30.133  -5.055 -22.112  0.00  0.00    -0.275 OA
ATOM     30  N   UNL     1      30.551  -4.214 -24.213  0.00  0.00    -0.329 N 
ATOM     31  C   UNL     1      30.874  -4.931 -23.085  0.00  0.00    +0.219 C 
ATOM     32  H   UNL     1      29.684  -3.749 -24.269  0.00  0.00    +0.145 HD
ATOM     33  H   UNL     1      31.186  -4.165 -24.964  0.00  0.00    +0.145 HD
ENDBRANCH  23  31
ENDBRANCH  21  22
ENDBRANCH  20  21
ENDBRANCH  19  20
ENDBRANCH   2  19
TORSDOF 6
ENDMDL
MODEL 9
REMARK VINA RESULT:      -8.4      8.656     13.932
REMARK  Name = 26388
REMARK  6 active torsions:
REMARK  status: ('A' for Active; 'I' for Inactive)
REMARK    1  A    between atoms: N_2  and  C_19
REMARK    2  A    between atoms: C_8  and  S_15
REMARK    3  A    between atoms: C_19  and  C_20
REMARK    4  A    between atoms: C_20  and  C_21
REMARK    5  A    between atoms: C_21  and  N_22
REMARK    6  A    between atoms: C_23  and  C_31
REMARK                            x       y       z     vdW  Elec       q    Type
REMARK                         _______ _______ _______ _____ _____    ______ ____
ROOT
ATOM      1  S   UNL     1      35.018  -8.414 -23.676  0.00  0.00    -0.084 S 
ATOM      2  N   UNL     1      32.698 -10.383 -23.037  0.00  0.00    -0.286 N 
ATOM      3  C   UNL     1      33.438 -10.665 -24.214  0.00  0.00    +0.059 C 
ATOM      4  C   UNL     1      32.619  -9.114 -22.410  0.00  0.00    +0.058 C 
ATOM      5  C   UNL     1      34.498  -9.831 -24.623  0.00  0.00    +0.043 C 
ATOM      6  C   UNL     1      33.598  -8.127 -22.640  0.00  0.00    +0.043 C 
ATOM      7  C   UNL     1      33.129 -11.762 -25.047  0.00  0.00    +0.034 C 
ATOM      8  C   UNL     1      33.850 -12.033 -26.214  0.00  0.00    +0.107 C 
ATOM      9  C   UNL     1      31.545  -8.766 -21.561  0.00  0.00    +0.015 C 
ATOM     10  C   UNL     1      35.223 -10.111 -25.795  0.00  0.00    +0.009 C 
ATOM     11  C   UNL     1      34.900 -11.208 -26.586  0.00  0.00    +0.019 C 
ATOM     12  C   UNL     1      33.509  -6.867 -22.020  0.00  0.00    +0.008 C 
ATOM     13  C   UNL     1      31.459  -7.511 -20.952  0.00  0.00    +0.001 C 
ATOM     14  C   UNL     1      32.444  -6.562 -21.180  0.00  0.00    +0.001 C 
ENDROOT
BRANCH   8  15
ATOM     15  S   UNL     1      33.433 -13.414 -27.197  0.00  0.00    +0.010 S 
ATOM     16  O   UNL     1      32.115 -13.178 -27.767  0.00  0.00    -0.169 OA
ATOM     17  O   UNL     1      34.554 -13.724 -28.073  0.00  0.00    -0.169 OA
ATOM     18  C   UNL     1      33.296 -14.756 -26.038  0.00  0.00    +0.182 C 
ENDBRANCH   8  15
BRANCH   2  19
ATOM     19  C   UNL     1      31.897 -11.473 -22.465  0.00  0.00    +0.093 C 
BRANCH  19  20
ATOM     20  C   UNL     1      32.802 -12.555 -21.876  0.00  0.00    -0.001 C 
BRANCH  20  21
ATOM     21  C   UNL     1      32.085 -13.864 -21.528  0.00  0.00    -0.076 C 
BRANCH  21  22
ATOM     22  N   UNL     1      32.870 -15.036 -21.912  0.00  0.00    +0.387 N 
ATOM     23  C   UNL     1      35.157 -16.855 -21.772  0.00  0.00    +0.072 C 
ATOM     24  C   UNL     1      33.797 -17.207 -21.170  0.00  0.00    -0.014 C 
ATOM     25  C   UNL     1      34.990 -15.840 -22.901  0.00  0.00    -0.014 C 
ATOM     26  C   UNL     1      33.024 -15.949 -20.770  0.00  0.00    -0.077 C 
ATOM     27  C   UNL     1      34.178 -14.628 -22.443  0.00  0.00    -0.077 C 
ATOM     28  H   UNL     1      32.373 -15.536 -22.650  0.00  0.00    -0.080 HD
BRANCH  23  31
ATOM     29  O   UNL     1      36.307 -18.935 -21.531  0.00  0.00    -0.275 OA
ATOM     30  N   UNL     1      35.831 -18.192 -23.656  0.00  0.00    -0.329 N 
ATOM     31  C   UNL     1      35.816 -18.097 -22.284  0.00  0.00    +0.219 C 
ATOM     32  H   UNL     1      36.243 -18.974 -24.091  0.00  0.00    +0.145 HD
ATOM     33  H   UNL     1      35.430 -17.478 -24.203  0.00  0.00    +0.145 HD
ENDBRANCH  23  31
ENDBRANCH  21  22
ENDBRANCH  20  21
ENDBRANCH  19  20
ENDBRANCH   2  19
TORSDOF 6
ENDMDL
