MODEL 1
REMARK VINA RESULT:      -9.0      0.000      0.000
REMARK  Name = 5656
REMARK  6 active torsions:
REMARK  status: ('A' for Active; 'I' for Inactive)
REMARK    1  A    between atoms: C_1  and  C_2
REMARK    2  A    between atoms: C_1  and  C_10
REMARK    3  A    between atoms: C_1  and  C_18
REMARK    4  A    between atoms: C_2  and  O_8
REMARK    5  A    between atoms: C_15  and  O_16
REMARK    6  A    between atoms: C_18  and  N_19
REMARK                            x       y       z     vdW  Elec       q    Type
REMARK                         _______ _______ _______ _____ _____    ______ ____
ROOT
ATOM      1  C   UNL     1      34.446 -17.930 -22.200  0.00  0.00    +0.026 C 
ENDROOT
BRANCH   1   2
ATOM      2  C   UNL     1      34.245 -16.650 -21.387  0.00  0.00    +0.090 C 
ATOM      3  C   UNL     1      32.811 -16.583 -20.838  0.00  0.00    +0.027 C 
ATOM      4  C   UNL     1      34.563 -15.410 -22.239  0.00  0.00    +0.027 C 
ATOM      5  C   UNL     1      32.534 -15.275 -20.095  0.00  0.00    +0.002 C 
ATOM      6  C   UNL     1      34.282 -14.106 -21.490  0.00  0.00    +0.002 C 
ATOM      7  C   UNL     1      32.853 -14.059 -20.959  0.00  0.00    +0.000 C 
BRANCH   2   8
ATOM      8  O   UNL     1      35.142 -16.693 -20.274  0.00  0.00    -0.386 OA
ATOM      9  H   UNL     1      34.739 -17.205 -19.554  0.00  0.00    +0.210 HD
ENDBRANCH   2   8
ENDBRANCH   1   2
BRANCH   1  10
ATOM     10  C   UNL     1      34.531 -19.145 -21.285  0.00  0.00    -0.022 C 
ATOM     11  C   UNL     1      33.363 -19.719 -20.831  0.00  0.00    -0.001 C 
ATOM     12  C   UNL     1      35.775 -19.632 -20.939  0.00  0.00    -0.001 C 
ATOM     13  C   UNL     1      33.441 -20.831 -19.993  0.00  0.00    +0.037 C 
ATOM     14  C   UNL     1      35.853 -20.744 -20.101  0.00  0.00    +0.037 C 
ATOM     15  C   UNL     1      34.685 -21.344 -19.628  0.00  0.00    +0.139 C 
BRANCH  15  16
ATOM     16  O   UNL     1      34.760 -22.429 -18.810  0.00  0.00    -0.471 OA
ATOM     17  C   UNL     1      33.563 -22.825 -18.143  0.00  0.00    +0.252 C 
ENDBRANCH  15  16
ENDBRANCH   1  10
BRANCH   1  18
ATOM     18  C   UNL     1      35.680 -17.867 -23.127  0.00  0.00    -0.071 C 
BRANCH  18  19
ATOM     19  N   UNL     1      35.334 -18.125 -24.521  0.00  0.00    +0.384 N 
ATOM     20  C   UNL     1      34.697 -16.950 -25.118  0.00  0.00    -0.101 C 
ATOM     21  C   UNL     1      34.452 -19.288 -24.625  0.00  0.00    -0.101 C 
ATOM     22  H   UNL     1      36.192 -18.324 -25.034  0.00  0.00    -0.080 HD
ENDBRANCH  18  19
ENDBRANCH   1  18
TORSDOF 6
ENDMDL
MODEL 2
REMARK VINA RESULT:      -8.8      0.784      1.385
REMARK  Name = 5656
REMARK  6 active torsions:
REMARK  status: ('A' for Active; 'I' for Inactive)
REMARK    1  A    between atoms: C_1  and  C_2
REMARK    2  A    between atoms: C_1  and  C_10
REMARK    3  A    between atoms: C_1  and  C_18
REMARK    4  A    between atoms: C_2  and  O_8
REMARK    5  A    between atoms: C_15  and  O_16
REMARK    6  A    between atoms: C_18  and  N_19
REMARK                            x       y       z     vdW  Elec       q    Type
REMARK                         _______ _______ _______ _____ _____    ______ ____
ROOT
ATOM      1  C   UNL     1      34.492 -17.683 -22.184  0.00  0.00    +0.026 C 
ENDROOT
BRANCH   1   2
ATOM      2  C   UNL     1      34.216 -16.434 -21.345  0.00  0.00    +0.090 C 
ATOM      3  C   UNL     1      32.761 -16.431 -20.850  0.00  0.00    +0.027 C 
ATOM      4  C   UNL     1      34.525 -15.161 -22.149  0.00  0.00    +0.027 C 
ATOM      5  C   UNL     1      32.412 -15.154 -20.083  0.00  0.00    +0.002 C 
ATOM      6  C   UNL     1      34.171 -13.889 -21.377  0.00  0.00    +0.002 C 
ATOM      7  C   UNL     1      32.722 -13.904 -20.900  0.00  0.00    +0.000 C 
BRANCH   2   8
ATOM      8  O   UNL     1      35.072 -16.480 -20.199  0.00  0.00    -0.386 OA
ATOM      9  H   UNL     1      34.532 -16.526 -19.394  0.00  0.00    +0.210 HD
ENDBRANCH   2   8
ENDBRANCH   1   2
BRANCH   1  10
ATOM     10  C   UNL     1      34.821 -18.874 -21.292  0.00  0.00    -0.022 C 
ATOM     11  C   UNL     1      36.141 -19.133 -20.989  0.00  0.00    -0.001 C 
ATOM     12  C   UNL     1      33.788 -19.653 -20.814  0.00  0.00    -0.001 C 
ATOM     13  C   UNL     1      36.443 -20.222 -20.172  0.00  0.00    +0.037 C 
ATOM     14  C   UNL     1      34.090 -20.743 -19.996  0.00  0.00    +0.037 C 
ATOM     15  C   UNL     1      35.418 -21.027 -19.676  0.00  0.00    +0.139 C 
BRANCH  15  16
ATOM     16  O   UNL     1      35.713 -22.090 -18.879  0.00  0.00    -0.471 OA
ATOM     17  C   UNL     1      36.735 -21.905 -17.900  0.00  0.00    +0.252 C 
ENDBRANCH  15  16
ENDBRANCH   1  10
BRANCH   1  18
ATOM     18  C   UNL     1      35.607 -17.472 -23.231  0.00  0.00    -0.071 C 
BRANCH  18  19
ATOM     19  N   UNL     1      35.162 -17.801 -24.582  0.00  0.00    +0.384 N 
ATOM     20  C   UNL     1      34.272 -16.760 -25.098  0.00  0.00    -0.101 C 
ATOM     21  C   UNL     1      34.487 -19.100 -24.598  0.00  0.00    -0.101 C 
ATOM     22  H   UNL     1      35.981 -17.855 -25.186  0.00  0.00    -0.080 HD
ENDBRANCH  18  19
ENDBRANCH   1  18
TORSDOF 6
ENDMDL
MODEL 3
REMARK VINA RESULT:      -8.3      1.571      3.535
REMARK  Name = 5656
REMARK  6 active torsions:
REMARK  status: ('A' for Active; 'I' for Inactive)
REMARK    1  A    between atoms: C_1  and  C_2
REMARK    2  A    between atoms: C_1  and  C_10
REMARK    3  A    between atoms: C_1  and  C_18
REMARK    4  A    between atoms: C_2  and  O_8
REMARK    5  A    between atoms: C_15  and  O_16
REMARK    6  A    between atoms: C_18  and  N_19
REMARK                            x       y       z     vdW  Elec       q    Type
REMARK                         _______ _______ _______ _____ _____    ______ ____
ROOT
ATOM      1  C   UNL     1      34.556 -17.789 -21.372  0.00  0.00    +0.026 C 
ENDROOT
BRANCH   1   2
ATOM      2  C   UNL     1      34.993 -17.869 -22.836  0.00  0.00    +0.090 C 
ATOM      3  C   UNL     1      34.498 -16.638 -23.612  0.00  0.00    +0.027 C 
ATOM      4  C   UNL     1      34.484 -19.167 -23.485  0.00  0.00    +0.027 C 
ATOM      5  C   UNL     1      34.830 -16.719 -25.103  0.00  0.00    +0.002 C 
ATOM      6  C   UNL     1      34.819 -19.240 -24.976  0.00  0.00    +0.002 C 
ATOM      7  C   UNL     1      34.313 -18.011 -25.726  0.00  0.00    +0.000 C 
BRANCH   2   8
ATOM      8  O   UNL     1      36.423 -17.863 -22.867  0.00  0.00    -0.386 OA
ATOM      9  H   UNL     1      36.729 -18.179 -23.732  0.00  0.00    +0.210 HD
ENDBRANCH   2   8
ENDBRANCH   1   2
BRANCH   1  10
ATOM     10  C   UNL     1      34.495 -19.178 -20.749  0.00  0.00    -0.022 C 
ATOM     11  C   UNL     1      33.262 -19.743 -20.502  0.00  0.00    -0.001 C 
ATOM     12  C   UNL     1      35.676 -19.827 -20.452  0.00  0.00    -0.001 C 
ATOM     13  C   UNL     1      33.206 -21.013 -19.932  0.00  0.00    +0.037 C 
ATOM     14  C   UNL     1      35.620 -21.098 -19.881  0.00  0.00    +0.037 C 
ATOM     15  C   UNL     1      34.383 -21.692 -19.621  0.00  0.00    +0.139 C 
BRANCH  15  16
ATOM     16  O   UNL     1      34.328 -22.933 -19.064  0.00  0.00    -0.471 OA
ATOM     17  C   UNL     1      33.639 -23.056 -17.821  0.00  0.00    +0.252 C 
ENDBRANCH  15  16
ENDBRANCH   1  10
BRANCH   1  18
ATOM     18  C   UNL     1      33.211 -17.055 -21.184  0.00  0.00    -0.071 C 
BRANCH  18  19
ATOM     19  N   UNL     1      33.364 -15.810 -20.438  0.00  0.00    +0.384 N 
ATOM     20  C   UNL     1      32.583 -14.740 -21.060  0.00  0.00    -0.101 C 
ATOM     21  C   UNL     1      34.775 -15.429 -20.358  0.00  0.00    -0.101 C 
ATOM     22  H   UNL     1      33.015 -15.957 -19.492  0.00  0.00    -0.080 HD
ENDBRANCH  18  19
ENDBRANCH   1  18
TORSDOF 6
ENDMDL
MODEL 4
REMARK VINA RESULT:      -7.6      6.427      9.547
REMARK  Name = 5656
REMARK  6 active torsions:
REMARK  status: ('A' for Active; 'I' for Inactive)
REMARK    1  A    between atoms: C_1  and  C_2
REMARK    2  A    between atoms: C_1  and  C_10
REMARK    3  A    between atoms: C_1  and  C_18
REMARK    4  A    between atoms: C_2  and  O_8
REMARK    5  A    between atoms: C_15  and  O_16
REMARK    6  A    between atoms: C_18  and  N_19
REMARK                            x       y       z     vdW  Elec       q    Type
REMARK                         _______ _______ _______ _____ _____    ______ ____
ROOT
ATOM      1  C   UNL     1      34.752 -23.155 -15.174  0.00  0.00    +0.026 C 
ENDROOT
BRANCH   1   2
ATOM      2  C   UNL     1      35.202 -24.331 -14.305  0.00  0.00    +0.090 C 
ATOM      3  C   UNL     1      35.678 -23.832 -12.932  0.00  0.00    +0.027 C 
ATOM      4  C   UNL     1      36.307 -25.135 -15.010  0.00  0.00    +0.027 C 
ATOM      5  C   UNL     1      36.226 -24.964 -12.061  0.00  0.00    +0.002 C 
ATOM      6  C   UNL     1      36.851 -26.263 -14.132  0.00  0.00    +0.002 C 
ATOM      7  C   UNL     1      37.323 -25.744 -12.777  0.00  0.00    +0.000 C 
BRANCH   2   8
ATOM      8  O   UNL     1      34.069 -25.180 -14.097  0.00  0.00    -0.386 OA
ATOM      9  H   UNL     1      33.409 -24.712 -13.562  0.00  0.00    +0.210 HD
ENDBRANCH   2   8
ENDBRANCH   1   2
BRANCH   1  10
ATOM     10  C   UNL     1      33.233 -23.119 -15.291  0.00  0.00    -0.022 C 
ATOM     11  C   UNL     1      32.482 -22.926 -14.151  0.00  0.00    -0.001 C 
ATOM     12  C   UNL     1      32.657 -23.279 -16.535  0.00  0.00    -0.001 C 
ATOM     13  C   UNL     1      31.093 -22.893 -14.258  0.00  0.00    +0.037 C 
ATOM     14  C   UNL     1      31.267 -23.246 -16.642  0.00  0.00    +0.037 C 
ATOM     15  C   UNL     1      30.484 -23.053 -15.502  0.00  0.00    +0.139 C 
BRANCH  15  16
ATOM     16  O   UNL     1      29.127 -23.020 -15.606  0.00  0.00    -0.471 OA
ATOM     17  C   UNL     1      28.533 -23.842 -16.610  0.00  0.00    +0.252 C 
ENDBRANCH  15  16
ENDBRANCH   1  10
BRANCH   1  18
ATOM     18  C   UNL     1      35.399 -23.160 -16.576  0.00  0.00    -0.071 C 
BRANCH  18  19
ATOM     19  N   UNL     1      36.158 -21.940 -16.835  0.00  0.00    +0.384 N 
ATOM     20  C   UNL     1      36.321 -21.732 -18.274  0.00  0.00    -0.101 C 
ATOM     21  C   UNL     1      37.465 -21.999 -16.178  0.00  0.00    -0.101 C 
ATOM     22  H   UNL     1      35.639 -21.151 -16.451  0.00  0.00    -0.080 HD
ENDBRANCH  18  19
ENDBRANCH   1  18
TORSDOF 6
ENDMDL
MODEL 5
REMARK VINA RESULT:      -7.6      4.657      7.702
REMARK  Name = 5656
REMARK  6 active torsions:
REMARK  status: ('A' for Active; 'I' for Inactive)
REMARK    1  A    between atoms: C_1  and  C_2
REMARK    2  A    between atoms: C_1  and  C_10
REMARK    3  A    between atoms: C_1  and  C_18
REMARK    4  A    between atoms: C_2  and  O_8
REMARK    5  A    between atoms: C_15  and  O_16
REMARK    6  A    between atoms: C_18  and  N_19
REMARK                            x       y       z     vdW  Elec       q    Type
REMARK                         _______ _______ _______ _____ _____    ______ ____
ROOT
ATOM      1  C   UNL     1      33.923 -22.700 -16.909  0.00  0.00    +0.026 C 
ENDROOT
BRANCH   1   2
ATOM      2  C   UNL     1      34.161 -22.400 -18.390  0.00  0.00    +0.090 C 
ATOM      3  C   UNL     1      35.578 -21.844 -18.604  0.00  0.00    +0.027 C 
ATOM      4  C   UNL     1      33.102 -21.422 -18.924  0.00  0.00    +0.027 C 
ATOM      5  C   UNL     1      35.831 -21.441 -20.058  0.00  0.00    +0.002 C 
ATOM      6  C   UNL     1      33.363 -21.023 -20.377  0.00  0.00    +0.002 C 
ATOM      7  C   UNL     1      34.771 -20.468 -20.564  0.00  0.00    +0.000 C 
BRANCH   2   8
ATOM      8  O   UNL     1      34.059 -23.634 -19.108  0.00  0.00    -0.386 OA
ATOM      9  H   UNL     1      33.439 -24.223 -18.651  0.00  0.00    +0.210 HD
ENDBRANCH   2   8
ENDBRANCH   1   2
BRANCH   1  10
ATOM     10  C   UNL     1      35.207 -23.172 -16.239  0.00  0.00    -0.022 C 
ATOM     11  C   UNL     1      36.303 -22.335 -16.238  0.00  0.00    -0.001 C 
ATOM     12  C   UNL     1      35.232 -24.420 -15.653  0.00  0.00    -0.001 C 
ATOM     13  C   UNL     1      37.478 -22.767 -15.625  0.00  0.00    +0.037 C 
ATOM     14  C   UNL     1      36.408 -24.852 -15.038  0.00  0.00    +0.037 C 
ATOM     15  C   UNL     1      37.532 -24.024 -15.025  0.00  0.00    +0.139 C 
BRANCH  15  16
ATOM     16  O   UNL     1      38.679 -24.445 -14.426  0.00  0.00    -0.471 OA
ATOM     17  C   UNL     1      38.579 -25.557 -13.537  0.00  0.00    +0.252 C 
ENDBRANCH  15  16
ENDBRANCH   1  10
BRANCH   1  18
ATOM     18  C   UNL     1      32.788 -23.722 -16.677  0.00  0.00    -0.071 C 
BRANCH  18  19
ATOM     19  N   UNL     1      31.796 -23.234 -15.724  0.00  0.00    +0.384 N 
ATOM     20  C   UNL     1      31.593 -24.207 -14.650  0.00  0.00    -0.101 C 
ATOM     21  C   UNL     1      30.529 -22.952 -16.401  0.00  0.00    -0.101 C 
ATOM     22  H   UNL     1      32.143 -22.367 -15.314  0.00  0.00    -0.080 HD
ENDBRANCH  18  19
ENDBRANCH   1  18
TORSDOF 6
ENDMDL
MODEL 6
REMARK VINA RESULT:      -7.5      4.711      9.332
REMARK  Name = 5656
REMARK  6 active torsions:
REMARK  status: ('A' for Active; 'I' for Inactive)
REMARK    1  A    between atoms: C_1  and  C_2
REMARK    2  A    between atoms: C_1  and  C_10
REMARK    3  A    between atoms: C_1  and  C_18
REMARK    4  A    between atoms: C_2  and  O_8
REMARK    5  A    between atoms: C_15  and  O_16
REMARK    6  A    between atoms: C_18  and  N_19
REMARK                            x       y       z     vdW  Elec       q    Type
REMARK                         _______ _______ _______ _____ _____    ______ ____
ROOT
ATOM      1  C   UNL     1      33.959 -23.855 -15.546  0.00  0.00    +0.026 C 
ENDROOT
BRANCH   1   2
ATOM      2  C   UNL     1      34.972 -24.355 -14.515  0.00  0.00    +0.090 C 
ATOM      3  C   UNL     1      35.792 -23.182 -13.955  0.00  0.00    +0.027 C 
ATOM      4  C   UNL     1      35.892 -25.422 -15.131  0.00  0.00    +0.027 C 
ATOM      5  C   UNL     1      36.883 -23.645 -12.988  0.00  0.00    +0.002 C 
ATOM      6  C   UNL     1      36.981 -25.879 -14.158  0.00  0.00    +0.002 C 
ATOM      7  C   UNL     1      37.785 -24.700 -13.620  0.00  0.00    +0.000 C 
BRANCH   2   8
ATOM      8  O   UNL     1      34.241 -24.939 -13.432  0.00  0.00    -0.386 OA
ATOM      9  H   UNL     1      34.791 -25.608 -12.995  0.00  0.00    +0.210 HD
ENDBRANCH   2   8
ENDBRANCH   1   2
BRANCH   1  10
ATOM     10  C   UNL     1      34.656 -23.089 -16.663  0.00  0.00    -0.022 C 
ATOM     11  C   UNL     1      33.981 -22.878 -17.847  0.00  0.00    -0.001 C 
ATOM     12  C   UNL     1      35.940 -22.630 -16.454  0.00  0.00    -0.001 C 
ATOM     13  C   UNL     1      34.620 -22.178 -18.869  0.00  0.00    +0.037 C 
ATOM     14  C   UNL     1      36.579 -21.929 -17.477  0.00  0.00    +0.037 C 
ATOM     15  C   UNL     1      35.918 -21.703 -18.686  0.00  0.00    +0.139 C 
BRANCH  15  16
ATOM     16  O   UNL     1      36.541 -21.019 -19.684  0.00  0.00    -0.471 OA
ATOM     17  C   UNL     1      35.712 -20.282 -20.582  0.00  0.00    +0.252 C 
ENDBRANCH  15  16
ENDBRANCH   1  10
BRANCH   1  18
ATOM     18  C   UNL     1      32.839 -22.994 -14.922  0.00  0.00    -0.071 C 
BRANCH  18  19
ATOM     19  N   UNL     1      31.556 -23.691 -14.900  0.00  0.00    +0.384 N 
ATOM     20  C   UNL     1      30.649 -23.128 -15.901  0.00  0.00    -0.101 C 
ATOM     21  C   UNL     1      30.954 -23.618 -13.568  0.00  0.00    -0.101 C 
ATOM     22  H   UNL     1      31.720 -24.672 -15.127  0.00  0.00    -0.080 HD
ENDBRANCH  18  19
ENDBRANCH   1  18
TORSDOF 6
ENDMDL
MODEL 7
REMARK VINA RESULT:      -7.4      5.523      9.423
REMARK  Name = 5656
REMARK  6 active torsions:
REMARK  status: ('A' for Active; 'I' for Inactive)
REMARK    1  A    between atoms: C_1  and  C_2
REMARK    2  A    between atoms: C_1  and  C_10
REMARK    3  A    between atoms: C_1  and  C_18
REMARK    4  A    between atoms: C_2  and  O_8
REMARK    5  A    between atoms: C_15  and  O_16
REMARK    6  A    between atoms: C_18  and  N_19
REMARK                            x       y       z     vdW  Elec       q    Type
REMARK                         _______ _______ _______ _____ _____    ______ ____
ROOT
ATOM      1  C   UNL     1      34.255 -23.611 -14.465  0.00  0.00    +0.026 C 
ENDROOT
BRANCH   1   2
ATOM      2  C   UNL     1      32.767 -23.603 -14.110  0.00  0.00    +0.090 C 
ATOM      3  C   UNL     1      32.194 -25.028 -14.163  0.00  0.00    +0.027 C 
ATOM      4  C   UNL     1      31.990 -22.665 -15.048  0.00  0.00    +0.027 C 
ATOM      5  C   UNL     1      30.686 -25.058 -13.906  0.00  0.00    +0.002 C 
ATOM      6  C   UNL     1      30.483 -22.702 -14.786  0.00  0.00    +0.002 C 
ATOM      7  C   UNL     1      29.936 -24.125 -14.850  0.00  0.00    +0.000 C 
BRANCH   2   8
ATOM      8  O   UNL     1      32.640 -23.127 -12.767  0.00  0.00    -0.386 OA
ATOM      9  H   UNL     1      33.493 -22.772 -12.468  0.00  0.00    +0.210 HD
ENDBRANCH   2   8
ENDBRANCH   1   2
BRANCH   1  10
ATOM     10  C   UNL     1      34.470 -23.159 -15.904  0.00  0.00    -0.022 C 
ATOM     11  C   UNL     1      33.502 -23.444 -16.843  0.00  0.00    -0.001 C 
ATOM     12  C   UNL     1      35.627 -22.478 -16.221  0.00  0.00    -0.001 C 
ATOM     13  C   UNL     1      33.700 -23.031 -18.160  0.00  0.00    +0.037 C 
ATOM     14  C   UNL     1      35.825 -22.064 -17.538  0.00  0.00    +0.037 C 
ATOM     15  C   UNL     1      34.860 -22.341 -18.508  0.00  0.00    +0.139 C 
BRANCH  15  16
ATOM     16  O   UNL     1      35.053 -21.937 -19.794  0.00  0.00    -0.471 OA
ATOM     17  C   UNL     1      36.177 -21.097 -20.050  0.00  0.00    +0.252 C 
ENDBRANCH  15  16
ENDBRANCH   1  10
BRANCH   1  18
ATOM     18  C   UNL     1      34.923 -24.982 -14.226  0.00  0.00    -0.071 C 
BRANCH  18  19
ATOM     19  N   UNL     1      35.734 -24.994 -13.012  0.00  0.00    +0.384 N 
ATOM     20  C   UNL     1      36.137 -23.635 -12.650  0.00  0.00    -0.101 C 
ATOM     21  C   UNL     1      36.913 -25.843 -13.190  0.00  0.00    -0.101 C 
ATOM     22  H   UNL     1      35.171 -25.378 -12.253  0.00  0.00    -0.080 HD
ENDBRANCH  18  19
ENDBRANCH   1  18
TORSDOF 6
ENDMDL
MODEL 8
REMARK VINA RESULT:      -7.4      4.650      7.758
REMARK  Name = 5656
REMARK  6 active torsions:
REMARK  status: ('A' for Active; 'I' for Inactive)
REMARK    1  A    between atoms: C_1  and  C_2
REMARK    2  A    between atoms: C_1  and  C_10
REMARK    3  A    between atoms: C_1  and  C_18
REMARK    4  A    between atoms: C_2  and  O_8
REMARK    5  A    between atoms: C_15  and  O_16
REMARK    6  A    between atoms: C_18  and  N_19
REMARK                            x       y       z     vdW  Elec       q    Type
REMARK                         _______ _______ _______ _____ _____    ______ ____
ROOT
ATOM      1  C   UNL     1      34.170 -23.362 -17.029  0.00  0.00    +0.026 C 
ENDROOT
BRANCH   1   2
ATOM      2  C   UNL     1      34.219 -22.739 -18.425  0.00  0.00    +0.090 C 
ATOM      3  C   UNL     1      35.572 -22.051 -18.658  0.00  0.00    +0.027 C 
ATOM      4  C   UNL     1      33.059 -21.748 -18.618  0.00  0.00    +0.027 C 
ATOM      5  C   UNL     1      35.634 -21.331 -20.008  0.00  0.00    +0.002 C 
ATOM      6  C   UNL     1      33.128 -21.032 -19.968  0.00  0.00    +0.002 C 
ATOM      7  C   UNL     1      34.478 -20.351 -20.176  0.00  0.00    +0.000 C 
BRANCH   2   8
ATOM      8  O   UNL     1      34.091 -23.796 -19.380  0.00  0.00    -0.386 OA
ATOM      9  H   UNL     1      33.253 -23.699 -19.860  0.00  0.00    +0.210 HD
ENDBRANCH   2   8
ENDBRANCH   1   2
BRANCH   1  10
ATOM     10  C   UNL     1      32.793 -23.178 -16.402  0.00  0.00    -0.022 C 
ATOM     11  C   UNL     1      32.710 -22.819 -15.073  0.00  0.00    -0.001 C 
ATOM     12  C   UNL     1      31.674 -23.377 -17.184  0.00  0.00    -0.001 C 
ATOM     13  C   UNL     1      31.451 -22.651 -14.499  0.00  0.00    +0.037 C 
ATOM     14  C   UNL     1      30.414 -23.208 -16.609  0.00  0.00    +0.037 C 
ATOM     15  C   UNL     1      30.302 -22.845 -15.266  0.00  0.00    +0.139 C 
BRANCH  15  16
ATOM     16  O   UNL     1      29.073 -22.681 -14.705  0.00  0.00    -0.471 OA
ATOM     17  C   UNL     1      27.986 -22.414 -15.590  0.00  0.00    +0.252 C 
ENDBRANCH  15  16
ENDBRANCH   1  10
BRANCH   1  18
ATOM     18  C   UNL     1      35.266 -22.818 -16.088  0.00  0.00    -0.071 C 
BRANCH  18  19
ATOM     19  N   UNL     1      36.268 -23.832 -15.767  0.00  0.00    +0.384 N 
ATOM     20  C   UNL     1      35.706 -24.844 -14.872  0.00  0.00    -0.101 C 
ATOM     21  C   UNL     1      37.447 -23.214 -15.159  0.00  0.00    -0.101 C 
ATOM     22  H   UNL     1      36.552 -24.287 -16.633  0.00  0.00    -0.080 HD
ENDBRANCH  18  19
ENDBRANCH   1  18
TORSDOF 6
ENDMDL
MODEL 9
REMARK VINA RESULT:      -7.3      3.812      7.819
REMARK  Name = 5656
REMARK  6 active torsions:
REMARK  status: ('A' for Active; 'I' for Inactive)
REMARK    1  A    between atoms: C_1  and  C_2
REMARK    2  A    between atoms: C_1  and  C_10
REMARK    3  A    between atoms: C_1  and  C_18
REMARK    4  A    between atoms: C_2  and  O_8
REMARK    5  A    between atoms: C_15  and  O_16
REMARK    6  A    between atoms: C_18  and  N_19
REMARK                            x       y       z     vdW  Elec       q    Type
REMARK                         _______ _______ _______ _____ _____    ______ ____
ROOT
ATOM      1  C   UNL     1      33.723 -13.518 -23.948  0.00  0.00    +0.026 C 
ENDROOT
BRANCH   1   2
ATOM      2  C   UNL     1      34.073 -14.424 -22.767  0.00  0.00    +0.090 C 
ATOM      3  C   UNL     1      34.812 -15.680 -23.255  0.00  0.00    +0.027 C 
ATOM      4  C   UNL     1      32.808 -14.803 -21.979  0.00  0.00    +0.027 C 
ATOM      5  C   UNL     1      35.101 -16.663 -22.118  0.00  0.00    +0.002 C 
ATOM      6  C   UNL     1      33.105 -15.787 -20.845  0.00  0.00    +0.002 C 
ATOM      7  C   UNL     1      33.833 -17.027 -21.353  0.00  0.00    +0.000 C 
BRANCH   2   8
ATOM      8  O   UNL     1      34.957 -13.699 -21.907  0.00  0.00    -0.386 OA
ATOM      9  H   UNL     1      35.851 -13.701 -22.286  0.00  0.00    +0.210 HD
ENDBRANCH   2   8
ENDBRANCH   1   2
BRANCH   1  10
ATOM     10  C   UNL     1      33.225 -12.163 -23.462  0.00  0.00    -0.022 C 
ATOM     11  C   UNL     1      33.838 -11.021 -23.933  0.00  0.00    -0.001 C 
ATOM     12  C   UNL     1      32.177 -12.121 -22.566  0.00  0.00    -0.001 C 
ATOM     13  C   UNL     1      33.383  -9.781 -23.488  0.00  0.00    +0.037 C 
ATOM     14  C   UNL     1      31.721 -10.880 -22.121  0.00  0.00    +0.037 C 
ATOM     15  C   UNL     1      32.325  -9.709 -22.583  0.00  0.00    +0.139 C 
BRANCH  15  16
ATOM     16  O   UNL     1      31.881  -8.498 -22.148  0.00  0.00    -0.471 OA
ATOM     17  C   UNL     1      32.261  -8.100 -20.832  0.00  0.00    +0.252 C 
ENDBRANCH  15  16
ENDBRANCH   1  10
BRANCH   1  18
ATOM     18  C   UNL     1      32.697 -14.153 -24.911  0.00  0.00    -0.071 C 
BRANCH  18  19
ATOM     19  N   UNL     1      33.294 -14.508 -26.196  0.00  0.00    +0.384 N 
ATOM     20  C   UNL     1      33.151 -13.407 -27.149  0.00  0.00    -0.101 C 
ATOM     21  C   UNL     1      32.682 -15.725 -26.729  0.00  0.00    -0.101 C 
ATOM     22  H   UNL     1      34.288 -14.683 -26.050  0.00  0.00    -0.080 HD
ENDBRANCH  18  19
ENDBRANCH   1  18
TORSDOF 6
ENDMDL
