MODEL 1
REMARK VINA RESULT:      -8.7      0.000      0.000
REMARK  Name = 39468
REMARK  7 active torsions:
REMARK  status: ('A' for Active; 'I' for Inactive)
REMARK    1  A    between atoms: O_1  and  C_8
REMARK    2  A    between atoms: O_1  and  C_13
REMARK    3  A    between atoms: C_13  and  C_14
REMARK    4  A    between atoms: C_14  and  O_15
REMARK    5  A    between atoms: C_14  and  C_17
REMARK    6  A    between atoms: C_17  and  N_18
REMARK    7  A    between atoms: N_18  and  C_21
REMARK                            x       y       z     vdW  Elec       q    Type
REMARK                         _______ _______ _______ _____ _____    ______ ____
ROOT
ATOM      1  O   UNL     1      33.316 -14.345 -23.625  0.00  0.00    -0.473 OA
ENDROOT
BRANCH   1   8
ATOM      2  O   UNL     1      31.729  -8.850 -21.819  0.00  0.00    -0.291 OA
ATOM      3  C   UNL     1      31.921 -13.000 -21.534  0.00  0.00    +0.030 C 
ATOM      4  C   UNL     1      32.594 -12.260 -22.658  0.00  0.00    +0.015 C 
ATOM      5  C   UNL     1      31.826 -12.132 -20.286  0.00  0.00    +0.013 C 
ATOM      6  C   UNL     1      31.131 -10.817 -20.598  0.00  0.00    +0.069 C 
ATOM      7  C   UNL     1      32.539 -10.861 -22.752  0.00  0.00    +0.034 C 
ATOM      8  C   UNL     1      33.254 -12.982 -23.662  0.00  0.00    +0.135 C 
ATOM      9  C   UNL     1      31.813 -10.072 -21.724  0.00  0.00    +0.173 C 
ATOM     10  C   UNL     1      33.157 -10.197 -23.818  0.00  0.00    +0.003 C 
ATOM     11  C   UNL     1      33.868 -12.320 -24.725  0.00  0.00    +0.037 C 
ATOM     12  C   UNL     1      33.823 -10.930 -24.802  0.00  0.00    +0.003 C 
ENDBRANCH   1   8
BRANCH   1  13
ATOM     13  C   UNL     1      33.477 -15.018 -24.870  0.00  0.00    +0.232 C 
BRANCH  13  14
ATOM     14  C   UNL     1      34.158 -16.362 -24.619  0.00  0.00    +0.133 C 
BRANCH  14  15
ATOM     15  O   UNL     1      34.876 -16.738 -25.799  0.00  0.00    -0.383 OA
ATOM     16  H   UNL     1      35.328 -17.583 -25.647  0.00  0.00    +0.210 HD
ENDBRANCH  14  15
BRANCH  14  17
ATOM     17  C   UNL     1      35.144 -16.332 -23.449  0.00  0.00    -0.048 C 
BRANCH  17  18
ATOM     18  N   UNL     1      35.801 -17.616 -23.253  0.00  0.00    +0.388 N 
ATOM     19  H   UNL     1      35.517 -18.254 -23.997  0.00  0.00    -0.084 HD
ATOM     20  H   UNL     1      36.811 -17.472 -23.276  0.00  0.00    -0.084 HD
BRANCH  18  21
ATOM     21  C   UNL     1      35.443 -18.195 -21.966  0.00  0.00    -0.046 C 
ATOM     22  C   UNL     1      34.941 -17.074 -21.049  0.00  0.00    -0.022 C 
ATOM     23  C   UNL     1      34.334 -19.229 -22.188  0.00  0.00    -0.022 C 
ATOM     24  C   UNL     1      36.676 -18.867 -21.350  0.00  0.00    -0.022 C 
ENDBRANCH  18  21
ENDBRANCH  17  18
ENDBRANCH  14  17
ENDBRANCH  13  14
ENDBRANCH   1  13
TORSDOF 7
ENDMDL
MODEL 2
REMARK VINA RESULT:      -8.6      3.056      7.683
REMARK  Name = 39468
REMARK  7 active torsions:
REMARK  status: ('A' for Active; 'I' for Inactive)
REMARK    1  A    between atoms: O_1  and  C_8
REMARK    2  A    between atoms: O_1  and  C_13
REMARK    3  A    between atoms: C_13  and  C_14
REMARK    4  A    between atoms: C_14  and  O_15
REMARK    5  A    between atoms: C_14  and  C_17
REMARK    6  A    between atoms: C_17  and  N_18
REMARK    7  A    between atoms: N_18  and  C_21
REMARK                            x       y       z     vdW  Elec       q    Type
REMARK                         _______ _______ _______ _____ _____    ______ ____
ROOT
ATOM      1  O   UNL     1      34.517 -17.765 -22.203  0.00  0.00    -0.473 OA
ENDROOT
BRANCH   1   8
ATOM      2  O   UNL     1      35.501 -22.426 -18.560  0.00  0.00    -0.291 OA
ATOM      3  C   UNL     1      33.132 -19.728 -20.668  0.00  0.00    +0.030 C 
ATOM      4  C   UNL     1      34.633 -19.687 -20.756  0.00  0.00    +0.015 C 
ATOM      5  C   UNL     1      32.639 -21.137 -20.370  0.00  0.00    +0.013 C 
ATOM      6  C   UNL     1      33.297 -21.682 -19.113  0.00  0.00    +0.069 C 
ATOM      7  C   UNL     1      35.434 -20.601 -20.055  0.00  0.00    +0.034 C 
ATOM      8  C   UNL     1      35.253 -18.688 -21.519  0.00  0.00    +0.135 C 
ATOM      9  C   UNL     1      34.806 -21.647 -19.206  0.00  0.00    +0.173 C 
ATOM     10  C   UNL     1      36.830 -20.531 -20.138  0.00  0.00    +0.003 C 
ATOM     11  C   UNL     1      36.644 -18.618 -21.601  0.00  0.00    +0.037 C 
ATOM     12  C   UNL     1      37.431 -19.539 -20.914  0.00  0.00    +0.003 C 
ENDBRANCH   1   8
BRANCH   1  13
ATOM     13  C   UNL     1      34.485 -17.887 -23.622  0.00  0.00    +0.232 C 
BRANCH  13  14
ATOM     14  C   UNL     1      35.076 -16.620 -24.239  0.00  0.00    +0.133 C 
BRANCH  14  15
ATOM     15  O   UNL     1      34.631 -16.521 -25.596  0.00  0.00    -0.383 OA
ATOM     16  H   UNL     1      33.696 -16.773 -25.649  0.00  0.00    +0.210 HD
ENDBRANCH  14  15
BRANCH  14  17
ATOM     17  C   UNL     1      34.663 -15.341 -23.507  0.00  0.00    -0.048 C 
BRANCH  17  18
ATOM     18  N   UNL     1      33.280 -15.390 -23.055  0.00  0.00    +0.388 N 
ATOM     19  H   UNL     1      32.691 -14.898 -23.727  0.00  0.00    -0.084 HD
ATOM     20  H   UNL     1      32.996 -16.368 -22.982  0.00  0.00    -0.084 HD
BRANCH  18  21
ATOM     21  C   UNL     1      33.137 -14.765 -21.747  0.00  0.00    -0.046 C 
ATOM     22  C   UNL     1      32.415 -13.425 -21.922  0.00  0.00    -0.022 C 
ATOM     23  C   UNL     1      32.311 -15.695 -20.852  0.00  0.00    -0.022 C 
ATOM     24  C   UNL     1      34.525 -14.540 -21.136  0.00  0.00    -0.022 C 
ENDBRANCH  18  21
ENDBRANCH  17  18
ENDBRANCH  14  17
ENDBRANCH  13  14
ENDBRANCH   1  13
TORSDOF 7
ENDMDL
MODEL 3
REMARK VINA RESULT:      -8.6      3.134      8.105
REMARK  Name = 39468
REMARK  7 active torsions:
REMARK  status: ('A' for Active; 'I' for Inactive)
REMARK    1  A    between atoms: O_1  and  C_8
REMARK    2  A    between atoms: O_1  and  C_13
REMARK    3  A    between atoms: C_13  and  C_14
REMARK    4  A    between atoms: C_14  and  O_15
REMARK    5  A    between atoms: C_14  and  C_17
REMARK    6  A    between atoms: C_17  and  N_18
REMARK    7  A    between atoms: N_18  and  C_21
REMARK                            x       y       z     vdW  Elec       q    Type
REMARK                         _______ _______ _______ _____ _____    ______ ____
ROOT
ATOM      1  O   UNL     1      34.363 -17.823 -22.183  0.00  0.00    -0.473 OA
ENDROOT
BRANCH   1   8
ATOM      2  O   UNL     1      35.556 -22.424 -18.526  0.00  0.00    -0.291 OA
ATOM      3  C   UNL     1      33.067 -19.823 -20.617  0.00  0.00    +0.030 C 
ATOM      4  C   UNL     1      34.565 -19.730 -20.726  0.00  0.00    +0.015 C 
ATOM      5  C   UNL     1      32.627 -21.247 -20.304  0.00  0.00    +0.013 C 
ATOM      6  C   UNL     1      33.320 -21.760 -19.053  0.00  0.00    +0.069 C 
ATOM      7  C   UNL     1      35.406 -20.612 -20.030  0.00  0.00    +0.034 C 
ATOM      8  C   UNL     1      35.139 -18.716 -21.504  0.00  0.00    +0.135 C 
ATOM      9  C   UNL     1      34.826 -21.673 -19.167  0.00  0.00    +0.173 C 
ATOM     10  C   UNL     1      36.797 -20.494 -20.133  0.00  0.00    +0.003 C 
ATOM     11  C   UNL     1      36.526 -18.598 -21.604  0.00  0.00    +0.037 C 
ATOM     12  C   UNL     1      37.354 -19.487 -20.923  0.00  0.00    +0.003 C 
ENDBRANCH   1   8
BRANCH   1  13
ATOM     13  C   UNL     1      34.879 -16.505 -22.338  0.00  0.00    +0.232 C 
BRANCH  13  14
ATOM     14  C   UNL     1      34.218 -15.591 -21.307  0.00  0.00    +0.133 C 
BRANCH  14  15
ATOM     15  O   UNL     1      34.992 -15.624 -20.104  0.00  0.00    -0.383 OA
ATOM     16  H   UNL     1      35.370 -14.746 -19.938  0.00  0.00    +0.210 HD
ENDBRANCH  14  15
BRANCH  14  17
ATOM     17  C   UNL     1      34.112 -14.136 -21.768  0.00  0.00    -0.048 C 
BRANCH  17  18
ATOM     18  N   UNL     1      34.472 -13.977 -23.169  0.00  0.00    +0.388 N 
ATOM     19  H   UNL     1      35.308 -13.396 -23.236  0.00  0.00    -0.084 HD
ATOM     20  H   UNL     1      34.649 -14.901 -23.567  0.00  0.00    -0.084 HD
BRANCH  18  21
ATOM     21  C   UNL     1      33.393 -13.348 -23.917  0.00  0.00    -0.046 C 
ATOM     22  C   UNL     1      33.902 -12.019 -24.486  0.00  0.00    -0.022 C 
ATOM     23  C   UNL     1      32.980 -14.284 -25.058  0.00  0.00    -0.022 C 
ATOM     24  C   UNL     1      32.204 -13.100 -22.982  0.00  0.00    -0.022 C 
ENDBRANCH  18  21
ENDBRANCH  17  18
ENDBRANCH  14  17
ENDBRANCH  13  14
ENDBRANCH   1  13
TORSDOF 7
ENDMDL
MODEL 4
REMARK VINA RESULT:      -8.5     11.615     13.917
REMARK  Name = 39468
REMARK  7 active torsions:
REMARK  status: ('A' for Active; 'I' for Inactive)
REMARK    1  A    between atoms: O_1  and  C_8
REMARK    2  A    between atoms: O_1  and  C_13
REMARK    3  A    between atoms: C_13  and  C_14
REMARK    4  A    between atoms: C_14  and  O_15
REMARK    5  A    between atoms: C_14  and  C_17
REMARK    6  A    between atoms: C_17  and  N_18
REMARK    7  A    between atoms: N_18  and  C_21
REMARK                            x       y       z     vdW  Elec       q    Type
REMARK                         _______ _______ _______ _____ _____    ______ ____
ROOT
ATOM      1  O   UNL     1      34.704 -24.654 -13.616  0.00  0.00    -0.473 OA
ENDROOT
BRANCH   1   8
ATOM      2  O   UNL     1      30.134 -22.821 -17.040  0.00  0.00    -0.291 OA
ATOM      3  C   UNL     1      31.860 -24.457 -13.622  0.00  0.00    +0.030 C 
ATOM      4  C   UNL     1      32.704 -23.960 -14.764  0.00  0.00    +0.015 C 
ATOM      5  C   UNL     1      30.538 -23.705 -13.549  0.00  0.00    +0.013 C 
ATOM      6  C   UNL     1      29.801 -23.784 -14.876  0.00  0.00    +0.069 C 
ATOM      7  C   UNL     1      32.125 -23.399 -15.913  0.00  0.00    +0.034 C 
ATOM      8  C   UNL     1      34.097 -24.097 -14.704  0.00  0.00    +0.135 C 
ATOM      9  C   UNL     1      30.649 -23.277 -16.022  0.00  0.00    +0.173 C 
ATOM     10  C   UNL     1      32.931 -22.961 -16.971  0.00  0.00    +0.003 C 
ATOM     11  C   UNL     1      34.899 -23.662 -15.759  0.00  0.00    +0.037 C 
ATOM     12  C   UNL     1      34.318 -23.092 -16.889  0.00  0.00    +0.003 C 
ENDBRANCH   1   8
BRANCH   1  13
ATOM     13  C   UNL     1      35.398 -23.770 -12.741  0.00  0.00    +0.232 C 
BRANCH  13  14
ATOM     14  C   UNL     1      36.217 -24.598 -11.752  0.00  0.00    +0.133 C 
BRANCH  14  15
ATOM     15  O   UNL     1      35.325 -25.196 -10.806  0.00  0.00    -0.383 OA
ATOM     16  H   UNL     1      35.725 -25.170  -9.923  0.00  0.00    +0.210 HD
ENDBRANCH  14  15
BRANCH  14  17
ATOM     17  C   UNL     1      37.024 -25.713 -12.419  0.00  0.00    -0.048 C 
BRANCH  17  18
ATOM     18  N   UNL     1      38.356 -25.271 -12.805  0.00  0.00    +0.388 N 
ATOM     19  H   UNL     1      38.447 -24.274 -12.611  0.00  0.00    -0.084 HD
ATOM     20  H   UNL     1      39.043 -25.802 -12.269  0.00  0.00    -0.084 HD
BRANCH  18  21
ATOM     21  C   UNL     1      38.593 -25.504 -14.223  0.00  0.00    -0.046 C 
ATOM     22  C   UNL     1      40.052 -25.931 -14.411  0.00  0.00    -0.022 C 
ATOM     23  C   UNL     1      37.653 -26.617 -14.698  0.00  0.00    -0.022 C 
ATOM     24  C   UNL     1      38.317 -24.213 -15.003  0.00  0.00    -0.022 C 
ENDBRANCH  18  21
ENDBRANCH  17  18
ENDBRANCH  14  17
ENDBRANCH  13  14
ENDBRANCH   1  13
TORSDOF 7
ENDMDL
MODEL 5
REMARK VINA RESULT:      -8.5      2.727      7.459
REMARK  Name = 39468
REMARK  7 active torsions:
REMARK  status: ('A' for Active; 'I' for Inactive)
REMARK    1  A    between atoms: O_1  and  C_8
REMARK    2  A    between atoms: O_1  and  C_13
REMARK    3  A    between atoms: C_13  and  C_14
REMARK    4  A    between atoms: C_14  and  O_15
REMARK    5  A    between atoms: C_14  and  C_17
REMARK    6  A    between atoms: C_17  and  N_18
REMARK    7  A    between atoms: N_18  and  C_21
REMARK                            x       y       z     vdW  Elec       q    Type
REMARK                         _______ _______ _______ _____ _____    ______ ____
ROOT
ATOM      1  O   UNL     1      33.862 -13.867 -24.081  0.00  0.00    -0.473 OA
ENDROOT
BRANCH   1   8
ATOM      2  O   UNL     1      34.954 -19.334 -21.869  0.00  0.00    -0.291 OA
ATOM      3  C   UNL     1      34.144 -16.586 -24.891  0.00  0.00    +0.030 C 
ATOM      4  C   UNL     1      34.321 -16.149 -23.462  0.00  0.00    +0.015 C 
ATOM      5  C   UNL     1      34.934 -17.856 -25.178  0.00  0.00    +0.013 C 
ATOM      6  C   UNL     1      34.558 -18.955 -24.197  0.00  0.00    +0.069 C 
ATOM      7  C   UNL     1      34.604 -17.072 -22.443  0.00  0.00    +0.034 C 
ATOM      8  C   UNL     1      34.157 -14.798 -23.128  0.00  0.00    +0.135 C 
ATOM      9  C   UNL     1      34.744 -18.516 -22.761  0.00  0.00    +0.173 C 
ATOM     10  C   UNL     1      34.745 -16.643 -21.118  0.00  0.00    +0.003 C 
ATOM     11  C   UNL     1      34.297 -14.372 -21.807  0.00  0.00    +0.037 C 
ATOM     12  C   UNL     1      34.594 -15.292 -20.804  0.00  0.00    +0.003 C 
ENDBRANCH   1   8
BRANCH   1  13
ATOM     13  C   UNL     1      33.478 -12.574 -23.623  0.00  0.00    +0.232 C 
BRANCH  13  14
ATOM     14  C   UNL     1      34.174 -11.520 -24.482  0.00  0.00    +0.133 C 
BRANCH  14  15
ATOM     15  O   UNL     1      33.732 -11.666 -25.835  0.00  0.00    -0.383 OA
ATOM     16  H   UNL     1      32.830 -11.318 -25.920  0.00  0.00    +0.210 HD
ENDBRANCH  14  15
BRANCH  14  17
ATOM     17  C   UNL     1      33.881 -10.086 -24.036  0.00  0.00    -0.048 C 
BRANCH  17  18
ATOM     18  N   UNL     1      32.716 -10.010 -23.167  0.00  0.00    +0.388 N 
ATOM     19  H   UNL     1      31.885 -10.274 -23.697  0.00  0.00    -0.084 HD
ATOM     20  H   UNL     1      32.854 -10.647 -22.381  0.00  0.00    -0.084 HD
BRANCH  18  21
ATOM     21  C   UNL     1      32.540  -8.661 -22.646  0.00  0.00    -0.046 C 
ATOM     22  C   UNL     1      31.320  -8.030 -23.325  0.00  0.00    -0.022 C 
ATOM     23  C   UNL     1      32.314  -8.748 -21.133  0.00  0.00    -0.022 C 
ATOM     24  C   UNL     1      33.796  -7.834 -22.945  0.00  0.00    -0.022 C 
ENDBRANCH  18  21
ENDBRANCH  17  18
ENDBRANCH  14  17
ENDBRANCH  13  14
ENDBRANCH   1  13
TORSDOF 7
ENDMDL
MODEL 6
REMARK VINA RESULT:      -8.4      2.742      6.787
REMARK  Name = 39468
REMARK  7 active torsions:
REMARK  status: ('A' for Active; 'I' for Inactive)
REMARK    1  A    between atoms: O_1  and  C_8
REMARK    2  A    between atoms: O_1  and  C_13
REMARK    3  A    between atoms: C_13  and  C_14
REMARK    4  A    between atoms: C_14  and  O_15
REMARK    5  A    between atoms: C_14  and  C_17
REMARK    6  A    between atoms: C_17  and  N_18
REMARK    7  A    between atoms: N_18  and  C_21
REMARK                            x       y       z     vdW  Elec       q    Type
REMARK                         _______ _______ _______ _____ _____    ______ ____
ROOT
ATOM      1  O   UNL     1      32.832 -13.733 -24.675  0.00  0.00    -0.473 OA
ENDROOT
BRANCH   1   8
ATOM      2  O   UNL     1      35.567 -17.782 -21.199  0.00  0.00    -0.291 OA
ATOM      3  C   UNL     1      33.470 -14.264 -21.947  0.00  0.00    +0.030 C 
ATOM      4  C   UNL     1      33.825 -15.215 -23.058  0.00  0.00    +0.015 C 
ATOM      5  C   UNL     1      33.319 -15.000 -20.623  0.00  0.00    +0.013 C 
ATOM      6  C   UNL     1      34.572 -15.799 -20.307  0.00  0.00    +0.069 C 
ATOM      7  C   UNL     1      34.523 -16.407 -22.807  0.00  0.00    +0.034 C 
ATOM      8  C   UNL     1      33.493 -14.889 -24.379  0.00  0.00    +0.135 C 
ATOM      9  C   UNL     1      34.923 -16.760 -21.421  0.00  0.00    +0.173 C 
ATOM     10  C   UNL     1      34.859 -17.266 -23.859  0.00  0.00    +0.003 C 
ATOM     11  C   UNL     1      33.829 -15.746 -25.428  0.00  0.00    +0.037 C 
ATOM     12  C   UNL     1      34.509 -16.934 -25.168  0.00  0.00    +0.003 C 
ENDBRANCH   1   8
BRANCH   1  13
ATOM     13  C   UNL     1      33.550 -12.748 -25.413  0.00  0.00    +0.232 C 
BRANCH  13  14
ATOM     14  C   UNL     1      34.148 -11.738 -24.436  0.00  0.00    +0.133 C 
BRANCH  14  15
ATOM     15  O   UNL     1      34.997 -10.844 -25.162  0.00  0.00    -0.383 OA
ATOM     16  H   UNL     1      35.875 -11.243 -25.263  0.00  0.00    +0.210 HD
ENDBRANCH  14  15
BRANCH  14  17
ATOM     17  C   UNL     1      33.092 -10.905 -23.705  0.00  0.00    -0.048 C 
BRANCH  17  18
ATOM     18  N   UNL     1      33.436  -9.491 -23.672  0.00  0.00    +0.388 N 
ATOM     19  H   UNL     1      34.383  -9.386 -23.309  0.00  0.00    -0.084 HD
ATOM     20  H   UNL     1      33.375  -9.119 -24.621  0.00  0.00    -0.084 HD
BRANCH  18  21
ATOM     21  C   UNL     1      32.514  -8.750 -22.822  0.00  0.00    -0.046 C 
ATOM     22  C   UNL     1      31.902  -9.718 -21.804  0.00  0.00    -0.022 C 
ATOM     23  C   UNL     1      33.297  -7.650 -22.098  0.00  0.00    -0.022 C 
ATOM     24  C   UNL     1      31.411  -8.130 -23.688  0.00  0.00    -0.022 C 
ENDBRANCH  18  21
ENDBRANCH  17  18
ENDBRANCH  14  17
ENDBRANCH  13  14
ENDBRANCH   1  13
TORSDOF 7
ENDMDL
MODEL 7
REMARK VINA RESULT:      -8.4      7.258     11.129
REMARK  Name = 39468
REMARK  7 active torsions:
REMARK  status: ('A' for Active; 'I' for Inactive)
REMARK    1  A    between atoms: O_1  and  C_8
REMARK    2  A    between atoms: O_1  and  C_13
REMARK    3  A    between atoms: C_13  and  C_14
REMARK    4  A    between atoms: C_14  and  O_15
REMARK    5  A    between atoms: C_14  and  C_17
REMARK    6  A    between atoms: C_17  and  N_18
REMARK    7  A    between atoms: N_18  and  C_21
REMARK                            x       y       z     vdW  Elec       q    Type
REMARK                         _______ _______ _______ _____ _____    ______ ____
ROOT
ATOM      1  O   UNL     1      33.145 -22.943 -18.375  0.00  0.00    -0.473 OA
ENDROOT
BRANCH   1   8
ATOM      2  O   UNL     1      31.307 -23.587 -12.703  0.00  0.00    -0.291 OA
ATOM      3  C   UNL     1      30.789 -22.868 -16.771  0.00  0.00    +0.030 C 
ATOM      4  C   UNL     1      32.142 -23.193 -16.199  0.00  0.00    +0.015 C 
ATOM      5  C   UNL     1      29.677 -23.493 -15.938  0.00  0.00    +0.013 C 
ATOM      6  C   UNL     1      29.796 -23.070 -14.483  0.00  0.00    +0.069 C 
ATOM      7  C   UNL     1      32.318 -23.446 -14.830  0.00  0.00    +0.034 C 
ATOM      8  C   UNL     1      33.263 -23.202 -17.040  0.00  0.00    +0.135 C 
ATOM      9  C   UNL     1      31.154 -23.404 -13.907  0.00  0.00    +0.173 C 
ATOM     10  C   UNL     1      33.590 -23.726 -14.319  0.00  0.00    +0.003 C 
ATOM     11  C   UNL     1      34.531 -23.481 -16.530  0.00  0.00    +0.037 C 
ATOM     12  C   UNL     1      34.694 -23.746 -15.172  0.00  0.00    +0.003 C 
ENDBRANCH   1   8
BRANCH   1  13
ATOM     13  C   UNL     1      34.211 -22.227 -18.991  0.00  0.00    +0.232 C 
BRANCH  13  14
ATOM     14  C   UNL     1      33.630 -21.286 -20.045  0.00  0.00    +0.133 C 
BRANCH  14  15
ATOM     15  O   UNL     1      32.488 -20.627 -19.490  0.00  0.00    -0.383 OA
ATOM     16  H   UNL     1      31.889 -21.286 -19.106  0.00  0.00    +0.210 HD
ENDBRANCH  14  15
BRANCH  14  17
ATOM     17  C   UNL     1      34.619 -20.216 -20.512  0.00  0.00    -0.048 C 
BRANCH  17  18
ATOM     18  N   UNL     1      34.008 -19.271 -21.435  0.00  0.00    +0.388 N 
ATOM     19  H   UNL     1      33.514 -19.787 -22.163  0.00  0.00    -0.084 HD
ATOM     20  H   UNL     1      33.359 -18.681 -20.914  0.00  0.00    -0.084 HD
BRANCH  18  21
ATOM     21  C   UNL     1      35.016 -18.420 -22.053  0.00  0.00    -0.046 C 
ATOM     22  C   UNL     1      36.370 -18.712 -21.398  0.00  0.00    -0.022 C 
ATOM     23  C   UNL     1      35.075 -18.743 -23.550  0.00  0.00    -0.022 C 
ATOM     24  C   UNL     1      34.636 -16.950 -21.845  0.00  0.00    -0.022 C 
ENDBRANCH  18  21
ENDBRANCH  17  18
ENDBRANCH  14  17
ENDBRANCH  13  14
ENDBRANCH   1  13
TORSDOF 7
ENDMDL
MODEL 8
REMARK VINA RESULT:      -8.4      1.772      3.228
REMARK  Name = 39468
REMARK  7 active torsions:
REMARK  status: ('A' for Active; 'I' for Inactive)
REMARK    1  A    between atoms: O_1  and  C_8
REMARK    2  A    between atoms: O_1  and  C_13
REMARK    3  A    between atoms: C_13  and  C_14
REMARK    4  A    between atoms: C_14  and  O_15
REMARK    5  A    between atoms: C_14  and  C_17
REMARK    6  A    between atoms: C_17  and  N_18
REMARK    7  A    between atoms: N_18  and  C_21
REMARK                            x       y       z     vdW  Elec       q    Type
REMARK                         _______ _______ _______ _____ _____    ______ ____
ROOT
ATOM      1  O   UNL     1      32.245 -14.211 -22.432  0.00  0.00    -0.473 OA
ENDROOT
BRANCH   1   8
ATOM      2  O   UNL     1      33.671  -8.522 -23.684  0.00  0.00    -0.291 OA
ATOM      3  C   UNL     1      33.787 -12.646 -24.249  0.00  0.00    +0.030 C 
ATOM      4  C   UNL     1      32.939 -12.027 -23.171  0.00  0.00    +0.015 C 
ATOM      5  C   UNL     1      33.971 -11.689 -25.419  0.00  0.00    +0.013 C 
ATOM      6  C   UNL     1      34.537 -10.362 -24.944  0.00  0.00    +0.069 C 
ATOM      7  C   UNL     1      32.890 -10.636 -22.985  0.00  0.00    +0.034 C 
ATOM      8  C   UNL     1      32.214 -12.853 -22.303  0.00  0.00    +0.135 C 
ATOM      9  C   UNL     1      33.680  -9.737 -23.865  0.00  0.00    +0.173 C 
ATOM     10  C   UNL     1      32.109 -10.085 -21.963  0.00  0.00    +0.003 C 
ATOM     11  C   UNL     1      31.436 -12.303 -21.284  0.00  0.00    +0.037 C 
ATOM     12  C   UNL     1      31.381 -10.921 -21.116  0.00  0.00    +0.003 C 
ENDBRANCH   1   8
BRANCH   1  13
ATOM     13  C   UNL     1      32.784 -14.952 -21.341  0.00  0.00    +0.232 C 
BRANCH  13  14
ATOM     14  C   UNL     1      34.289 -15.109 -21.547  0.00  0.00    +0.133 C 
BRANCH  14  15
ATOM     15  O   UNL     1      34.950 -14.867 -20.301  0.00  0.00    -0.383 OA
ATOM     16  H   UNL     1      35.653 -14.211 -20.431  0.00  0.00    +0.210 HD
ENDBRANCH  14  15
BRANCH  14  17
ATOM     17  C   UNL     1      34.690 -16.503 -22.037  0.00  0.00    -0.048 C 
BRANCH  17  18
ATOM     18  N   UNL     1      34.114 -17.559 -21.216  0.00  0.00    +0.388 N 
ATOM     19  H   UNL     1      34.281 -17.346 -20.233  0.00  0.00    -0.084 HD
ATOM     20  H   UNL     1      33.113 -17.608 -21.405  0.00  0.00    -0.084 HD
BRANCH  18  21
ATOM     21  C   UNL     1      34.711 -18.849 -21.533  0.00  0.00    -0.046 C 
ATOM     22  C   UNL     1      36.170 -18.841 -21.063  0.00  0.00    -0.022 C 
ATOM     23  C   UNL     1      33.928 -19.941 -20.797  0.00  0.00    -0.022 C 
ATOM     24  C   UNL     1      34.647 -19.081 -23.047  0.00  0.00    -0.022 C 
ENDBRANCH  18  21
ENDBRANCH  17  18
ENDBRANCH  14  17
ENDBRANCH  13  14
ENDBRANCH   1  13
TORSDOF 7
ENDMDL
MODEL 9
REMARK VINA RESULT:      -8.4      8.699     12.020
REMARK  Name = 39468
REMARK  7 active torsions:
REMARK  status: ('A' for Active; 'I' for Inactive)
REMARK    1  A    between atoms: O_1  and  C_8
REMARK    2  A    between atoms: O_1  and  C_13
REMARK    3  A    between atoms: C_13  and  C_14
REMARK    4  A    between atoms: C_14  and  O_15
REMARK    5  A    between atoms: C_14  and  C_17
REMARK    6  A    between atoms: C_17  and  N_18
REMARK    7  A    between atoms: N_18  and  C_21
REMARK                            x       y       z     vdW  Elec       q    Type
REMARK                         _______ _______ _______ _____ _____    ______ ____
ROOT
ATOM      1  O   UNL     1      33.872 -23.866 -16.115  0.00  0.00    -0.473 OA
ENDROOT
BRANCH   1   8
ATOM      2  O   UNL     1      36.782 -20.293 -19.953  0.00  0.00    -0.291 OA
ATOM      3  C   UNL     1      33.521 -22.493 -18.589  0.00  0.00    +0.030 C 
ATOM      4  C   UNL     1      34.792 -22.399 -17.789  0.00  0.00    +0.015 C 
ATOM      5  C   UNL     1      33.325 -21.256 -19.454  0.00  0.00    +0.013 C 
ATOM      6  C   UNL     1      34.537 -21.021 -20.340  0.00  0.00    +0.069 C 
ATOM      7  C   UNL     1      35.889 -21.650 -18.242  0.00  0.00    +0.034 C 
ATOM      8  C   UNL     1      34.905 -23.108 -16.586  0.00  0.00    +0.135 C 
ATOM      9  C   UNL     1      35.813 -20.919 -19.533  0.00  0.00    +0.173 C 
ATOM     10  C   UNL     1      37.067 -21.593 -17.489  0.00  0.00    +0.003 C 
ATOM     11  C   UNL     1      36.080 -23.052 -15.836  0.00  0.00    +0.037 C 
ATOM     12  C   UNL     1      37.159 -22.293 -16.285  0.00  0.00    +0.003 C 
ENDBRANCH   1   8
BRANCH   1  13
ATOM     13  C   UNL     1      33.856 -24.138 -14.717  0.00  0.00    +0.232 C 
BRANCH  13  14
ATOM     14  C   UNL     1      32.455 -23.861 -14.176  0.00  0.00    +0.133 C 
BRANCH  14  15
ATOM     15  O   UNL     1      32.573 -23.124 -12.955  0.00  0.00    -0.383 OA
ATOM     16  H   UNL     1      31.744 -23.192 -12.455  0.00  0.00    +0.210 HD
ENDBRANCH  14  15
BRANCH  14  17
ATOM     17  C   UNL     1      31.584 -23.052 -15.140  0.00  0.00    -0.048 C 
BRANCH  17  18
ATOM     18  N   UNL     1      30.794 -23.908 -16.014  0.00  0.00    +0.388 N 
ATOM     19  H   UNL     1      30.945 -23.627 -16.982  0.00  0.00    -0.084 HD
ATOM     20  H   UNL     1      31.087 -24.875 -15.874  0.00  0.00    -0.084 HD
BRANCH  18  21
ATOM     21  C   UNL     1      29.375 -23.803 -15.703  0.00  0.00    -0.046 C 
ATOM     22  C   UNL     1      28.994 -24.952 -14.762  0.00  0.00    -0.022 C 
ATOM     23  C   UNL     1      29.125 -22.456 -15.016  0.00  0.00    -0.022 C 
ATOM     24  C   UNL     1      28.562 -23.893 -16.999  0.00  0.00    -0.022 C 
ENDBRANCH  18  21
ENDBRANCH  17  18
ENDBRANCH  14  17
ENDBRANCH  13  14
ENDBRANCH   1  13
TORSDOF 7
ENDMDL
