MODEL 1
REMARK VINA RESULT:      -9.0      0.000      0.000
REMARK  Name = 3002119
REMARK  10 active torsions:
REMARK  status: ('A' for Active; 'I' for Inactive)
REMARK    1  A    between atoms: C_1  and  S_18
REMARK    2  A    between atoms: C_1  and  C_26
REMARK    3  A    between atoms: C_2  and  N_5
REMARK    4  A    between atoms: N_5  and  C_7
REMARK    5  A    between atoms: C_7  and  C_11
REMARK    6  A    between atoms: S_18  and  S_19
REMARK    7  A    between atoms: S_19  and  C_20
REMARK    8  A    between atoms: C_20  and  C_22
REMARK    9  A    between atoms: C_26  and  C_27
REMARK   10  A    between atoms: C_27  and  O_28
REMARK                            x       y       z     vdW  Elec       q    Type
REMARK                         _______ _______ _______ _____ _____    ______ ____
ROOT
ATOM      1  C   UNL     1      34.144 -15.528 -23.458  0.00  0.00    +0.025 C 
ATOM      2  C   UNL     1      34.441 -16.409 -22.472  0.00  0.00    +0.035 C 
ATOM      3  C   UNL     1      34.786 -16.035 -21.056  0.00  0.00    +0.048 C 
ENDROOT
BRANCH   2   5
ATOM      4  O   UNL     1      35.386 -19.489 -23.997  0.00  0.00    -0.265 OA
ATOM      5  N   UNL     1      34.472 -17.763 -22.699  0.00  0.00    -0.250 N 
ATOM      6  C   UNL     1      35.270 -18.306 -23.696  0.00  0.00    +0.307 C 
BRANCH   5   7
ATOM      7  C   UNL     1      33.641 -18.617 -21.862  0.00  0.00    +0.130 C 
BRANCH   7  11
ATOM      8  N   UNL     1      34.696 -21.339 -19.437  0.00  0.00    -0.340 NA
ATOM      9  N   UNL     1      36.599 -19.948 -19.939  0.00  0.00    -0.186 NA
ATOM     10  N   UNL     1      32.589 -20.882 -20.427  0.00  0.00    -0.332 N 
ATOM     11  C   UNL     1      34.464 -19.478 -20.947  0.00  0.00    +0.062 C 
ATOM     12  C   UNL     1      33.959 -20.563 -20.260  0.00  0.00    +0.187 C 
ATOM     13  C   UNL     1      35.804 -19.216 -20.746  0.00  0.00    +0.111 C 
ATOM     14  C   UNL     1      35.988 -20.980 -19.325  0.00  0.00    +0.066 C 
ATOM     15  C   UNL     1      36.835 -21.814 -18.424  0.00  0.00    +0.129 C 
ATOM     16  H   UNL     1      32.201 -21.651 -19.949  0.00  0.00    +0.145 HD
ATOM     17  H   UNL     1      32.025 -20.336 -21.020  0.00  0.00    +0.145 HD
ENDBRANCH   7  11
ENDBRANCH   5   7
ENDBRANCH   2   5
BRANCH   1  18
ATOM     18  S   UNL     1      34.190 -13.794 -23.150  0.00  0.00    -0.058 S 
BRANCH  18  19
ATOM     19  S   UNL     1      32.419 -13.609 -22.134  0.00  0.00    -0.075 S 
BRANCH  19  20
ATOM     20  C   UNL     1      31.966 -11.894 -22.487  0.00  0.00    +0.098 C 
BRANCH  20  22
ATOM     21  O   UNL     1      31.619  -9.864 -21.219  0.00  0.00    -0.355 OA
ATOM     22  C   UNL     1      31.289 -11.262 -21.286  0.00  0.00    +0.127 C 
ATOM     23  C   UNL     1      31.724 -11.863 -19.961  0.00  0.00    +0.033 C 
ATOM     24  C   UNL     1      31.466 -10.718 -19.013  0.00  0.00    +0.035 C 
ATOM     25  C   UNL     1      31.873  -9.523 -19.849  0.00  0.00    +0.142 C 
ENDBRANCH  20  22
ENDBRANCH  19  20
ENDBRANCH  18  19
ENDBRANCH   1  18
BRANCH   1  26
ATOM     26  C   UNL     1      33.801 -15.941 -24.879  0.00  0.00    +0.066 C 
BRANCH  26  27
ATOM     27  C   UNL     1      33.139 -14.822 -25.682  0.00  0.00    +0.142 C 
BRANCH  27  28
ATOM     28  O   UNL     1      33.630 -14.792 -27.015  0.00  0.00    -0.382 OA
ATOM     29  H   UNL     1      32.917 -15.026 -27.628  0.00  0.00    +0.210 HD
ENDBRANCH  27  28
ENDBRANCH  26  27
ENDBRANCH   1  26
TORSDOF 10
ENDMDL
MODEL 2
REMARK VINA RESULT:      -8.8      6.090     11.308
REMARK  Name = 3002119
REMARK  10 active torsions:
REMARK  status: ('A' for Active; 'I' for Inactive)
REMARK    1  A    between atoms: C_1  and  S_18
REMARK    2  A    between atoms: C_1  and  C_26
REMARK    3  A    between atoms: C_2  and  N_5
REMARK    4  A    between atoms: N_5  and  C_7
REMARK    5  A    between atoms: C_7  and  C_11
REMARK    6  A    between atoms: S_18  and  S_19
REMARK    7  A    between atoms: S_19  and  C_20
REMARK    8  A    between atoms: C_20  and  C_22
REMARK    9  A    between atoms: C_26  and  C_27
REMARK   10  A    between atoms: C_27  and  O_28
REMARK                            x       y       z     vdW  Elec       q    Type
REMARK                         _______ _______ _______ _____ _____    ______ ____
ROOT
ATOM      1  C   UNL     1      32.680 -10.344 -23.010  0.00  0.00    +0.025 C 
ATOM      2  C   UNL     1      33.080  -9.052 -22.933  0.00  0.00    +0.035 C 
ATOM      3  C   UNL     1      34.280  -8.477 -23.633  0.00  0.00    +0.048 C 
ENDROOT
BRANCH   2   5
ATOM      4  O   UNL     1      32.410  -6.903 -20.169  0.00  0.00    -0.265 OA
ATOM      5  N   UNL     1      32.407  -8.133 -22.165  0.00  0.00    -0.250 N 
ATOM      6  C   UNL     1      32.911  -7.712 -20.943  0.00  0.00    +0.307 C 
BRANCH   5   7
ATOM      7  C   UNL     1      31.145  -7.611 -22.670  0.00  0.00    +0.130 C 
BRANCH   7  11
ATOM      8  N   UNL     1      31.108  -3.869 -23.301  0.00  0.00    -0.340 NA
ATOM      9  N   UNL     1      32.029  -4.985 -25.228  0.00  0.00    -0.186 NA
ATOM     10  N   UNL     1      30.401  -5.126 -21.418  0.00  0.00    -0.332 N 
ATOM     11  C   UNL     1      31.313  -6.268 -23.321  0.00  0.00    +0.062 C 
ATOM     12  C   UNL     1      30.957  -5.078 -22.719  0.00  0.00    +0.187 C 
ATOM     13  C   UNL     1      31.849  -6.159 -24.587  0.00  0.00    +0.111 C 
ATOM     14  C   UNL     1      31.641  -3.896 -24.536  0.00  0.00    +0.066 C 
ATOM     15  C   UNL     1      31.824  -2.579 -25.212  0.00  0.00    +0.129 C 
ATOM     16  H   UNL     1      30.137  -4.293 -20.964  0.00  0.00    +0.145 HD
ATOM     17  H   UNL     1      30.278  -5.992 -20.966  0.00  0.00    +0.145 HD
ENDBRANCH   7  11
ENDBRANCH   5   7
ENDBRANCH   2   5
BRANCH   1  18
ATOM     18  S   UNL     1      33.612 -11.513 -23.942  0.00  0.00    -0.058 S 
BRANCH  18  19
ATOM     19  S   UNL     1      32.508 -13.191 -23.536  0.00  0.00    -0.075 S 
BRANCH  19  20
ATOM     20  C   UNL     1      33.710 -14.509 -23.840  0.00  0.00    +0.098 C 
BRANCH  20  22
ATOM     21  O   UNL     1      34.997 -16.137 -22.599  0.00  0.00    -0.355 OA
ATOM     22  C   UNL     1      34.536 -14.775 -22.596  0.00  0.00    +0.127 C 
ATOM     23  C   UNL     1      33.760 -14.594 -21.303  0.00  0.00    +0.033 C 
ATOM     24  C   UNL     1      34.523 -15.497 -20.366  0.00  0.00    +0.035 C 
ATOM     25  C   UNL     1      34.872 -16.661 -21.269  0.00  0.00    +0.142 C 
ENDBRANCH  20  22
ENDBRANCH  19  20
ENDBRANCH  18  19
ENDBRANCH   1  18
BRANCH   1  26
ATOM     26  C   UNL     1      31.461 -10.892 -22.288  0.00  0.00    +0.066 C 
BRANCH  26  27
ATOM     27  C   UNL     1      31.734 -11.215 -20.819  0.00  0.00    +0.142 C 
BRANCH  27  28
ATOM     28  O   UNL     1      30.765 -10.609 -19.975  0.00  0.00    -0.382 OA
ATOM     29  H   UNL     1      30.488  -9.762 -20.357  0.00  0.00    +0.210 HD
ENDBRANCH  27  28
ENDBRANCH  26  27
ENDBRANCH   1  26
TORSDOF 10
ENDMDL
MODEL 3
REMARK VINA RESULT:      -8.7      3.707      8.785
REMARK  Name = 3002119
REMARK  10 active torsions:
REMARK  status: ('A' for Active; 'I' for Inactive)
REMARK    1  A    between atoms: C_1  and  S_18
REMARK    2  A    between atoms: C_1  and  C_26
REMARK    3  A    between atoms: C_2  and  N_5
REMARK    4  A    between atoms: N_5  and  C_7
REMARK    5  A    between atoms: C_7  and  C_11
REMARK    6  A    between atoms: S_18  and  S_19
REMARK    7  A    between atoms: S_19  and  C_20
REMARK    8  A    between atoms: C_20  and  C_22
REMARK    9  A    between atoms: C_26  and  C_27
REMARK   10  A    between atoms: C_27  and  O_28
REMARK                            x       y       z     vdW  Elec       q    Type
REMARK                         _______ _______ _______ _____ _____    ______ ____
ROOT
ATOM      1  C   UNL     1      34.163 -15.966 -22.576  0.00  0.00    +0.025 C 
ATOM      2  C   UNL     1      33.376 -14.868 -22.681  0.00  0.00    +0.035 C 
ATOM      3  C   UNL     1      32.334 -14.455 -21.677  0.00  0.00    +0.048 C 
ENDROOT
BRANCH   2   5
ATOM      4  O   UNL     1      32.704 -13.588 -25.938  0.00  0.00    -0.265 OA
ATOM      5  N   UNL     1      33.455 -14.023 -23.760  0.00  0.00    -0.250 N 
ATOM      6  C   UNL     1      32.721 -14.261 -24.914  0.00  0.00    +0.307 C 
BRANCH   5   7
ATOM      7  C   UNL     1      34.333 -12.865 -23.662  0.00  0.00    +0.130 C 
BRANCH   7  11
ATOM      8  N   UNL     1      33.258  -9.243 -24.005  0.00  0.00    -0.340 NA
ATOM      9  N   UNL     1      31.646 -10.419 -22.654  0.00  0.00    -0.186 NA
ATOM     10  N   UNL     1      35.146 -10.383 -24.876  0.00  0.00    -0.332 N 
ATOM     11  C   UNL     1      33.560 -11.584 -23.534  0.00  0.00    +0.062 C 
ATOM     12  C   UNL     1      33.951 -10.396 -24.117  0.00  0.00    +0.187 C 
ATOM     13  C   UNL     1      32.388 -11.536 -22.808  0.00  0.00    +0.111 C 
ATOM     14  C   UNL     1      32.133  -9.325 -23.270  0.00  0.00    +0.066 C 
ATOM     15  C   UNL     1      31.340  -8.070 -23.124  0.00  0.00    +0.129 C 
ATOM     16  H   UNL     1      35.450  -9.549 -25.303  0.00  0.00    +0.145 HD
ATOM     17  H   UNL     1      35.674 -11.208 -24.977  0.00  0.00    +0.145 HD
ENDBRANCH   7  11
ENDBRANCH   5   7
ENDBRANCH   2   5
BRANCH   1  18
ATOM     18  S   UNL     1      33.980 -17.070 -21.216  0.00  0.00    -0.058 S 
BRANCH  18  19
ATOM     19  S   UNL     1      35.718 -18.134 -21.440  0.00  0.00    -0.075 S 
BRANCH  19  20
ATOM     20  C   UNL     1      35.101 -19.828 -21.588  0.00  0.00    +0.098 C 
BRANCH  20  22
ATOM     21  O   UNL     1      35.429 -21.570 -19.943  0.00  0.00    -0.355 OA
ATOM     22  C   UNL     1      34.693 -20.368 -20.230  0.00  0.00    +0.127 C 
ATOM     23  C   UNL     1      33.224 -20.740 -20.142  0.00  0.00    +0.033 C 
ATOM     24  C   UNL     1      33.243 -21.781 -19.051  0.00  0.00    +0.035 C 
ATOM     25  C   UNL     1      34.533 -22.517 -19.343  0.00  0.00    +0.142 C 
ENDBRANCH  20  22
ENDBRANCH  19  20
ENDBRANCH  18  19
ENDBRANCH   1  18
BRANCH   1  26
ATOM     26  C   UNL     1      35.206 -16.354 -23.611  0.00  0.00    +0.066 C 
BRANCH  26  27
ATOM     27  C   UNL     1      34.673 -17.335 -24.655  0.00  0.00    +0.142 C 
BRANCH  27  28
ATOM     28  O   UNL     1      34.728 -16.772 -25.959  0.00  0.00    -0.382 OA
ATOM     29  H   UNL     1      35.069 -17.432 -26.582  0.00  0.00    +0.210 HD
ENDBRANCH  27  28
ENDBRANCH  26  27
ENDBRANCH   1  26
TORSDOF 10
ENDMDL
MODEL 4
REMARK VINA RESULT:      -8.5      3.297      5.331
REMARK  Name = 3002119
REMARK  10 active torsions:
REMARK  status: ('A' for Active; 'I' for Inactive)
REMARK    1  A    between atoms: C_1  and  S_18
REMARK    2  A    between atoms: C_1  and  C_26
REMARK    3  A    between atoms: C_2  and  N_5
REMARK    4  A    between atoms: N_5  and  C_7
REMARK    5  A    between atoms: C_7  and  C_11
REMARK    6  A    between atoms: S_18  and  S_19
REMARK    7  A    between atoms: S_19  and  C_20
REMARK    8  A    between atoms: C_20  and  C_22
REMARK    9  A    between atoms: C_26  and  C_27
REMARK   10  A    between atoms: C_27  and  O_28
REMARK                            x       y       z     vdW  Elec       q    Type
REMARK                         _______ _______ _______ _____ _____    ______ ____
ROOT
ATOM      1  C   UNL     1      31.938 -11.948 -21.644  0.00  0.00    +0.025 C 
ATOM      2  C   UNL     1      32.383 -13.011 -22.356  0.00  0.00    +0.035 C 
ATOM      3  C   UNL     1      32.392 -13.103 -23.857  0.00  0.00    +0.048 C 
ENDROOT
BRANCH   2   5
ATOM      4  O   UNL     1      32.339 -15.976 -20.378  0.00  0.00    -0.265 OA
ATOM      5  N   UNL     1      32.864 -14.141 -21.740  0.00  0.00    -0.250 N 
ATOM      6  C   UNL     1      32.035 -14.949 -20.974  0.00  0.00    +0.307 C 
BRANCH   5   7
ATOM      7  C   UNL     1      34.272 -14.471 -21.914  0.00  0.00    +0.130 C 
BRANCH   7  11
ATOM      8  N   UNL     1      35.034 -18.112 -22.663  0.00  0.00    -0.340 NA
ATOM      9  N   UNL     1      34.367 -17.010 -24.700  0.00  0.00    -0.186 NA
ATOM     10  N   UNL     1      35.125 -16.902 -20.626  0.00  0.00    -0.332 N 
ATOM     11  C   UNL     1      34.457 -15.774 -22.636  0.00  0.00    +0.062 C 
ATOM     12  C   UNL     1      34.866 -16.938 -22.017  0.00  0.00    +0.187 C 
ATOM     13  C   UNL     1      34.220 -15.872 -23.992  0.00  0.00    +0.111 C 
ATOM     14  C   UNL     1      34.771 -18.076 -23.983  0.00  0.00    +0.066 C 
ATOM     15  C   UNL     1      34.944 -19.355 -24.731  0.00  0.00    +0.129 C 
ATOM     16  H   UNL     1      35.418 -17.717 -20.157  0.00  0.00    +0.145 HD
ATOM     17  H   UNL     1      35.012 -16.061 -20.125  0.00  0.00    +0.145 HD
ENDBRANCH   7  11
ENDBRANCH   5   7
ENDBRANCH   2   5
BRANCH   1  18
ATOM     18  S   UNL     1      31.257 -10.546 -22.466  0.00  0.00    -0.058 S 
BRANCH  18  19
ATOM     19  S   UNL     1      32.993  -9.733 -23.192  0.00  0.00    -0.075 S 
BRANCH  19  20
ATOM     20  C   UNL     1      33.131  -8.217 -22.214  0.00  0.00    +0.098 C 
BRANCH  20  22
ATOM     21  O   UNL     1      31.433  -6.990 -23.422  0.00  0.00    -0.355 OA
ATOM     22  C   UNL     1      31.790  -7.513 -22.131  0.00  0.00    +0.127 C 
ATOM     23  C   UNL     1      31.785  -6.330 -21.178  0.00  0.00    +0.033 C 
ATOM     24  C   UNL     1      30.674  -5.488 -21.752  0.00  0.00    +0.035 C 
ATOM     25  C   UNL     1      30.870  -5.682 -23.241  0.00  0.00    +0.142 C 
ENDBRANCH  20  22
ENDBRANCH  19  20
ENDBRANCH  18  19
ENDBRANCH   1  18
BRANCH   1  26
ATOM     26  C   UNL     1      31.944 -11.890 -20.126  0.00  0.00    +0.066 C 
BRANCH  26  27
ATOM     27  C   UNL     1      31.481 -10.540 -19.579  0.00  0.00    +0.142 C 
BRANCH  27  28
ATOM     28  O   UNL     1      32.584  -9.769 -19.125  0.00  0.00    -0.382 OA
ATOM     29  H   UNL     1      33.069  -9.417 -19.887  0.00  0.00    +0.210 HD
ENDBRANCH  27  28
ENDBRANCH  26  27
ENDBRANCH   1  26
TORSDOF 10
ENDMDL
MODEL 5
REMARK VINA RESULT:      -8.5      3.496      5.221
REMARK  Name = 3002119
REMARK  10 active torsions:
REMARK  status: ('A' for Active; 'I' for Inactive)
REMARK    1  A    between atoms: C_1  and  S_18
REMARK    2  A    between atoms: C_1  and  C_26
REMARK    3  A    between atoms: C_2  and  N_5
REMARK    4  A    between atoms: N_5  and  C_7
REMARK    5  A    between atoms: C_7  and  C_11
REMARK    6  A    between atoms: S_18  and  S_19
REMARK    7  A    between atoms: S_19  and  C_20
REMARK    8  A    between atoms: C_20  and  C_22
REMARK    9  A    between atoms: C_26  and  C_27
REMARK   10  A    between atoms: C_27  and  O_28
REMARK                            x       y       z     vdW  Elec       q    Type
REMARK                         _______ _______ _______ _____ _____    ______ ____
ROOT
ATOM      1  C   UNL     1      32.734 -11.377 -23.167  0.00  0.00    +0.025 C 
ATOM      2  C   UNL     1      32.684 -12.704 -22.897  0.00  0.00    +0.035 C 
ATOM      3  C   UNL     1      32.055 -13.312 -21.674  0.00  0.00    +0.048 C 
ENDROOT
BRANCH   2   5
ATOM      4  O   UNL     1      32.950 -14.905 -25.688  0.00  0.00    -0.265 OA
ATOM      5  N   UNL     1      33.243 -13.633 -23.740  0.00  0.00    -0.250 N 
ATOM      6  C   UNL     1      32.563 -14.084 -24.863  0.00  0.00    +0.307 C 
BRANCH   5   7
ATOM      7  C   UNL     1      34.573 -14.135 -23.423  0.00  0.00    +0.130 C 
BRANCH   7  11
ATOM      8  N   UNL     1      34.775 -17.897 -22.976  0.00  0.00    -0.340 NA
ATOM      9  N   UNL     1      34.116 -16.889 -20.889  0.00  0.00    -0.186 NA
ATOM     10  N   UNL     1      35.180 -16.543 -24.881  0.00  0.00    -0.332 N 
ATOM     11  C   UNL     1      34.525 -15.508 -22.817  0.00  0.00    +0.062 C 
ATOM     12  C   UNL     1      34.817 -16.661 -23.517  0.00  0.00    +0.187 C 
ATOM     13  C   UNL     1      34.178 -15.685 -21.494  0.00  0.00    +0.111 C 
ATOM     14  C   UNL     1      34.423 -17.937 -21.678  0.00  0.00    +0.066 C 
ATOM     15  C   UNL     1      34.366 -19.287 -21.044  0.00  0.00    +0.129 C 
ATOM     16  H   UNL     1      35.393 -17.349 -25.405  0.00  0.00    +0.145 HD
ATOM     17  H   UNL     1      35.220 -15.656 -25.305  0.00  0.00    +0.145 HD
ENDBRANCH   7  11
ENDBRANCH   5   7
ENDBRANCH   2   5
BRANCH   1  18
ATOM     18  S   UNL     1      32.075 -10.208 -22.026  0.00  0.00    -0.058 S 
BRANCH  18  19
ATOM     19  S   UNL     1      31.611  -8.709 -23.345  0.00  0.00    -0.075 S 
BRANCH  19  20
ATOM     20  C   UNL     1      31.634  -7.251 -22.273  0.00  0.00    +0.098 C 
BRANCH  20  22
ATOM     21  O   UNL     1      30.855  -5.269 -23.419  0.00  0.00    -0.355 OA
ATOM     22  C   UNL     1      32.030  -6.017 -23.060  0.00  0.00    +0.127 C 
ATOM     23  C   UNL     1      32.746  -6.331 -24.361  0.00  0.00    +0.033 C 
ATOM     24  C   UNL     1      32.433  -5.104 -25.180  0.00  0.00    +0.035 C 
ATOM     25  C   UNL     1      31.006  -4.809 -24.770  0.00  0.00    +0.142 C 
ENDBRANCH  20  22
ENDBRANCH  19  20
ENDBRANCH  18  19
ENDBRANCH   1  18
BRANCH   1  26
ATOM     26  C   UNL     1      33.380 -10.797 -24.414  0.00  0.00    +0.066 C 
BRANCH  26  27
ATOM     27  C   UNL     1      34.729 -10.135 -24.133  0.00  0.00    +0.142 C 
BRANCH  27  28
ATOM     28  O   UNL     1      35.646 -10.381 -25.190  0.00  0.00    -0.382 OA
ATOM     29  H   UNL     1      35.514 -11.278 -25.532  0.00  0.00    +0.210 HD
ENDBRANCH  27  28
ENDBRANCH  26  27
ENDBRANCH   1  26
TORSDOF 10
ENDMDL
MODEL 6
REMARK VINA RESULT:      -8.4      2.096      2.838
REMARK  Name = 3002119
REMARK  10 active torsions:
REMARK  status: ('A' for Active; 'I' for Inactive)
REMARK    1  A    between atoms: C_1  and  S_18
REMARK    2  A    between atoms: C_1  and  C_26
REMARK    3  A    between atoms: C_2  and  N_5
REMARK    4  A    between atoms: N_5  and  C_7
REMARK    5  A    between atoms: C_7  and  C_11
REMARK    6  A    between atoms: S_18  and  S_19
REMARK    7  A    between atoms: S_19  and  C_20
REMARK    8  A    between atoms: C_20  and  C_22
REMARK    9  A    between atoms: C_26  and  C_27
REMARK   10  A    between atoms: C_27  and  O_28
REMARK                            x       y       z     vdW  Elec       q    Type
REMARK                         _______ _______ _______ _____ _____    ______ ____
ROOT
ATOM      1  C   UNL     1      33.484 -14.889 -23.495  0.00  0.00    +0.025 C 
ATOM      2  C   UNL     1      33.689 -15.787 -22.501  0.00  0.00    +0.035 C 
ATOM      3  C   UNL     1      33.152 -15.663 -21.102  0.00  0.00    +0.048 C 
ENDROOT
BRANCH   2   5
ATOM      4  O   UNL     1      34.987 -18.660 -24.165  0.00  0.00    -0.265 OA
ATOM      5  N   UNL     1      34.448 -16.915 -22.694  0.00  0.00    -0.250 N 
ATOM      6  C   UNL     1      34.367 -17.643 -23.873  0.00  0.00    +0.307 C 
BRANCH   5   7
ATOM      7  C   UNL     1      35.344 -17.330 -21.623  0.00  0.00    +0.130 C 
BRANCH   7  11
ATOM      8  N   UNL     1      35.504 -20.810 -20.120  0.00  0.00    -0.340 NA
ATOM      9  N   UNL     1      33.196 -20.157 -20.356  0.00  0.00    -0.186 NA
ATOM     10  N   UNL     1      37.236 -19.336 -20.792  0.00  0.00    -0.332 N 
ATOM     11  C   UNL     1      34.948 -18.656 -21.042  0.00  0.00    +0.062 C 
ATOM     12  C   UNL     1      35.856 -19.617 -20.644  0.00  0.00    +0.187 C 
ATOM     13  C   UNL     1      33.619 -18.985 -20.872  0.00  0.00    +0.111 C 
ATOM     14  C   UNL     1      34.177 -21.011 -20.007  0.00  0.00    +0.066 C 
ATOM     15  C   UNL     1      33.749 -22.319 -19.431  0.00  0.00    +0.129 C 
ATOM     16  H   UNL     1      37.907 -20.003 -20.517  0.00  0.00    +0.145 HD
ATOM     17  H   UNL     1      37.526 -18.475 -21.171  0.00  0.00    +0.145 HD
ENDBRANCH   7  11
ENDBRANCH   5   7
ENDBRANCH   2   5
BRANCH   1  18
ATOM     18  S   UNL     1      32.570 -13.414 -23.191  0.00  0.00    -0.058 S 
BRANCH  18  19
ATOM     19  S   UNL     1      33.856 -12.066 -24.046  0.00  0.00    -0.075 S 
BRANCH  19  20
ATOM     20  C   UNL     1      32.850 -10.563 -24.080  0.00  0.00    +0.098 C 
BRANCH  20  22
ATOM     21  O   UNL     1      32.644  -8.333 -23.166  0.00  0.00    -0.355 OA
ATOM     22  C   UNL     1      33.550  -9.435 -23.346  0.00  0.00    +0.127 C 
ATOM     23  C   UNL     1      34.750  -8.880 -24.093  0.00  0.00    +0.033 C 
ATOM     24  C   UNL     1      34.823  -7.477 -23.543  0.00  0.00    +0.035 C 
ATOM     25  C   UNL     1      33.358  -7.114 -23.418  0.00  0.00    +0.142 C 
ENDBRANCH  20  22
ENDBRANCH  19  20
ENDBRANCH  18  19
ENDBRANCH   1  18
BRANCH   1  26
ATOM     26  C   UNL     1      34.044 -15.046 -24.899  0.00  0.00    +0.066 C 
BRANCH  26  27
ATOM     27  C   UNL     1      32.973 -14.934 -25.983  0.00  0.00    +0.142 C 
BRANCH  27  28
ATOM     28  O   UNL     1      33.558 -14.692 -27.255  0.00  0.00    -0.382 OA
ATOM     29  H   UNL     1      33.771 -15.537 -27.679  0.00  0.00    +0.210 HD
ENDBRANCH  27  28
ENDBRANCH  26  27
ENDBRANCH   1  26
TORSDOF 10
ENDMDL
MODEL 7
REMARK VINA RESULT:      -8.4      2.431      3.565
REMARK  Name = 3002119
REMARK  10 active torsions:
REMARK  status: ('A' for Active; 'I' for Inactive)
REMARK    1  A    between atoms: C_1  and  S_18
REMARK    2  A    between atoms: C_1  and  C_26
REMARK    3  A    between atoms: C_2  and  N_5
REMARK    4  A    between atoms: N_5  and  C_7
REMARK    5  A    between atoms: C_7  and  C_11
REMARK    6  A    between atoms: S_18  and  S_19
REMARK    7  A    between atoms: S_19  and  C_20
REMARK    8  A    between atoms: C_20  and  C_22
REMARK    9  A    between atoms: C_26  and  C_27
REMARK   10  A    between atoms: C_27  and  O_28
REMARK                            x       y       z     vdW  Elec       q    Type
REMARK                         _______ _______ _______ _____ _____    ______ ____
ROOT
ATOM      1  C   UNL     1      33.257 -12.766 -23.810  0.00  0.00    +0.025 C 
ATOM      2  C   UNL     1      33.179 -14.072 -23.455  0.00  0.00    +0.035 C 
ATOM      3  C   UNL     1      32.379 -14.605 -22.299  0.00  0.00    +0.048 C 
ENDROOT
BRANCH   2   5
ATOM      4  O   UNL     1      33.898 -16.434 -26.025  0.00  0.00    -0.265 OA
ATOM      5  N   UNL     1      33.867 -15.047 -24.135  0.00  0.00    -0.250 N 
ATOM      6  C   UNL     1      33.383 -15.568 -25.327  0.00  0.00    +0.307 C 
BRANCH   5   7
ATOM      7  C   UNL     1      35.122 -15.522 -23.570  0.00  0.00    +0.130 C 
BRANCH   7  11
ATOM      8  N   UNL     1      34.668 -17.943 -20.685  0.00  0.00    -0.340 NA
ATOM      9  N   UNL     1      34.702 -19.179 -22.754  0.00  0.00    -0.186 NA
ATOM     10  N   UNL     1      34.901 -15.583 -20.699  0.00  0.00    -0.332 N 
ATOM     11  C   UNL     1      34.939 -16.783 -22.777  0.00  0.00    +0.062 C 
ATOM     12  C   UNL     1      34.833 -16.811 -21.401  0.00  0.00    +0.187 C 
ATOM     13  C   UNL     1      34.866 -18.009 -23.406  0.00  0.00    +0.111 C 
ATOM     14  C   UNL     1      34.612 -19.074 -21.414  0.00  0.00    +0.066 C 
ATOM     15  C   UNL     1      34.430 -20.346 -20.657  0.00  0.00    +0.129 C 
ATOM     16  H   UNL     1      34.829 -15.573 -19.717  0.00  0.00    +0.145 HD
ATOM     17  H   UNL     1      35.021 -14.740 -21.192  0.00  0.00    +0.145 HD
ENDBRANCH   7  11
ENDBRANCH   5   7
ENDBRANCH   2   5
BRANCH   1  18
ATOM     18  S   UNL     1      32.423 -11.534 -22.868  0.00  0.00    -0.058 S 
BRANCH  18  19
ATOM     19  S   UNL     1      33.402  -9.879 -23.579  0.00  0.00    -0.075 S 
BRANCH  19  20
ATOM     20  C   UNL     1      32.053  -8.683 -23.725  0.00  0.00    +0.098 C 
BRANCH  20  22
ATOM     21  O   UNL     1      31.062  -6.861 -22.480  0.00  0.00    -0.355 OA
ATOM     22  C   UNL     1      31.645  -8.170 -22.357  0.00  0.00    +0.127 C 
ATOM     23  C   UNL     1      32.808  -8.027 -21.392  0.00  0.00    +0.033 C 
ATOM     24  C   UNL     1      32.292  -6.962 -20.456  0.00  0.00    +0.035 C 
ATOM     25  C   UNL     1      31.549  -6.045 -21.405  0.00  0.00    +0.142 C 
ENDBRANCH  20  22
ENDBRANCH  19  20
ENDBRANCH  18  19
ENDBRANCH   1  18
BRANCH   1  26
ATOM     26  C   UNL     1      34.077 -12.263 -24.985  0.00  0.00    +0.066 C 
BRANCH  26  27
ATOM     27  C   UNL     1      33.289 -12.238 -26.295  0.00  0.00    +0.142 C 
BRANCH  27  28
ATOM     28  O   UNL     1      33.998 -12.907 -27.329  0.00  0.00    -0.382 OA
ATOM     29  H   UNL     1      33.450 -12.940 -28.128  0.00  0.00    +0.210 HD
ENDBRANCH  27  28
ENDBRANCH  26  27
ENDBRANCH   1  26
TORSDOF 10
ENDMDL
MODEL 8
REMARK VINA RESULT:      -8.3      3.953      8.869
REMARK  Name = 3002119
REMARK  10 active torsions:
REMARK  status: ('A' for Active; 'I' for Inactive)
REMARK    1  A    between atoms: C_1  and  S_18
REMARK    2  A    between atoms: C_1  and  C_26
REMARK    3  A    between atoms: C_2  and  N_5
REMARK    4  A    between atoms: N_5  and  C_7
REMARK    5  A    between atoms: C_7  and  C_11
REMARK    6  A    between atoms: S_18  and  S_19
REMARK    7  A    between atoms: S_19  and  C_20
REMARK    8  A    between atoms: C_20  and  C_22
REMARK    9  A    between atoms: C_26  and  C_27
REMARK   10  A    between atoms: C_27  and  O_28
REMARK                            x       y       z     vdW  Elec       q    Type
REMARK                         _______ _______ _______ _____ _____    ______ ____
ROOT
ATOM      1  C   UNL     1      34.172 -20.584 -20.267  0.00  0.00    +0.025 C 
ATOM      2  C   UNL     1      33.748 -19.518 -20.989  0.00  0.00    +0.035 C 
ATOM      3  C   UNL     1      32.371 -18.916 -20.909  0.00  0.00    +0.048 C 
ENDROOT
BRANCH   2   5
ATOM      4  O   UNL     1      35.391 -18.906 -24.091  0.00  0.00    -0.265 OA
ATOM      5  N   UNL     1      34.563 -18.891 -21.898  0.00  0.00    -0.250 N 
ATOM      6  C   UNL     1      34.700 -19.372 -23.192  0.00  0.00    +0.307 C 
BRANCH   5   7
ATOM      7  C   UNL     1      35.284 -17.701 -21.466  0.00  0.00    +0.130 C 
BRANCH   7  11
ATOM      8  N   UNL     1      33.884 -14.564 -23.079  0.00  0.00    -0.340 NA
ATOM      9  N   UNL     1      32.861 -14.864 -20.917  0.00  0.00    -0.186 NA
ATOM     10  N   UNL     1      35.492 -16.120 -23.864  0.00  0.00    -0.332 N 
ATOM     11  C   UNL     1      34.493 -16.447 -21.707  0.00  0.00    +0.062 C 
ATOM     12  C   UNL     1      34.594 -15.691 -22.857  0.00  0.00    +0.187 C 
ATOM     13  C   UNL     1      33.602 -15.981 -20.763  0.00  0.00    +0.111 C 
ATOM     14  C   UNL     1      33.050 -14.214 -22.082  0.00  0.00    +0.066 C 
ATOM     15  C   UNL     1      32.248 -12.974 -22.290  0.00  0.00    +0.129 C 
ATOM     16  H   UNL     1      35.586 -15.600 -24.696  0.00  0.00    +0.145 HD
ATOM     17  H   UNL     1      36.024 -16.938 -23.734  0.00  0.00    +0.145 HD
ENDBRANCH   7  11
ENDBRANCH   5   7
ENDBRANCH   2   5
BRANCH   1  18
ATOM     18  S   UNL     1      33.074 -21.412 -19.167  0.00  0.00    -0.058 S 
BRANCH  18  19
ATOM     19  S   UNL     1      34.186 -23.100 -18.826  0.00  0.00    -0.075 S 
BRANCH  19  20
ATOM     20  C   UNL     1      33.683 -23.543 -17.146  0.00  0.00    +0.098 C 
BRANCH  20  22
ATOM     21  O   UNL     1      35.984 -22.994 -16.643  0.00  0.00    -0.355 OA
ATOM     22  C   UNL     1      34.642 -22.952 -16.129  0.00  0.00    +0.127 C 
ATOM     23  C   UNL     1      34.668 -23.706 -14.811  0.00  0.00    +0.033 C 
ATOM     24  C   UNL     1      36.049 -23.373 -14.303  0.00  0.00    +0.035 C 
ATOM     25  C   UNL     1      36.864 -23.388 -15.579  0.00  0.00    +0.142 C 
ENDBRANCH  20  22
ENDBRANCH  19  20
ENDBRANCH  18  19
ENDBRANCH   1  18
BRANCH   1  26
ATOM     26  C   UNL     1      35.571 -21.167 -20.374  0.00  0.00    +0.066 C 
BRANCH  26  27
ATOM     27  C   UNL     1      36.619 -20.341 -19.627  0.00  0.00    +0.142 C 
BRANCH  27  28
ATOM     28  O   UNL     1      36.801 -20.826 -18.304  0.00  0.00    -0.382 OA
ATOM     29  H   UNL     1      37.739 -20.771 -18.065  0.00  0.00    +0.210 HD
ENDBRANCH  27  28
ENDBRANCH  26  27
ENDBRANCH   1  26
TORSDOF 10
ENDMDL
MODEL 9
REMARK VINA RESULT:      -8.3      2.508      3.520
REMARK  Name = 3002119
REMARK  10 active torsions:
REMARK  status: ('A' for Active; 'I' for Inactive)
REMARK    1  A    between atoms: C_1  and  S_18
REMARK    2  A    between atoms: C_1  and  C_26
REMARK    3  A    between atoms: C_2  and  N_5
REMARK    4  A    between atoms: N_5  and  C_7
REMARK    5  A    between atoms: C_7  and  C_11
REMARK    6  A    between atoms: S_18  and  S_19
REMARK    7  A    between atoms: S_19  and  C_20
REMARK    8  A    between atoms: C_20  and  C_22
REMARK    9  A    between atoms: C_26  and  C_27
REMARK   10  A    between atoms: C_27  and  O_28
REMARK                            x       y       z     vdW  Elec       q    Type
REMARK                         _______ _______ _______ _____ _____    ______ ____
ROOT
ATOM      1  C   UNL     1      33.861 -14.721 -23.517  0.00  0.00    +0.025 C 
ATOM      2  C   UNL     1      34.423 -15.948 -23.637  0.00  0.00    +0.035 C 
ATOM      3  C   UNL     1      34.530 -16.727 -24.919  0.00  0.00    +0.048 C 
ENDROOT
BRANCH   2   5
ATOM      4  O   UNL     1      35.345 -16.537 -20.244  0.00  0.00    -0.265 OA
ATOM      5  N   UNL     1      34.943 -16.613 -22.553  0.00  0.00    -0.250 N 
ATOM      6  C   UNL     1      34.917 -16.049 -21.285  0.00  0.00    +0.307 C 
BRANCH   5   7
ATOM      7  C   UNL     1      35.524 -17.931 -22.771  0.00  0.00    +0.130 C 
BRANCH   7  11
ATOM      8  N   UNL     1      35.292 -20.504 -19.992  0.00  0.00    -0.340 NA
ATOM      9  N   UNL     1      33.109 -20.196 -20.967  0.00  0.00    -0.186 NA
ATOM     10  N   UNL     1      37.149 -19.277 -20.810  0.00  0.00    -0.332 N 
ATOM     11  C   UNL     1      34.989 -18.947 -21.803  0.00  0.00    +0.062 C 
ATOM     12  C   UNL     1      35.769 -19.591 -20.864  0.00  0.00    +0.187 C 
ATOM     13  C   UNL     1      33.654 -19.292 -21.808  0.00  0.00    +0.111 C 
ATOM     14  C   UNL     1      33.973 -20.755 -20.098  0.00  0.00    +0.066 C 
ATOM     15  C   UNL     1      33.409 -21.759 -19.150  0.00  0.00    +0.129 C 
ATOM     16  H   UNL     1      37.730 -19.721 -20.150  0.00  0.00    +0.145 HD
ATOM     17  H   UNL     1      37.528 -18.615 -21.432  0.00  0.00    +0.145 HD
ENDBRANCH   7  11
ENDBRANCH   5   7
ENDBRANCH   2   5
BRANCH   1  18
ATOM     18  S   UNL     1      33.135 -13.932 -24.914  0.00  0.00    -0.058 S 
BRANCH  18  19
ATOM     19  S   UNL     1      34.089 -12.122 -24.783  0.00  0.00    -0.075 S 
BRANCH  19  20
ATOM     20  C   UNL     1      32.830 -11.096 -23.986  0.00  0.00    +0.098 C 
BRANCH  20  22
ATOM     21  O   UNL     1      32.521  -8.765 -23.418  0.00  0.00    -0.355 OA
ATOM     22  C   UNL     1      33.459  -9.855 -23.381  0.00  0.00    +0.127 C 
ATOM     23  C   UNL     1      34.693  -9.377 -24.124  0.00  0.00    +0.033 C 
ATOM     24  C   UNL     1      34.701  -7.908 -23.779  0.00  0.00    +0.035 C 
ATOM     25  C   UNL     1      33.225  -7.574 -23.799  0.00  0.00    +0.142 C 
ENDBRANCH  20  22
ENDBRANCH  19  20
ENDBRANCH  18  19
ENDBRANCH   1  18
BRANCH   1  26
ATOM     26  C   UNL     1      33.770 -13.963 -22.203  0.00  0.00    +0.066 C 
BRANCH  26  27
ATOM     27  C   UNL     1      32.342 -13.876 -21.664  0.00  0.00    +0.142 C 
BRANCH  27  28
ATOM     28  O   UNL     1      31.863 -15.157 -21.281  0.00  0.00    -0.382 OA
ATOM     29  H   UNL     1      31.240 -15.483 -21.948  0.00  0.00    +0.210 HD
ENDBRANCH  27  28
ENDBRANCH  26  27
ENDBRANCH   1  26
TORSDOF 10
ENDMDL
