MODEL 1
REMARK VINA RESULT:      -9.0      0.000      0.000
REMARK  Name = 54688261
REMARK  5 active torsions:
REMARK  status: ('A' for Active; 'I' for Inactive)
REMARK    1  A    between atoms: C_3  and  C_14
REMARK    2  A    between atoms: C_4  and  O_12
REMARK    3  A    between atoms: C_14  and  C_15
REMARK    4  A    between atoms: C_14  and  C_21
REMARK    5  A    between atoms: C_21  and  C_23
REMARK                            x       y       z     vdW  Elec       q    Type
REMARK                         _______ _______ _______ _____ _____    ______ ____
ROOT
ATOM      1  O   UNL     1      36.435 -20.816 -19.188  0.00  0.00    -0.421 OA
ATOM      2  O   UNL     1      37.194 -19.240 -20.643  0.00  0.00    -0.245 OA
ATOM      3  C   UNL     1      34.870 -19.747 -20.759  0.00  0.00    +0.092 A 
ATOM      4  C   UNL     1      33.858 -20.480 -20.258  0.00  0.00    +0.139 A 
ATOM      5  C   UNL     1      34.088 -21.439 -19.176  0.00  0.00    +0.068 A 
ATOM      6  C   UNL     1      36.250 -19.897 -20.213  0.00  0.00    +0.345 A 
ATOM      7  C   UNL     1      35.377 -21.580 -18.672  0.00  0.00    +0.152 A 
ATOM      8  C   UNL     1      33.076 -22.231 -18.616  0.00  0.00    +0.006 C 
ATOM      9  C   UNL     1      35.680 -22.471 -17.642  0.00  0.00    +0.038 C 
ATOM     10  C   UNL     1      33.363 -23.131 -17.584  0.00  0.00    +0.000 C 
ATOM     11  C   UNL     1      34.665 -23.251 -17.098  0.00  0.00    +0.003 C 
ENDROOT
BRANCH   4  12
ATOM     12  O   UNL     1      32.551 -20.407 -20.690  0.00  0.00    -0.506 OA
ATOM     13  H   UNL     1      32.355 -20.474 -21.604  0.00  0.00    +0.292 HD
ENDBRANCH   4  12
BRANCH   3  14
ATOM     14  C   UNL     1      34.757 -18.742 -21.874  0.00  0.00    +0.061 C 
BRANCH  14  15
ATOM     15  C   UNL     1      34.197 -17.421 -21.368  0.00  0.00    -0.018 C 
ATOM     16  C   UNL     1      32.820 -17.256 -21.223  0.00  0.00    -0.004 C 
ATOM     17  C   UNL     1      35.063 -16.374 -21.048  0.00  0.00    -0.004 C 
ATOM     18  C   UNL     1      32.307 -16.044 -20.759  0.00  0.00    -0.000 C 
ATOM     19  C   UNL     1      34.550 -15.162 -20.584  0.00  0.00    -0.000 C 
ATOM     20  C   UNL     1      33.172 -14.998 -20.440  0.00  0.00    -0.000 C 
ENDBRANCH  14  15
BRANCH  14  21
ATOM     21  C   UNL     1      33.938 -19.330 -23.039  0.00  0.00    +0.074 C 
BRANCH  21  23
ATOM     22  O   UNL     1      35.032 -20.096 -25.060  0.00  0.00    -0.296 OA
ATOM     23  C   UNL     1      34.596 -19.154 -24.401  0.00  0.00    +0.152 C 
ATOM     24  C   UNL     1      34.733 -17.737 -24.893  0.00  0.00    +0.072 C 
ENDBRANCH  21  23
ENDBRANCH  14  21
ENDBRANCH   3  14
TORSDOF 5
ENDMDL
MODEL 2
REMARK VINA RESULT:      -8.3      4.972      7.791
REMARK  Name = 54688261
REMARK  5 active torsions:
REMARK  status: ('A' for Active; 'I' for Inactive)
REMARK    1  A    between atoms: C_3  and  C_14
REMARK    2  A    between atoms: C_4  and  O_12
REMARK    3  A    between atoms: C_14  and  C_15
REMARK    4  A    between atoms: C_14  and  C_21
REMARK    5  A    between atoms: C_21  and  C_23
REMARK                            x       y       z     vdW  Elec       q    Type
REMARK                         _______ _______ _______ _____ _____    ______ ____
ROOT
ATOM      1  O   UNL     1      33.384 -15.843 -25.580  0.00  0.00    -0.421 OA
ATOM      2  O   UNL     1      32.307 -13.920 -26.145  0.00  0.00    -0.245 OA
ATOM      3  C   UNL     1      33.376 -13.940 -24.017  0.00  0.00    +0.092 A 
ATOM      4  C   UNL     1      34.113 -14.650 -23.142  0.00  0.00    +0.139 A 
ATOM      5  C   UNL     1      34.529 -16.021 -23.445  0.00  0.00    +0.068 A 
ATOM      6  C   UNL     1      32.974 -14.541 -25.322  0.00  0.00    +0.345 A 
ATOM      7  C   UNL     1      34.149 -16.579 -24.661  0.00  0.00    +0.152 A 
ATOM      8  C   UNL     1      35.294 -16.809 -22.574  0.00  0.00    +0.006 C 
ATOM      9  C   UNL     1      34.503 -17.878 -25.027  0.00  0.00    +0.038 C 
ATOM     10  C   UNL     1      35.657 -18.113 -22.924  0.00  0.00    +0.000 C 
ATOM     11  C   UNL     1      35.262 -18.647 -24.151  0.00  0.00    +0.003 C 
ENDROOT
BRANCH   4  12
ATOM     12  O   UNL     1      34.539 -14.181 -21.917  0.00  0.00    -0.506 OA
ATOM     13  H   UNL     1      34.777 -14.784 -21.241  0.00  0.00    +0.292 HD
ENDBRANCH   4  12
BRANCH   3  14
ATOM     14  C   UNL     1      32.883 -12.534 -23.811  0.00  0.00    +0.061 C 
BRANCH  14  15
ATOM     15  C   UNL     1      33.827 -11.522 -24.443  0.00  0.00    -0.018 C 
ATOM     16  C   UNL     1      34.360 -11.762 -25.709  0.00  0.00    -0.004 C 
ATOM     17  C   UNL     1      34.158 -10.354 -23.757  0.00  0.00    -0.004 C 
ATOM     18  C   UNL     1      35.225 -10.834 -26.290  0.00  0.00    -0.000 C 
ATOM     19  C   UNL     1      35.024  -9.426 -24.337  0.00  0.00    -0.000 C 
ATOM     20  C   UNL     1      35.557  -9.666 -25.603  0.00  0.00    -0.000 C 
ENDBRANCH  14  15
BRANCH  14  21
ATOM     21  C   UNL     1      32.642 -12.270 -22.312  0.00  0.00    +0.074 C 
BRANCH  21  23
ATOM     22  O   UNL     1      30.918 -10.665 -22.880  0.00  0.00    -0.296 OA
ATOM     23  C   UNL     1      31.426 -11.396 -22.031  0.00  0.00    +0.152 C 
ATOM     24  C   UNL     1      30.892 -11.435 -20.623  0.00  0.00    +0.072 C 
ENDBRANCH  21  23
ENDBRANCH  14  21
ENDBRANCH   3  14
TORSDOF 5
ENDMDL
MODEL 3
REMARK VINA RESULT:      -8.3      5.706      9.752
REMARK  Name = 54688261
REMARK  5 active torsions:
REMARK  status: ('A' for Active; 'I' for Inactive)
REMARK    1  A    between atoms: C_3  and  C_14
REMARK    2  A    between atoms: C_4  and  O_12
REMARK    3  A    between atoms: C_14  and  C_15
REMARK    4  A    between atoms: C_14  and  C_21
REMARK    5  A    between atoms: C_21  and  C_23
REMARK                            x       y       z     vdW  Elec       q    Type
REMARK                         _______ _______ _______ _____ _____    ______ ____
ROOT
ATOM      1  O   UNL     1      31.898 -10.008 -22.181  0.00  0.00    -0.421 OA
ATOM      2  O   UNL     1      31.066 -12.114 -21.952  0.00  0.00    -0.245 OA
ATOM      3  C   UNL     1      32.917 -11.868 -23.431  0.00  0.00    +0.092 A 
ATOM      4  C   UNL     1      33.809 -11.020 -23.976  0.00  0.00    +0.139 A 
ATOM      5  C   UNL     1      33.789  -9.593 -23.648  0.00  0.00    +0.068 A 
ATOM      6  C   UNL     1      31.890 -11.366 -22.471  0.00  0.00    +0.345 A 
ATOM      7  C   UNL     1      32.828  -9.128 -22.756  0.00  0.00    +0.152 A 
ATOM      8  C   UNL     1      34.689  -8.663 -24.185  0.00  0.00    +0.006 C 
ATOM      9  C   UNL     1      32.741  -7.784 -22.390  0.00  0.00    +0.038 C 
ATOM     10  C   UNL     1      34.615  -7.312 -23.830  0.00  0.00    +0.000 C 
ATOM     11  C   UNL     1      33.641  -6.873 -22.933  0.00  0.00    +0.003 C 
ENDROOT
BRANCH   4  12
ATOM     12  O   UNL     1      34.797 -11.389 -24.865  0.00  0.00    -0.506 OA
ATOM     13  H   UNL     1      34.999 -12.295 -24.991  0.00  0.00    +0.292 HD
ENDBRANCH   4  12
BRANCH   3  14
ATOM     14  C   UNL     1      32.834 -13.346 -23.701  0.00  0.00    +0.061 C 
BRANCH  14  15
ATOM     15  C   UNL     1      33.239 -14.153 -22.477  0.00  0.00    -0.018 C 
ATOM     16  C   UNL     1      34.554 -14.104 -22.014  0.00  0.00    -0.004 C 
ATOM     17  C   UNL     1      32.296 -14.941 -21.817  0.00  0.00    -0.004 C 
ATOM     18  C   UNL     1      34.926 -14.844 -20.890  0.00  0.00    -0.000 C 
ATOM     19  C   UNL     1      32.668 -15.681 -20.694  0.00  0.00    -0.000 C 
ATOM     20  C   UNL     1      33.983 -15.632 -20.231  0.00  0.00    -0.000 C 
ENDBRANCH  14  15
BRANCH  14  21
ATOM     21  C   UNL     1      33.657 -13.705 -24.953  0.00  0.00    +0.074 C 
BRANCH  21  23
ATOM     22  O   UNL     1      32.448 -15.206 -26.420  0.00  0.00    -0.296 OA
ATOM     23  C   UNL     1      33.306 -15.061 -25.551  0.00  0.00    +0.152 C 
ATOM     24  C   UNL     1      34.039 -16.247 -24.982  0.00  0.00    +0.072 C 
ENDBRANCH  21  23
ENDBRANCH  14  21
ENDBRANCH   3  14
TORSDOF 5
ENDMDL
MODEL 4
REMARK VINA RESULT:      -8.3      9.001     13.182
REMARK  Name = 54688261
REMARK  5 active torsions:
REMARK  status: ('A' for Active; 'I' for Inactive)
REMARK    1  A    between atoms: C_3  and  C_14
REMARK    2  A    between atoms: C_4  and  O_12
REMARK    3  A    between atoms: C_14  and  C_15
REMARK    4  A    between atoms: C_14  and  C_21
REMARK    5  A    between atoms: C_21  and  C_23
REMARK                            x       y       z     vdW  Elec       q    Type
REMARK                         _______ _______ _______ _____ _____    ______ ____
ROOT
ATOM      1  O   UNL     1      32.264  -5.863 -21.375  0.00  0.00    -0.421 OA
ATOM      2  O   UNL     1      33.016  -7.730 -20.313  0.00  0.00    -0.245 OA
ATOM      3  C   UNL     1      32.264  -8.024 -22.554  0.00  0.00    +0.092 A 
ATOM      4  C   UNL     1      31.757  -7.431 -23.651  0.00  0.00    +0.139 A 
ATOM      5  C   UNL     1      31.469  -5.996 -23.666  0.00  0.00    +0.068 A 
ATOM      6  C   UNL     1      32.549  -7.222 -21.329  0.00  0.00    +0.345 A 
ATOM      7  C   UNL     1      31.732  -5.251 -22.521  0.00  0.00    +0.152 A 
ATOM      8  C   UNL     1      30.940  -5.324 -24.777  0.00  0.00    +0.006 C 
ATOM      9  C   UNL     1      31.487  -3.880 -22.452  0.00  0.00    +0.038 C 
ATOM     10  C   UNL     1      30.686  -3.949 -24.724  0.00  0.00    +0.000 C 
ATOM     11  C   UNL     1      30.960  -3.228 -23.563  0.00  0.00    +0.003 C 
ENDROOT
BRANCH   4  12
ATOM     12  O   UNL     1      31.468  -8.085 -24.831  0.00  0.00    -0.506 OA
ATOM     13  H   UNL     1      31.640  -7.668 -25.652  0.00  0.00    +0.292 HD
ENDBRANCH   4  12
BRANCH   3  14
ATOM     14  C   UNL     1      32.588  -9.488 -22.419  0.00  0.00    +0.061 C 
BRANCH  14  15
ATOM     15  C   UNL     1      33.459  -9.967 -23.570  0.00  0.00    -0.018 C 
ATOM     16  C   UNL     1      34.576  -9.226 -23.955  0.00  0.00    -0.004 C 
ATOM     17  C   UNL     1      33.140 -11.147 -24.241  0.00  0.00    -0.004 C 
ATOM     18  C   UNL     1      35.375  -9.665 -25.012  0.00  0.00    -0.000 C 
ATOM     19  C   UNL     1      33.939 -11.587 -25.297  0.00  0.00    -0.000 C 
ATOM     20  C   UNL     1      35.056 -10.845 -25.682  0.00  0.00    -0.000 C 
ENDBRANCH  14  15
BRANCH  14  21
ATOM     21  C   UNL     1      31.292 -10.308 -22.268  0.00  0.00    +0.074 C 
BRANCH  21  23
ATOM     22  O   UNL     1      31.559 -12.507 -21.289  0.00  0.00    -0.296 OA
ATOM     23  C   UNL     1      31.331 -11.310 -21.122  0.00  0.00    +0.152 C 
ATOM     24  C   UNL     1      31.023 -10.764 -19.752  0.00  0.00    +0.072 C 
ENDBRANCH  21  23
ENDBRANCH  14  21
ENDBRANCH   3  14
TORSDOF 5
ENDMDL
MODEL 5
REMARK VINA RESULT:      -8.2      4.574      7.292
REMARK  Name = 54688261
REMARK  5 active torsions:
REMARK  status: ('A' for Active; 'I' for Inactive)
REMARK    1  A    between atoms: C_3  and  C_14
REMARK    2  A    between atoms: C_4  and  O_12
REMARK    3  A    between atoms: C_14  and  C_15
REMARK    4  A    between atoms: C_14  and  C_21
REMARK    5  A    between atoms: C_21  and  C_23
REMARK                            x       y       z     vdW  Elec       q    Type
REMARK                         _______ _______ _______ _____ _____    ______ ____
ROOT
ATOM      1  O   UNL     1      33.463 -15.707 -25.614  0.00  0.00    -0.421 OA
ATOM      2  O   UNL     1      32.866 -13.575 -26.138  0.00  0.00    -0.245 OA
ATOM      3  C   UNL     1      34.025 -13.867 -24.078  0.00  0.00    +0.092 A 
ATOM      4  C   UNL     1      34.615 -14.740 -23.240  0.00  0.00    +0.139 A 
ATOM      5  C   UNL     1      34.658 -16.170 -23.550  0.00  0.00    +0.068 A 
ATOM      6  C   UNL     1      33.407 -14.345 -25.349  0.00  0.00    +0.345 A 
ATOM      7  C   UNL     1      34.077 -16.613 -24.734  0.00  0.00    +0.152 A 
ATOM      8  C   UNL     1      35.255 -17.125 -22.716  0.00  0.00    +0.006 C 
ATOM      9  C   UNL     1      34.074 -17.958 -25.104  0.00  0.00    +0.038 C 
ATOM     10  C   UNL     1      35.260 -18.478 -23.071  0.00  0.00    +0.000 C 
ATOM     11  C   UNL     1      34.670 -18.894 -24.265  0.00  0.00    +0.003 C 
ENDROOT
BRANCH   4  12
ATOM     12  O   UNL     1      35.219 -14.394 -22.049  0.00  0.00    -0.506 OA
ATOM     13  H   UNL     1      36.144 -14.502 -21.944  0.00  0.00    +0.292 HD
ENDBRANCH   4  12
BRANCH   3  14
ATOM     14  C   UNL     1      33.911 -12.382 -23.860  0.00  0.00    +0.061 C 
BRANCH  14  15
ATOM     15  C   UNL     1      32.797 -12.055 -22.878  0.00  0.00    -0.018 C 
ATOM     16  C   UNL     1      32.103 -10.851 -22.986  0.00  0.00    -0.004 C 
ATOM     17  C   UNL     1      32.470 -12.960 -21.868  0.00  0.00    -0.004 C 
ATOM     18  C   UNL     1      31.080 -10.550 -22.085  0.00  0.00    -0.000 C 
ATOM     19  C   UNL     1      31.448 -12.660 -20.966  0.00  0.00    -0.000 C 
ATOM     20  C   UNL     1      30.754 -11.455 -21.075  0.00  0.00    -0.000 C 
ENDBRANCH  14  15
BRANCH  14  21
ATOM     21  C   UNL     1      33.749 -11.657 -25.211  0.00  0.00    +0.074 C 
BRANCH  21  23
ATOM     22  O   UNL     1      35.544 -10.695 -26.522  0.00  0.00    -0.296 OA
ATOM     23  C   UNL     1      34.855 -10.652 -25.504  0.00  0.00    +0.152 C 
ATOM     24  C   UNL     1      35.103  -9.611 -24.444  0.00  0.00    +0.072 C 
ENDBRANCH  21  23
ENDBRANCH  14  21
ENDBRANCH   3  14
TORSDOF 5
ENDMDL
MODEL 6
REMARK VINA RESULT:      -8.1      4.178      9.371
REMARK  Name = 54688261
REMARK  5 active torsions:
REMARK  status: ('A' for Active; 'I' for Inactive)
REMARK    1  A    between atoms: C_3  and  C_14
REMARK    2  A    between atoms: C_4  and  O_12
REMARK    3  A    between atoms: C_14  and  C_15
REMARK    4  A    between atoms: C_14  and  C_21
REMARK    5  A    between atoms: C_21  and  C_23
REMARK                            x       y       z     vdW  Elec       q    Type
REMARK                         _______ _______ _______ _____ _____    ______ ____
ROOT
ATOM      1  O   UNL     1      33.662 -23.097 -17.080  0.00  0.00    -0.421 OA
ATOM      2  O   UNL     1      33.588 -24.070 -15.024  0.00  0.00    -0.245 OA
ATOM      3  C   UNL     1      35.651 -23.047 -15.630  0.00  0.00    +0.092 A 
ATOM      4  C   UNL     1      36.326 -22.361 -16.572  0.00  0.00    +0.139 A 
ATOM      5  C   UNL     1      35.693 -22.004 -17.843  0.00  0.00    +0.068 A 
ATOM      6  C   UNL     1      34.234 -23.450 -15.865  0.00  0.00    +0.345 A 
ATOM      7  C   UNL     1      34.373 -22.385 -18.059  0.00  0.00    +0.152 A 
ATOM      8  C   UNL     1      36.345 -21.295 -18.861  0.00  0.00    +0.006 C 
ATOM      9  C   UNL     1      33.695 -22.085 -19.241  0.00  0.00    +0.038 C 
ATOM     10  C   UNL     1      35.681 -20.986 -20.053  0.00  0.00    +0.000 C 
ATOM     11  C   UNL     1      34.357 -21.381 -20.243  0.00  0.00    +0.003 C 
ENDROOT
BRANCH   4  12
ATOM     12  O   UNL     1      37.633 -21.939 -16.446  0.00  0.00    -0.506 OA
ATOM     13  H   UNL     1      37.819 -21.074 -16.138  0.00  0.00    +0.292 HD
ENDBRANCH   4  12
BRANCH   3  14
ATOM     14  C   UNL     1      36.200 -23.477 -14.297  0.00  0.00    +0.061 C 
BRANCH  14  15
ATOM     15  C   UNL     1      37.088 -24.705 -14.439  0.00  0.00    -0.018 C 
ATOM     16  C   UNL     1      36.533 -25.927 -14.816  0.00  0.00    -0.004 C 
ATOM     17  C   UNL     1      38.457 -24.607 -14.191  0.00  0.00    -0.004 C 
ATOM     18  C   UNL     1      37.348 -27.053 -14.946  0.00  0.00    -0.000 C 
ATOM     19  C   UNL     1      39.272 -25.732 -14.320  0.00  0.00    -0.000 C 
ATOM     20  C   UNL     1      38.716 -26.955 -14.698  0.00  0.00    -0.000 C 
ENDBRANCH  14  15
BRANCH  14  21
ATOM     21  C   UNL     1      35.052 -23.683 -13.290  0.00  0.00    +0.074 C 
BRANCH  21  23
ATOM     22  O   UNL     1      35.006 -24.924 -11.211  0.00  0.00    -0.296 OA
ATOM     23  C   UNL     1      35.523 -24.036 -11.886  0.00  0.00    +0.152 C 
ATOM     24  C   UNL     1      36.646 -23.198 -11.333  0.00  0.00    +0.072 C 
ENDBRANCH  21  23
ENDBRANCH  14  21
ENDBRANCH   3  14
TORSDOF 5
ENDMDL
MODEL 7
REMARK VINA RESULT:      -8.0      5.087      8.260
REMARK  Name = 54688261
REMARK  5 active torsions:
REMARK  status: ('A' for Active; 'I' for Inactive)
REMARK    1  A    between atoms: C_3  and  C_14
REMARK    2  A    between atoms: C_4  and  O_12
REMARK    3  A    between atoms: C_14  and  C_15
REMARK    4  A    between atoms: C_14  and  C_21
REMARK    5  A    between atoms: C_21  and  C_23
REMARK                            x       y       z     vdW  Elec       q    Type
REMARK                         _______ _______ _______ _____ _____    ______ ____
ROOT
ATOM      1  O   UNL     1      32.244 -23.536 -17.204  0.00  0.00    -0.421 OA
ATOM      2  O   UNL     1      34.191 -23.461 -18.379  0.00  0.00    -0.245 OA
ATOM      3  C   UNL     1      34.391 -23.399 -16.007  0.00  0.00    +0.092 A 
ATOM      4  C   UNL     1      33.740 -23.414 -14.828  0.00  0.00    +0.139 A 
ATOM      5  C   UNL     1      32.279 -23.489 -14.775  0.00  0.00    +0.068 A 
ATOM      6  C   UNL     1      33.628 -23.466 -17.288  0.00  0.00    +0.345 A 
ATOM      7  C   UNL     1      31.571 -23.547 -15.972  0.00  0.00    +0.152 A 
ATOM      8  C   UNL     1      31.547 -23.504 -13.580  0.00  0.00    +0.006 C 
ATOM      9  C   UNL     1      30.178 -23.619 -16.010  0.00  0.00    +0.038 C 
ATOM     10  C   UNL     1      30.150 -23.576 -13.600  0.00  0.00    +0.000 C 
ATOM     11  C   UNL     1      29.466 -23.634 -14.814  0.00  0.00    +0.003 C 
ENDROOT
BRANCH   4  12
ATOM     12  O   UNL     1      34.355 -23.363 -13.595  0.00  0.00    -0.506 OA
ATOM     13  H   UNL     1      34.658 -22.544 -13.255  0.00  0.00    +0.292 HD
ENDBRANCH   4  12
BRANCH   3  14
ATOM     14  C   UNL     1      35.883 -23.314 -16.184  0.00  0.00    +0.061 C 
BRANCH  14  15
ATOM     15  C   UNL     1      36.598 -24.347 -15.327  0.00  0.00    -0.018 C 
ATOM     16  C   UNL     1      37.602 -23.948 -14.446  0.00  0.00    -0.004 C 
ATOM     17  C   UNL     1      36.250 -25.694 -15.423  0.00  0.00    -0.004 C 
ATOM     18  C   UNL     1      38.259 -24.896 -13.660  0.00  0.00    -0.000 C 
ATOM     19  C   UNL     1      36.905 -26.643 -14.637  0.00  0.00    -0.000 C 
ATOM     20  C   UNL     1      37.910 -26.243 -13.756  0.00  0.00    -0.000 C 
ENDBRANCH  14  15
BRANCH  14  21
ATOM     21  C   UNL     1      36.369 -21.876 -15.917  0.00  0.00    +0.074 C 
BRANCH  21  23
ATOM     22  O   UNL     1      37.816 -20.274 -17.016  0.00  0.00    -0.296 OA
ATOM     23  C   UNL     1      37.037 -21.221 -17.118  0.00  0.00    +0.152 C 
ATOM     24  C   UNL     1      36.656 -21.769 -18.469  0.00  0.00    +0.072 C 
ENDBRANCH  21  23
ENDBRANCH  14  21
ENDBRANCH   3  14
TORSDOF 5
ENDMDL
MODEL 8
REMARK VINA RESULT:      -8.0      3.923      8.622
REMARK  Name = 54688261
REMARK  5 active torsions:
REMARK  status: ('A' for Active; 'I' for Inactive)
REMARK    1  A    between atoms: C_3  and  C_14
REMARK    2  A    between atoms: C_4  and  O_12
REMARK    3  A    between atoms: C_14  and  C_15
REMARK    4  A    between atoms: C_14  and  C_21
REMARK    5  A    between atoms: C_21  and  C_23
REMARK                            x       y       z     vdW  Elec       q    Type
REMARK                         _______ _______ _______ _____ _____    ______ ____
ROOT
ATOM      1  O   UNL     1      37.039 -21.716 -17.078  0.00  0.00    -0.421 OA
ATOM      2  O   UNL     1      37.274 -22.521 -14.962  0.00  0.00    -0.245 OA
ATOM      3  C   UNL     1      35.194 -22.967 -16.033  0.00  0.00    +0.092 A 
ATOM      4  C   UNL     1      34.455 -22.818 -17.149  0.00  0.00    +0.139 A 
ATOM      5  C   UNL     1      34.979 -22.093 -18.308  0.00  0.00    +0.068 A 
ATOM      6  C   UNL     1      36.571 -22.398 -15.962  0.00  0.00    +0.345 A 
ATOM      7  C   UNL     1      36.262 -21.561 -18.237  0.00  0.00    +0.152 A 
ATOM      8  C   UNL     1      34.256 -21.904 -19.494  0.00  0.00    +0.006 C 
ATOM      9  C   UNL     1      36.836 -20.857 -19.296  0.00  0.00    +0.038 C 
ATOM     10  C   UNL     1      34.816 -21.200 -20.566  0.00  0.00    +0.000 C 
ATOM     11  C   UNL     1      36.106 -20.677 -20.467  0.00  0.00    +0.003 C 
ENDROOT
BRANCH   4  12
ATOM     12  O   UNL     1      33.177 -23.312 -17.313  0.00  0.00    -0.506 OA
ATOM     13  H   UNL     1      32.628 -23.449 -16.566  0.00  0.00    +0.292 HD
ENDBRANCH   4  12
BRANCH   3  14
ATOM     14  C   UNL     1      34.757 -23.678 -14.781  0.00  0.00    +0.061 C 
BRANCH  14  15
ATOM     15  C   UNL     1      35.695 -24.829 -14.448  0.00  0.00    -0.018 C 
ATOM     16  C   UNL     1      36.010 -25.776 -15.422  0.00  0.00    -0.004 C 
ATOM     17  C   UNL     1      36.239 -24.937 -13.168  0.00  0.00    -0.004 C 
ATOM     18  C   UNL     1      36.870 -26.832 -15.116  0.00  0.00    -0.000 C 
ATOM     19  C   UNL     1      37.099 -25.992 -12.862  0.00  0.00    -0.000 C 
ATOM     20  C   UNL     1      37.414 -26.939 -13.837  0.00  0.00    -0.000 C 
ENDBRANCH  14  15
BRANCH  14  21
ATOM     21  C   UNL     1      33.287 -24.122 -14.906  0.00  0.00    +0.074 C 
BRANCH  21  23
ATOM     22  O   UNL     1      32.504 -23.303 -12.765  0.00  0.00    -0.296 OA
ATOM     23  C   UNL     1      32.338 -23.369 -13.982  0.00  0.00    +0.152 C 
ATOM     24  C   UNL     1      31.138 -22.737 -14.636  0.00  0.00    +0.072 C 
ENDBRANCH  21  23
ENDBRANCH  14  21
ENDBRANCH   3  14
TORSDOF 5
ENDMDL
MODEL 9
REMARK VINA RESULT:      -7.9      3.938      9.001
REMARK  Name = 54688261
REMARK  5 active torsions:
REMARK  status: ('A' for Active; 'I' for Inactive)
REMARK    1  A    between atoms: C_3  and  C_14
REMARK    2  A    between atoms: C_4  and  O_12
REMARK    3  A    between atoms: C_14  and  C_15
REMARK    4  A    between atoms: C_14  and  C_21
REMARK    5  A    between atoms: C_21  and  C_23
REMARK                            x       y       z     vdW  Elec       q    Type
REMARK                         _______ _______ _______ _____ _____    ______ ____
ROOT
ATOM      1  O   UNL     1      36.938 -21.478 -17.745  0.00  0.00    -0.421 OA
ATOM      2  O   UNL     1      38.262 -21.895 -15.942  0.00  0.00    -0.245 OA
ATOM      3  C   UNL     1      36.058 -22.793 -15.859  0.00  0.00    +0.092 A 
ATOM      4  C   UNL     1      34.880 -22.929 -16.497  0.00  0.00    +0.139 A 
ATOM      5  C   UNL     1      34.665 -22.332 -17.817  0.00  0.00    +0.068 A 
ATOM      6  C   UNL     1      37.174 -22.033 -16.494  0.00  0.00    +0.345 A 
ATOM      7  C   UNL     1      35.707 -21.620 -18.404  0.00  0.00    +0.152 A 
ATOM      8  C   UNL     1      33.462 -22.437 -18.528  0.00  0.00    +0.006 C 
ATOM      9  C   UNL     1      35.585 -21.021 -19.658  0.00  0.00    +0.038 C 
ATOM     10  C   UNL     1      33.322 -21.841 -19.786  0.00  0.00    +0.000 C 
ATOM     11  C   UNL     1      34.384 -21.134 -20.351  0.00  0.00    +0.003 C 
ENDROOT
BRANCH   4  12
ATOM     12  O   UNL     1      33.794 -23.617 -15.997  0.00  0.00    -0.506 OA
ATOM     13  H   UNL     1      32.996 -23.653 -16.487  0.00  0.00    +0.292 HD
ENDBRANCH   4  12
BRANCH   3  14
ATOM     14  C   UNL     1      36.389 -23.350 -14.501  0.00  0.00    +0.061 C 
BRANCH  14  15
ATOM     15  C   UNL     1      37.075 -24.703 -14.614  0.00  0.00    -0.018 C 
ATOM     16  C   UNL     1      36.357 -25.815 -15.052  0.00  0.00    -0.004 C 
ATOM     17  C   UNL     1      38.423 -24.830 -14.279  0.00  0.00    -0.004 C 
ATOM     18  C   UNL     1      36.987 -27.056 -15.156  0.00  0.00    -0.000 C 
ATOM     19  C   UNL     1      39.053 -26.071 -14.382  0.00  0.00    -0.000 C 
ATOM     20  C   UNL     1      38.335 -27.183 -14.821  0.00  0.00    -0.000 C 
ENDBRANCH  14  15
BRANCH  14  21
ATOM     21  C   UNL     1      35.124 -23.393 -13.621  0.00  0.00    +0.074 C 
BRANCH  21  23
ATOM     22  O   UNL     1      34.668 -24.771 -11.682  0.00  0.00    -0.296 OA
ATOM     23  C   UNL     1      35.374 -23.915 -12.213  0.00  0.00    +0.152 C 
ATOM     24  C   UNL     1      36.522 -23.286 -11.467  0.00  0.00    +0.072 C 
ENDBRANCH  21  23
ENDBRANCH  14  21
ENDBRANCH   3  14
TORSDOF 5
ENDMDL
