MODEL 1
REMARK VINA RESULT:      -9.7      0.000      0.000
REMARK  Name = 9878
REMARK  3 active torsions:
REMARK  status: ('A' for Active; 'I' for Inactive)
REMARK    1  A    between atoms: C_7  and  C_24
REMARK    2  A    between atoms: C_7  and  O_26
REMARK    3  A    between atoms: C_9  and  O_28
REMARK                            x       y       z     vdW  Elec       q    Type
REMARK                         _______ _______ _______ _____ _____    ______ ____
ROOT
ATOM      1  F   UNL     1      34.940 -25.472 -15.126  0.00  0.00    -0.237 F 
ATOM      2  O   UNL     1      39.638 -26.488 -14.513  0.00  0.00    -0.287 OA
ATOM      3  C   UNL     1      31.908 -23.730 -14.817  0.00  0.00    +0.031 C 
ATOM      4  C   UNL     1      33.031 -23.513 -15.854  0.00  0.00    +0.005 C 
ATOM      5  C   UNL     1      34.392 -23.184 -15.222  0.00  0.00    +0.033 C 
ATOM      6  C   UNL     1      34.827 -24.367 -14.296  0.00  0.00    +0.164 C 
ATOM      7  C   UNL     1      30.713 -23.964 -15.780  0.00  0.00    +0.139 C 
ATOM      8  C   UNL     1      32.317 -24.928 -13.937  0.00  0.00    +0.035 C 
ATOM      9  C   UNL     1      33.706 -24.755 -13.282  0.00  0.00    +0.141 C 
ATOM     10  C   UNL     1      32.415 -22.523 -16.840  0.00  0.00    +0.003 C 
ATOM     11  C   UNL     1      36.266 -24.144 -13.688  0.00  0.00    +0.064 C 
ATOM     12  C   UNL     1      30.930 -22.934 -16.911  0.00  0.00    +0.034 C 
ATOM     13  C   UNL     1      35.441 -22.918 -16.317  0.00  0.00    +0.007 C 
ATOM     14  C   UNL     1      36.844 -22.682 -15.742  0.00  0.00    +0.019 C 
ATOM     15  C   UNL     1      31.632 -22.476 -13.940  0.00  0.00    +0.003 C 
ATOM     16  C   UNL     1      37.230 -23.868 -14.860  0.00  0.00    -0.036 C 
ATOM     17  C   UNL     1      36.356 -22.961 -12.696  0.00  0.00    +0.011 C 
ATOM     18  C   UNL     1      36.686 -25.376 -12.896  0.00  0.00    -0.017 C 
ATOM     19  C   UNL     1      37.808 -22.343 -16.888  0.00  0.00    +0.004 C 
ATOM     20  C   UNL     1      38.306 -24.635 -15.107  0.00  0.00    +0.034 C 
ATOM     21  C   UNL     1      37.756 -26.133 -13.149  0.00  0.00    +0.038 C 
ATOM     22  C   UNL     1      38.647 -25.807 -14.273  0.00  0.00    +0.195 C 
ENDROOT
BRANCH   7  24
ATOM     23  O   UNL     1      28.925 -24.738 -14.401  0.00  0.00    -0.294 OA
ATOM     24  C   UNL     1      29.362 -23.856 -15.139  0.00  0.00    +0.175 C 
ATOM     25  C   UNL     1      28.566 -22.615 -15.441  0.00  0.00    +0.075 C 
ENDBRANCH   7  24
BRANCH   7  26
ATOM     26  O   UNL     1      30.739 -25.280 -16.327  0.00  0.00    -0.380 OA
ATOM     27  H   UNL     1      31.076 -25.899 -15.661  0.00  0.00    +0.211 HD
ENDBRANCH   7  26
BRANCH   9  28
ATOM     28  O   UNL     1      33.623 -23.824 -12.215  0.00  0.00    -0.382 OA
ATOM     29  H   UNL     1      33.557 -22.926 -12.575  0.00  0.00    +0.210 HD
ENDBRANCH   9  28
TORSDOF 3
ENDMDL
MODEL 2
REMARK VINA RESULT:      -7.6     10.910     13.310
REMARK  Name = 9878
REMARK  3 active torsions:
REMARK  status: ('A' for Active; 'I' for Inactive)
REMARK    1  A    between atoms: C_7  and  C_24
REMARK    2  A    between atoms: C_7  and  O_26
REMARK    3  A    between atoms: C_9  and  O_28
REMARK                            x       y       z     vdW  Elec       q    Type
REMARK                         _______ _______ _______ _____ _____    ______ ____
ROOT
ATOM      1  F   UNL     1      35.435 -14.421 -23.715  0.00  0.00    -0.237 F 
ATOM      2  O   UNL     1      34.777 -10.069 -25.741  0.00  0.00    -0.287 OA
ATOM      3  C   UNL     1      34.620 -17.424 -22.089  0.00  0.00    +0.031 C 
ATOM      4  C   UNL     1      34.584 -17.118 -23.603  0.00  0.00    +0.005 C 
ATOM      5  C   UNL     1      33.660 -15.948 -23.968  0.00  0.00    +0.033 C 
ATOM      6  C   UNL     1      34.155 -14.656 -23.237  0.00  0.00    +0.164 C 
ATOM      7  C   UNL     1      35.563 -18.658 -22.101  0.00  0.00    +0.139 C 
ATOM      8  C   UNL     1      35.155 -16.167 -21.377  0.00  0.00    +0.035 C 
ATOM      9  C   UNL     1      34.347 -14.890 -21.707  0.00  0.00    +0.141 C 
ATOM     10  C   UNL     1      34.330 -18.485 -24.233  0.00  0.00    +0.003 C 
ATOM     11  C   UNL     1      33.310 -13.386 -23.644  0.00  0.00    +0.064 C 
ATOM     12  C   UNL     1      35.113 -19.467 -23.337  0.00  0.00    +0.034 C 
ATOM     13  C   UNL     1      33.627 -15.746 -25.494  0.00  0.00    +0.007 C 
ATOM     14  C   UNL     1      32.796 -14.525 -25.908  0.00  0.00    +0.019 C 
ATOM     15  C   UNL     1      33.235 -17.832 -21.513  0.00  0.00    +0.003 C 
ATOM     16  C   UNL     1      33.326 -13.290 -25.184  0.00  0.00    -0.036 C 
ATOM     17  C   UNL     1      31.838 -13.429 -23.175  0.00  0.00    +0.011 C 
ATOM     18  C   UNL     1      33.910 -12.143 -22.999  0.00  0.00    -0.017 C 
ATOM     19  C   UNL     1      32.746 -14.446 -27.441  0.00  0.00    +0.004 C 
ATOM     20  C   UNL     1      33.803 -12.215 -25.836  0.00  0.00    +0.034 C 
ATOM     21  C   UNL     1      34.383 -11.080 -23.655  0.00  0.00    +0.038 C 
ATOM     22  C   UNL     1      34.353 -11.042 -25.125  0.00  0.00    +0.195 C 
ENDROOT
BRANCH   7  24
ATOM     23  O   UNL     1      36.456 -19.372 -20.006  0.00  0.00    -0.294 OA
ATOM     24  C   UNL     1      35.554 -19.464 -20.836  0.00  0.00    +0.175 C 
ATOM     25  C   UNL     1      34.385 -20.390 -20.632  0.00  0.00    +0.075 C 
ENDBRANCH   7  24
BRANCH   7  26
ATOM     26  O   UNL     1      36.924 -18.267 -22.260  0.00  0.00    -0.380 OA
ATOM     27  H   UNL     1      37.459 -19.045 -22.482  0.00  0.00    +0.211 HD
ENDBRANCH   7  26
BRANCH   9  28
ATOM     28  O   UNL     1      33.104 -14.917 -21.023  0.00  0.00    -0.382 OA
ATOM     29  H   UNL     1      32.381 -14.850 -21.665  0.00  0.00    +0.210 HD
ENDBRANCH   9  28
TORSDOF 3
ENDMDL
MODEL 3
REMARK VINA RESULT:      -6.7     15.053     17.402
REMARK  Name = 9878
REMARK  3 active torsions:
REMARK  status: ('A' for Active; 'I' for Inactive)
REMARK    1  A    between atoms: C_7  and  C_24
REMARK    2  A    between atoms: C_7  and  O_26
REMARK    3  A    between atoms: C_9  and  O_28
REMARK                            x       y       z     vdW  Elec       q    Type
REMARK                         _______ _______ _______ _____ _____    ______ ____
ROOT
ATOM      1  F   UNL     1      31.651  -9.243 -24.064  0.00  0.00    -0.237 F 
ATOM      2  O   UNL     1      30.889  -4.460 -23.912  0.00  0.00    -0.287 OA
ATOM      3  C   UNL     1      33.325 -12.299 -23.637  0.00  0.00    +0.031 C 
ATOM      4  C   UNL     1      32.435 -11.548 -22.622  0.00  0.00    +0.005 C 
ATOM      5  C   UNL     1      32.935 -10.132 -22.301  0.00  0.00    +0.033 C 
ATOM      6  C   UNL     1      32.963  -9.288 -23.619  0.00  0.00    +0.164 C 
ATOM      7  C   UNL     1      32.585 -13.663 -23.666  0.00  0.00    +0.139 C 
ATOM      8  C   UNL     1      33.311 -11.490 -24.949  0.00  0.00    +0.035 C 
ATOM      9  C   UNL     1      33.737 -10.016 -24.761  0.00  0.00    +0.141 C 
ATOM     10  C   UNL     1      32.278 -12.552 -21.482  0.00  0.00    +0.003 C 
ATOM     11  C   UNL     1      33.372  -7.787 -23.350  0.00  0.00    +0.064 C 
ATOM     12  C   UNL     1      32.208 -13.921 -22.190  0.00  0.00    +0.034 C 
ATOM     13  C   UNL     1      32.037  -9.474 -21.238  0.00  0.00    +0.007 C 
ATOM     14  C   UNL     1      32.432  -8.020 -20.953  0.00  0.00    +0.019 C 
ATOM     15  C   UNL     1      34.783 -12.508 -23.139  0.00  0.00    +0.003 C 
ATOM     16  C   UNL     1      32.429  -7.234 -22.262  0.00  0.00    -0.036 C 
ATOM     17  C   UNL     1      34.830  -7.606 -22.868  0.00  0.00    +0.011 C 
ATOM     18  C   UNL     1      33.265  -6.987 -24.643  0.00  0.00    -0.017 C 
ATOM     19  C   UNL     1      31.545  -7.469 -19.827  0.00  0.00    +0.004 C 
ATOM     20  C   UNL     1      31.640  -6.164 -22.465  0.00  0.00    +0.034 C 
ATOM     21  C   UNL     1      32.477  -5.927 -24.836  0.00  0.00    +0.038 C 
ATOM     22  C   UNL     1      31.613  -5.437 -23.751  0.00  0.00    +0.195 C 
ENDROOT
BRANCH   7  24
ATOM     23  O   UNL     1      34.033 -15.559 -23.589  0.00  0.00    -0.294 OA
ATOM     24  C   UNL     1      33.367 -14.787 -24.277  0.00  0.00    +0.175 C 
ATOM     25  C   UNL     1      33.296 -14.925 -25.773  0.00  0.00    +0.075 C 
ENDBRANCH   7  24
BRANCH   7  26
ATOM     26  O   UNL     1      31.398 -13.592 -24.451  0.00  0.00    -0.380 OA
ATOM     27  H   UNL     1      30.639 -13.862 -23.913  0.00  0.00    +0.211 HD
ENDBRANCH   7  26
BRANCH   9  28
ATOM     28  O   UNL     1      35.141  -9.942 -24.569  0.00  0.00    -0.382 OA
ATOM     29  H   UNL     1      35.587  -9.975 -25.430  0.00  0.00    +0.210 HD
ENDBRANCH   9  28
TORSDOF 3
ENDMDL
