MODEL 1
REMARK VINA RESULT:      -9.5      0.000      0.000
REMARK  Name = 9820034
REMARK  8 active torsions:
REMARK  status: ('A' for Active; 'I' for Inactive)
REMARK    1  A    between atoms: C_1  and  C_10
REMARK    2  A    between atoms: C_2  and  O_16
REMARK    3  A    between atoms: N_9  and  C_11
REMARK    4  A    between atoms: N_9  and  C_14
REMARK    5  A    between atoms: O_16  and  C_17
REMARK    6  A    between atoms: C_17  and  C_18
REMARK    7  A    between atoms: C_18  and  N_20
REMARK    8  A    between atoms: N_20  and  C_23
REMARK                            x       y       z     vdW  Elec       q    Type
REMARK                         _______ _______ _______ _____ _____    ______ ____
ROOT
ATOM      1  C   UNL     1      34.282 -23.955 -15.821  0.00  0.00    +0.056 C 
ATOM      2  C   UNL     1      33.083 -22.920 -17.634  0.00  0.00    +0.138 C 
ATOM      3  C   UNL     1      34.237 -23.518 -17.145  0.00  0.00    +0.041 C 
ATOM      4  C   UNL     1      33.172 -23.791 -14.994  0.00  0.00    +0.000 C 
ATOM      5  C   UNL     1      32.015 -23.190 -15.492  0.00  0.00    -0.019 C 
ATOM      6  C   UNL     1      31.970 -22.753 -16.815  0.00  0.00    +0.033 C 
ATOM      7  C   UNL     1      30.826 -23.014 -14.609  0.00  0.00    +0.031 C 
ENDROOT
BRANCH   1  10
ATOM      8  O   UNL     1      35.622 -25.796 -15.508  0.00  0.00    -0.270 OA
ATOM      9  N   UNL     1      36.416 -23.796 -14.595  0.00  0.00    -0.278 N 
ATOM     10  C   UNL     1      35.488 -24.582 -15.303  0.00  0.00    +0.249 C 
BRANCH   9  11
ATOM     11  C   UNL     1      37.248 -24.345 -13.528  0.00  0.00    +0.076 C 
ATOM     12  C   UNL     1      38.581 -24.829 -14.084  0.00  0.00    +0.022 C 
ATOM     13  C   UNL     1      37.450 -23.311 -12.428  0.00  0.00    +0.022 C 
ENDBRANCH   9  11
BRANCH   9  14
ATOM     14  C   UNL     1      36.609 -22.381 -14.881  0.00  0.00    +0.094 C 
ATOM     15  C   UNL     1      37.419 -22.175 -16.144  0.00  0.00    +0.023 C 
ENDBRANCH   9  14
ENDBRANCH   1  10
BRANCH   2  16
ATOM     16  O   UNL     1      33.038 -22.491 -18.934  0.00  0.00    -0.474 OA
BRANCH  16  17
ATOM     17  C   UNL     1      34.265 -22.052 -19.506  0.00  0.00    +0.225 C 
BRANCH  17  18
ATOM     18  C   UNL     1      34.121 -20.602 -19.960  0.00  0.00    +0.113 C 
ATOM     19  C   UNL     1      32.723 -20.330 -20.501  0.00  0.00    +0.025 C 
BRANCH  18  20
ATOM     20  N   UNL     1      35.087 -20.319 -21.003  0.00  0.00    -0.331 N 
ATOM     21  H   UNL     1      35.794 -20.983 -21.176  0.00  0.00    +0.147 HD
BRANCH  20  23
ATOM     22  N   UNL     1      35.034 -16.817 -23.329  0.00  0.00    -0.242 NA
ATOM     23  C   UNL     1      35.070 -19.168 -21.767  0.00  0.00    +0.048 C 
ATOM     24  C   UNL     1      35.187 -17.901 -21.174  0.00  0.00    +0.035 C 
ATOM     25  C   UNL     1      34.934 -19.226 -23.164  0.00  0.00    +0.035 C 
ATOM     26  C   UNL     1      35.164 -16.777 -21.984  0.00  0.00    +0.100 C 
ATOM     27  C   UNL     1      34.922 -18.044 -23.885  0.00  0.00    +0.100 C 
ENDBRANCH  20  23
ENDBRANCH  18  20
ENDBRANCH  17  18
ENDBRANCH  16  17
ENDBRANCH   2  16
TORSDOF 8
ENDMDL
MODEL 2
REMARK VINA RESULT:      -9.2      1.401      1.992
REMARK  Name = 9820034
REMARK  8 active torsions:
REMARK  status: ('A' for Active; 'I' for Inactive)
REMARK    1  A    between atoms: C_1  and  C_10
REMARK    2  A    between atoms: C_2  and  O_16
REMARK    3  A    between atoms: N_9  and  C_11
REMARK    4  A    between atoms: N_9  and  C_14
REMARK    5  A    between atoms: O_16  and  C_17
REMARK    6  A    between atoms: C_17  and  C_18
REMARK    7  A    between atoms: C_18  and  N_20
REMARK    8  A    between atoms: N_20  and  C_23
REMARK                            x       y       z     vdW  Elec       q    Type
REMARK                         _______ _______ _______ _____ _____    ______ ____
ROOT
ATOM      1  C   UNL     1      34.237 -23.851 -14.865  0.00  0.00    +0.056 C 
ATOM      2  C   UNL     1      34.300 -22.962 -17.102  0.00  0.00    +0.138 C 
ATOM      3  C   UNL     1      34.968 -23.407 -15.967  0.00  0.00    +0.041 C 
ATOM      4  C   UNL     1      32.844 -23.849 -14.905  0.00  0.00    +0.000 C 
ATOM      5  C   UNL     1      32.180 -23.402 -16.048  0.00  0.00    -0.019 C 
ATOM      6  C   UNL     1      32.911 -22.957 -17.150  0.00  0.00    +0.033 C 
ATOM      7  C   UNL     1      30.689 -23.399 -16.092  0.00  0.00    +0.031 C 
ENDROOT
BRANCH   1  10
ATOM      8  O   UNL     1      34.267 -24.386 -12.630  0.00  0.00    -0.270 OA
ATOM      9  N   UNL     1      36.295 -24.647 -13.764  0.00  0.00    -0.278 N 
ATOM     10  C   UNL     1      34.930 -24.318 -13.674  0.00  0.00    +0.249 C 
BRANCH   9  11
ATOM     11  C   UNL     1      37.210 -24.485 -12.637  0.00  0.00    +0.076 C 
ATOM     12  C   UNL     1      38.605 -24.974 -13.007  0.00  0.00    +0.022 C 
ATOM     13  C   UNL     1      37.236 -23.033 -12.180  0.00  0.00    +0.022 C 
ENDBRANCH   9  11
BRANCH   9  14
ATOM     14  C   UNL     1      36.886 -25.171 -14.987  0.00  0.00    +0.094 C 
ATOM     15  C   UNL     1      36.576 -26.644 -15.166  0.00  0.00    +0.023 C 
ENDBRANCH   9  14
ENDBRANCH   1  10
BRANCH   2  16
ATOM     16  O   UNL     1      35.018 -22.526 -18.185  0.00  0.00    -0.474 OA
BRANCH  16  17
ATOM     17  C   UNL     1      34.274 -21.973 -19.265  0.00  0.00    +0.225 C 
BRANCH  17  18
ATOM     18  C   UNL     1      35.206 -21.151 -20.152  0.00  0.00    +0.113 C 
ATOM     19  C   UNL     1      36.637 -21.189 -19.632  0.00  0.00    +0.025 C 
BRANCH  18  20
ATOM     20  N   UNL     1      34.758 -19.773 -20.184  0.00  0.00    -0.331 N 
ATOM     21  H   UNL     1      34.358 -19.393 -19.368  0.00  0.00    +0.147 HD
BRANCH  20  23
ATOM     22  N   UNL     1      35.076 -17.307 -23.575  0.00  0.00    -0.242 NA
ATOM     23  C   UNL     1      34.862 -18.963 -21.299  0.00  0.00    +0.048 C 
ATOM     24  C   UNL     1      34.845 -19.504 -22.594  0.00  0.00    +0.035 C 
ATOM     25  C   UNL     1      34.990 -17.569 -21.174  0.00  0.00    +0.035 C 
ATOM     26  C   UNL     1      34.952 -18.650 -23.679  0.00  0.00    +0.100 C 
ATOM     27  C   UNL     1      35.092 -16.801 -22.321  0.00  0.00    +0.100 C 
ENDBRANCH  20  23
ENDBRANCH  18  20
ENDBRANCH  17  18
ENDBRANCH  16  17
ENDBRANCH   2  16
TORSDOF 8
ENDMDL
MODEL 3
REMARK VINA RESULT:      -9.0      9.159     14.256
REMARK  Name = 9820034
REMARK  8 active torsions:
REMARK  status: ('A' for Active; 'I' for Inactive)
REMARK    1  A    between atoms: C_1  and  C_10
REMARK    2  A    between atoms: C_2  and  O_16
REMARK    3  A    between atoms: N_9  and  C_11
REMARK    4  A    between atoms: N_9  and  C_14
REMARK    5  A    between atoms: O_16  and  C_17
REMARK    6  A    between atoms: C_17  and  C_18
REMARK    7  A    between atoms: C_18  and  N_20
REMARK    8  A    between atoms: N_20  and  C_23
REMARK                            x       y       z     vdW  Elec       q    Type
REMARK                         _______ _______ _______ _____ _____    ______ ____
ROOT
ATOM      1  C   UNL     1      33.735  -8.953 -23.320  0.00  0.00    +0.056 C 
ATOM      2  C   UNL     1      33.034 -11.234 -23.643  0.00  0.00    +0.138 C 
ATOM      3  C   UNL     1      32.929 -10.032 -22.954  0.00  0.00    +0.041 C 
ATOM      4  C   UNL     1      34.640  -9.084 -24.372  0.00  0.00    +0.000 C 
ATOM      5  C   UNL     1      34.739 -10.294 -25.060  0.00  0.00    -0.019 C 
ATOM      6  C   UNL     1      33.934 -11.372 -24.694  0.00  0.00    +0.033 C 
ATOM      7  C   UNL     1      35.707 -10.436 -26.186  0.00  0.00    +0.031 C 
ENDROOT
BRANCH   1  10
ATOM      8  O   UNL     1      34.534  -7.428 -21.798  0.00  0.00    -0.270 OA
ATOM      9  N   UNL     1      32.522  -6.860 -22.844  0.00  0.00    -0.278 N 
ATOM     10  C   UNL     1      33.631  -7.692 -22.603  0.00  0.00    +0.249 C 
BRANCH   9  11
ATOM     11  C   UNL     1      31.968  -5.984 -21.815  0.00  0.00    +0.076 C 
ATOM     12  C   UNL     1      30.573  -5.513 -22.209  0.00  0.00    +0.022 C 
ATOM     13  C   UNL     1      31.952  -6.694 -20.468  0.00  0.00    +0.022 C 
ENDBRANCH   9  11
BRANCH   9  14
ATOM     14  C   UNL     1      31.853  -6.816 -24.137  0.00  0.00    +0.094 C 
ATOM     15  C   UNL     1      32.548  -5.864 -25.089  0.00  0.00    +0.023 C 
ENDBRANCH   9  14
ENDBRANCH   1  10
BRANCH   2  16
ATOM     16  O   UNL     1      32.241 -12.293 -23.285  0.00  0.00    -0.474 OA
BRANCH  16  17
ATOM     17  C   UNL     1      32.286 -12.693 -21.920  0.00  0.00    +0.225 C 
BRANCH  17  18
ATOM     18  C   UNL     1      32.632 -14.178 -21.840  0.00  0.00    +0.113 C 
ATOM     19  C   UNL     1      32.709 -14.649 -20.393  0.00  0.00    +0.025 C 
BRANCH  18  20
ATOM     20  N   UNL     1      33.911 -14.416 -22.477  0.00  0.00    -0.331 N 
ATOM     21  H   UNL     1      34.690 -13.899 -22.167  0.00  0.00    +0.147 HD
BRANCH  20  23
ATOM     22  N   UNL     1      34.478 -17.199 -25.578  0.00  0.00    -0.242 NA
ATOM     23  C   UNL     1      34.098 -15.331 -23.497  0.00  0.00    +0.048 C 
ATOM     24  C   UNL     1      33.539 -15.124 -24.768  0.00  0.00    +0.035 C 
ATOM     25  C   UNL     1      34.852 -16.498 -23.295  0.00  0.00    +0.035 C 
ATOM     26  C   UNL     1      33.754 -16.071 -25.756  0.00  0.00    +0.100 C 
ATOM     27  C   UNL     1      35.009 -17.383 -24.349  0.00  0.00    +0.100 C 
ENDBRANCH  20  23
ENDBRANCH  18  20
ENDBRANCH  17  18
ENDBRANCH  16  17
ENDBRANCH   2  16
TORSDOF 8
ENDMDL
MODEL 4
REMARK VINA RESULT:      -8.9      7.759     13.954
REMARK  Name = 9820034
REMARK  8 active torsions:
REMARK  status: ('A' for Active; 'I' for Inactive)
REMARK    1  A    between atoms: C_1  and  C_10
REMARK    2  A    between atoms: C_2  and  O_16
REMARK    3  A    between atoms: N_9  and  C_11
REMARK    4  A    between atoms: N_9  and  C_14
REMARK    5  A    between atoms: O_16  and  C_17
REMARK    6  A    between atoms: C_17  and  C_18
REMARK    7  A    between atoms: C_18  and  N_20
REMARK    8  A    between atoms: N_20  and  C_23
REMARK                            x       y       z     vdW  Elec       q    Type
REMARK                         _______ _______ _______ _____ _____    ______ ____
ROOT
ATOM      1  C   UNL     1      32.309  -9.241 -23.329  0.00  0.00    +0.056 C 
ATOM      2  C   UNL     1      32.646 -11.601 -22.991  0.00  0.00    +0.138 C 
ATOM      3  C   UNL     1      31.918 -10.444 -22.741  0.00  0.00    +0.041 C 
ATOM      4  C   UNL     1      33.424  -9.203 -24.164  0.00  0.00    +0.000 C 
ATOM      5  C   UNL     1      34.149 -10.369 -24.412  0.00  0.00    -0.019 C 
ATOM      6  C   UNL     1      33.759 -11.571 -23.824  0.00  0.00    +0.033 C 
ATOM      7  C   UNL     1      35.343 -10.330 -25.306  0.00  0.00    +0.031 C 
ENDROOT
BRANCH   1  10
ATOM      8  O   UNL     1      30.466  -7.907 -23.655  0.00  0.00    -0.270 OA
ATOM      9  N   UNL     1      32.088  -7.061 -22.199  0.00  0.00    -0.278 N 
ATOM     10  C   UNL     1      31.552  -8.026 -23.070  0.00  0.00    +0.249 C 
BRANCH   9  11
ATOM     11  C   UNL     1      31.814  -5.634 -22.354  0.00  0.00    +0.076 C 
ATOM     12  C   UNL     1      31.936  -5.222 -23.815  0.00  0.00    +0.022 C 
ATOM     13  C   UNL     1      30.436  -5.297 -21.798  0.00  0.00    +0.022 C 
ENDBRANCH   9  11
BRANCH   9  14
ATOM     14  C   UNL     1      32.953  -7.419 -21.083  0.00  0.00    +0.094 C 
ATOM     15  C   UNL     1      32.161  -8.011 -19.936  0.00  0.00    +0.023 C 
ENDBRANCH   9  14
ENDBRANCH   1  10
BRANCH   2  16
ATOM     16  O   UNL     1      32.262 -12.783 -22.414  0.00  0.00    -0.474 OA
BRANCH  16  17
ATOM     17  C   UNL     1      32.702 -13.978 -23.049  0.00  0.00    +0.225 C 
BRANCH  17  18
ATOM     18  C   UNL     1      32.990 -15.038 -21.988  0.00  0.00    +0.113 C 
ATOM     19  C   UNL     1      32.949 -14.440 -20.587  0.00  0.00    +0.025 C 
BRANCH  18  20
ATOM     20  N   UNL     1      34.302 -15.610 -22.214  0.00  0.00    -0.331 N 
ATOM     21  H   UNL     1      35.091 -15.093 -21.930  0.00  0.00    +0.147 HD
BRANCH  20  23
ATOM     22  N   UNL     1      34.921 -19.360 -24.012  0.00  0.00    -0.242 NA
ATOM     23  C   UNL     1      34.506 -16.842 -22.805  0.00  0.00    +0.048 C 
ATOM     24  C   UNL     1      34.576 -16.975 -24.201  0.00  0.00    +0.035 C 
ATOM     25  C   UNL     1      34.649 -18.005 -22.029  0.00  0.00    +0.035 C 
ATOM     26  C   UNL     1      34.782 -18.232 -24.745  0.00  0.00    +0.100 C 
ATOM     27  C   UNL     1      34.851 -19.216 -22.670  0.00  0.00    +0.100 C 
ENDBRANCH  20  23
ENDBRANCH  18  20
ENDBRANCH  17  18
ENDBRANCH  16  17
ENDBRANCH   2  16
TORSDOF 8
ENDMDL
MODEL 5
REMARK VINA RESULT:      -8.8      3.861      7.668
REMARK  Name = 9820034
REMARK  8 active torsions:
REMARK  status: ('A' for Active; 'I' for Inactive)
REMARK    1  A    between atoms: C_1  and  C_10
REMARK    2  A    between atoms: C_2  and  O_16
REMARK    3  A    between atoms: N_9  and  C_11
REMARK    4  A    between atoms: N_9  and  C_14
REMARK    5  A    between atoms: O_16  and  C_17
REMARK    6  A    between atoms: C_17  and  C_18
REMARK    7  A    between atoms: C_18  and  N_20
REMARK    8  A    between atoms: N_20  and  C_23
REMARK                            x       y       z     vdW  Elec       q    Type
REMARK                         _______ _______ _______ _____ _____    ______ ____
ROOT
ATOM      1  C   UNL     1      35.392 -18.813 -21.610  0.00  0.00    +0.056 C 
ATOM      2  C   UNL     1      34.910 -16.561 -22.312  0.00  0.00    +0.138 C 
ATOM      3  C   UNL     1      35.305 -17.451 -21.321  0.00  0.00    +0.041 C 
ATOM      4  C   UNL     1      35.083 -19.276 -22.888  0.00  0.00    +0.000 C 
ATOM      5  C   UNL     1      34.687 -18.377 -23.879  0.00  0.00    -0.019 C 
ATOM      6  C   UNL     1      34.601 -17.015 -23.590  0.00  0.00    +0.033 C 
ATOM      7  C   UNL     1      34.357 -18.871 -25.247  0.00  0.00    +0.031 C 
ENDROOT
BRANCH   1  10
ATOM      8  O   UNL     1      37.007 -19.762 -20.279  0.00  0.00    -0.270 OA
ATOM      9  N   UNL     1      34.840 -20.589 -19.992  0.00  0.00    -0.278 N 
ATOM     10  C   UNL     1      35.805 -19.750 -20.577  0.00  0.00    +0.249 C 
BRANCH   9  11
ATOM     11  C   UNL     1      35.167 -21.922 -19.491  0.00  0.00    +0.076 C 
ATOM     12  C   UNL     1      36.115 -21.829 -18.302  0.00  0.00    +0.022 C 
ATOM     13  C   UNL     1      33.896 -22.678 -19.127  0.00  0.00    +0.022 C 
ENDBRANCH   9  11
BRANCH   9  14
ATOM     14  C   UNL     1      33.448 -20.185 -19.845  0.00  0.00    +0.094 C 
ATOM     15  C   UNL     1      32.698 -20.293 -21.157  0.00  0.00    +0.023 C 
ENDBRANCH   9  14
ENDBRANCH   1  10
BRANCH   2  16
ATOM     16  O   UNL     1      34.826 -15.223 -22.029  0.00  0.00    -0.474 OA
BRANCH  16  17
ATOM     17  C   UNL     1      34.358 -14.871 -20.731  0.00  0.00    +0.225 C 
BRANCH  17  18
ATOM     18  C   UNL     1      32.864 -14.564 -20.799  0.00  0.00    +0.113 C 
ATOM     19  C   UNL     1      32.032 -15.808 -20.516  0.00  0.00    +0.025 C 
BRANCH  18  20
ATOM     20  N   UNL     1      32.528 -14.067 -22.118  0.00  0.00    -0.331 N 
ATOM     21  H   UNL     1      32.320 -14.722 -22.823  0.00  0.00    +0.147 HD
BRANCH  20  23
ATOM     22  N   UNL     1      32.390  -9.979 -23.093  0.00  0.00    -0.242 NA
ATOM     23  C   UNL     1      32.482 -12.723 -22.439  0.00  0.00    +0.048 C 
ATOM     24  C   UNL     1      33.275 -12.197 -23.471  0.00  0.00    +0.035 C 
ATOM     25  C   UNL     1      31.643 -11.839 -21.742  0.00  0.00    +0.035 C 
ATOM     26  C   UNL     1      33.193 -10.844 -23.754  0.00  0.00    +0.100 C 
ATOM     27  C   UNL     1      31.634 -10.501 -22.101  0.00  0.00    +0.100 C 
ENDBRANCH  20  23
ENDBRANCH  18  20
ENDBRANCH  17  18
ENDBRANCH  16  17
ENDBRANCH   2  16
TORSDOF 8
ENDMDL
MODEL 6
REMARK VINA RESULT:      -8.8      6.404     12.848
REMARK  Name = 9820034
REMARK  8 active torsions:
REMARK  status: ('A' for Active; 'I' for Inactive)
REMARK    1  A    between atoms: C_1  and  C_10
REMARK    2  A    between atoms: C_2  and  O_16
REMARK    3  A    between atoms: N_9  and  C_11
REMARK    4  A    between atoms: N_9  and  C_14
REMARK    5  A    between atoms: O_16  and  C_17
REMARK    6  A    between atoms: C_17  and  C_18
REMARK    7  A    between atoms: C_18  and  N_20
REMARK    8  A    between atoms: N_20  and  C_23
REMARK                            x       y       z     vdW  Elec       q    Type
REMARK                         _______ _______ _______ _____ _____    ______ ____
ROOT
ATOM      1  C   UNL     1      33.782 -11.157 -24.159  0.00  0.00    +0.056 C 
ATOM      2  C   UNL     1      33.398 -13.472 -23.621  0.00  0.00    +0.138 C 
ATOM      3  C   UNL     1      33.629 -12.166 -23.208  0.00  0.00    +0.041 C 
ATOM      4  C   UNL     1      33.702 -11.460 -25.517  0.00  0.00    +0.000 C 
ATOM      5  C   UNL     1      33.469 -12.774 -25.925  0.00  0.00    -0.019 C 
ATOM      6  C   UNL     1      33.316 -13.783 -24.974  0.00  0.00    +0.033 C 
ATOM      7  C   UNL     1      33.382 -13.100 -27.378  0.00  0.00    +0.031 C 
ENDROOT
BRANCH   1  10
ATOM      8  O   UNL     1      35.126  -9.297 -24.019  0.00  0.00    -0.270 OA
ATOM      9  N   UNL     1      33.022  -9.107 -23.018  0.00  0.00    -0.278 N 
ATOM     10  C   UNL     1      34.025  -9.787 -23.732  0.00  0.00    +0.249 C 
BRANCH   9  11
ATOM     11  C   UNL     1      33.333  -8.084 -22.023  0.00  0.00    +0.076 C 
ATOM     12  C   UNL     1      33.013  -6.696 -22.565  0.00  0.00    +0.022 C 
ATOM     13  C   UNL     1      32.579  -8.358 -20.728  0.00  0.00    +0.022 C 
ENDBRANCH   9  11
BRANCH   9  14
ATOM     14  C   UNL     1      31.605  -9.379 -23.223  0.00  0.00    +0.094 C 
ATOM     15  C   UNL     1      30.934  -8.264 -23.998  0.00  0.00    +0.023 C 
ENDBRANCH   9  14
ENDBRANCH   1  10
BRANCH   2  16
ATOM     16  O   UNL     1      33.247 -14.464 -22.687  0.00  0.00    -0.474 OA
BRANCH  16  17
ATOM     17  C   UNL     1      33.955 -15.676 -22.921  0.00  0.00    +0.225 C 
BRANCH  17  18
ATOM     18  C   UNL     1      33.981 -16.502 -21.637  0.00  0.00    +0.113 C 
ATOM     19  C   UNL     1      34.544 -15.694 -20.475  0.00  0.00    +0.025 C 
BRANCH  18  20
ATOM     20  N   UNL     1      34.805 -17.678 -21.831  0.00  0.00    -0.331 N 
ATOM     21  H   UNL     1      35.544 -17.628 -22.480  0.00  0.00    +0.147 HD
BRANCH  20  23
ATOM     22  N   UNL     1      34.208 -21.295 -19.772  0.00  0.00    -0.242 NA
ATOM     23  C   UNL     1      34.609 -18.867 -21.154  0.00  0.00    +0.048 C 
ATOM     24  C   UNL     1      35.694 -19.671 -20.771  0.00  0.00    +0.035 C 
ATOM     25  C   UNL     1      33.317 -19.311 -20.827  0.00  0.00    +0.035 C 
ATOM     26  C   UNL     1      35.445 -20.854 -20.094  0.00  0.00    +0.100 C 
ATOM     27  C   UNL     1      33.174 -20.510 -20.148  0.00  0.00    +0.100 C 
ENDBRANCH  20  23
ENDBRANCH  18  20
ENDBRANCH  17  18
ENDBRANCH  16  17
ENDBRANCH   2  16
TORSDOF 8
ENDMDL
MODEL 7
REMARK VINA RESULT:      -8.7      3.879      7.662
REMARK  Name = 9820034
REMARK  8 active torsions:
REMARK  status: ('A' for Active; 'I' for Inactive)
REMARK    1  A    between atoms: C_1  and  C_10
REMARK    2  A    between atoms: C_2  and  O_16
REMARK    3  A    between atoms: N_9  and  C_11
REMARK    4  A    between atoms: N_9  and  C_14
REMARK    5  A    between atoms: O_16  and  C_17
REMARK    6  A    between atoms: C_17  and  C_18
REMARK    7  A    between atoms: C_18  and  N_20
REMARK    8  A    between atoms: N_20  and  C_23
REMARK                            x       y       z     vdW  Elec       q    Type
REMARK                         _______ _______ _______ _____ _____    ______ ____
ROOT
ATOM      1  C   UNL     1      35.383 -18.655 -21.479  0.00  0.00    +0.056 C 
ATOM      2  C   UNL     1      34.853 -16.362 -21.989  0.00  0.00    +0.138 C 
ATOM      3  C   UNL     1      35.246 -17.327 -21.071  0.00  0.00    +0.041 C 
ATOM      4  C   UNL     1      35.128 -19.006 -22.803  0.00  0.00    +0.000 C 
ATOM      5  C   UNL     1      34.735 -18.032 -23.720  0.00  0.00    -0.019 C 
ATOM      6  C   UNL     1      34.597 -16.705 -23.312  0.00  0.00    +0.033 C 
ATOM      7  C   UNL     1      34.462 -18.407 -25.138  0.00  0.00    +0.031 C 
ENDROOT
BRANCH   1  10
ATOM      8  O   UNL     1      36.995 -19.706 -20.222  0.00  0.00    -0.270 OA
ATOM      9  N   UNL     1      34.827 -20.553 -20.008  0.00  0.00    -0.278 N 
ATOM     10  C   UNL     1      35.794 -19.670 -20.522  0.00  0.00    +0.249 C 
BRANCH   9  11
ATOM     11  C   UNL     1      35.153 -21.921 -19.614  0.00  0.00    +0.076 C 
ATOM     12  C   UNL     1      36.132 -21.922 -18.445  0.00  0.00    +0.022 C 
ATOM     13  C   UNL     1      33.884 -22.691 -19.272  0.00  0.00    +0.022 C 
ENDBRANCH   9  11
BRANCH   9  14
ATOM     14  C   UNL     1      33.434 -20.161 -19.834  0.00  0.00    +0.094 C 
ATOM     15  C   UNL     1      32.668 -20.244 -21.138  0.00  0.00    +0.023 C 
ENDBRANCH   9  14
ENDBRANCH   1  10
BRANCH   2  16
ATOM     16  O   UNL     1      34.719 -15.058 -21.589  0.00  0.00    -0.474 OA
BRANCH  16  17
ATOM     17  C   UNL     1      33.429 -14.656 -21.140  0.00  0.00    +0.225 C 
BRANCH  17  18
ATOM     18  C   UNL     1      32.950 -13.472 -21.975  0.00  0.00    +0.113 C 
ATOM     19  C   UNL     1      31.848 -12.702 -21.257  0.00  0.00    +0.025 C 
BRANCH  18  20
ATOM     20  N   UNL     1      32.437 -13.946 -23.244  0.00  0.00    -0.331 N 
ATOM     21  H   UNL     1      31.717 -14.618 -23.234  0.00  0.00    +0.147 HD
BRANCH  20  23
ATOM     22  N   UNL     1      33.856 -12.606 -26.968  0.00  0.00    -0.242 NA
ATOM     23  C   UNL     1      32.903 -13.505 -24.468  0.00  0.00    +0.048 C 
ATOM     24  C   UNL     1      32.767 -14.293 -25.623  0.00  0.00    +0.035 C 
ATOM     25  C   UNL     1      33.529 -12.255 -24.599  0.00  0.00    +0.035 C 
ATOM     26  C   UNL     1      33.251 -13.807 -26.826  0.00  0.00    +0.100 C 
ATOM     27  C   UNL     1      33.980 -11.860 -25.848  0.00  0.00    +0.100 C 
ENDBRANCH  20  23
ENDBRANCH  18  20
ENDBRANCH  17  18
ENDBRANCH  16  17
ENDBRANCH   2  16
TORSDOF 8
ENDMDL
MODEL 8
REMARK VINA RESULT:      -8.7      1.439      2.000
REMARK  Name = 9820034
REMARK  8 active torsions:
REMARK  status: ('A' for Active; 'I' for Inactive)
REMARK    1  A    between atoms: C_1  and  C_10
REMARK    2  A    between atoms: C_2  and  O_16
REMARK    3  A    between atoms: N_9  and  C_11
REMARK    4  A    between atoms: N_9  and  C_14
REMARK    5  A    between atoms: O_16  and  C_17
REMARK    6  A    between atoms: C_17  and  C_18
REMARK    7  A    between atoms: C_18  and  N_20
REMARK    8  A    between atoms: N_20  and  C_23
REMARK                            x       y       z     vdW  Elec       q    Type
REMARK                         _______ _______ _______ _____ _____    ______ ____
ROOT
ATOM      1  C   UNL     1      35.446 -22.902 -16.321  0.00  0.00    +0.056 C 
ATOM      2  C   UNL     1      34.415 -22.377 -18.433  0.00  0.00    +0.138 C 
ATOM      3  C   UNL     1      35.553 -22.462 -17.641  0.00  0.00    +0.041 C 
ATOM      4  C   UNL     1      34.200 -23.252 -15.802  0.00  0.00    +0.000 C 
ATOM      5  C   UNL     1      33.061 -23.164 -16.603  0.00  0.00    -0.019 C 
ATOM      6  C   UNL     1      33.169 -22.725 -17.922  0.00  0.00    +0.033 C 
ATOM      7  C   UNL     1      31.728 -23.540 -16.049  0.00  0.00    +0.031 C 
ENDROOT
BRANCH   1  10
ATOM      8  O   UNL     1      37.480 -22.099 -15.615  0.00  0.00    -0.270 OA
ATOM      9  N   UNL     1      36.764 -24.081 -14.603  0.00  0.00    -0.278 N 
ATOM     10  C   UNL     1      36.634 -22.993 -15.486  0.00  0.00    +0.249 C 
BRANCH   9  11
ATOM     11  C   UNL     1      38.066 -24.635 -14.239  0.00  0.00    +0.076 C 
ATOM     12  C   UNL     1      38.307 -24.492 -12.741  0.00  0.00    +0.022 C 
ATOM     13  C   UNL     1      38.163 -26.091 -14.678  0.00  0.00    +0.022 C 
ENDBRANCH   9  11
BRANCH   9  14
ATOM     14  C   UNL     1      35.610 -24.726 -13.993  0.00  0.00    +0.094 C 
ATOM     15  C   UNL     1      35.151 -23.985 -12.754  0.00  0.00    +0.023 C 
ENDBRANCH   9  14
ENDBRANCH   1  10
BRANCH   2  16
ATOM     16  O   UNL     1      34.520 -21.946 -19.729  0.00  0.00    -0.474 OA
BRANCH  16  17
ATOM     17  C   UNL     1      35.358 -20.819 -19.963  0.00  0.00    +0.225 C 
BRANCH  17  18
ATOM     18  C   UNL     1      34.580 -19.766 -20.749  0.00  0.00    +0.113 C 
ATOM     19  C   UNL     1      33.088 -20.075 -20.756  0.00  0.00    +0.025 C 
BRANCH  18  20
ATOM     20  N   UNL     1      35.055 -19.728 -22.117  0.00  0.00    -0.331 N 
ATOM     21  H   UNL     1      35.482 -20.536 -22.484  0.00  0.00    +0.147 HD
BRANCH  20  23
ATOM     22  N   UNL     1      34.709 -16.354 -24.602  0.00  0.00    -0.242 NA
ATOM     23  C   UNL     1      34.942 -18.619 -22.934  0.00  0.00    +0.048 C 
ATOM     24  C   UNL     1      35.186 -17.327 -22.441  0.00  0.00    +0.035 C 
ATOM     25  C   UNL     1      34.578 -18.747 -24.284  0.00  0.00    +0.035 C 
ATOM     26  C   UNL     1      35.058 -16.248 -23.300  0.00  0.00    +0.100 C 
ATOM     27  C   UNL     1      34.477 -17.605 -25.061  0.00  0.00    +0.100 C 
ENDBRANCH  20  23
ENDBRANCH  18  20
ENDBRANCH  17  18
ENDBRANCH  16  17
ENDBRANCH   2  16
TORSDOF 8
ENDMDL
MODEL 9
REMARK VINA RESULT:      -8.6      1.965      3.886
REMARK  Name = 9820034
REMARK  8 active torsions:
REMARK  status: ('A' for Active; 'I' for Inactive)
REMARK    1  A    between atoms: C_1  and  C_10
REMARK    2  A    between atoms: C_2  and  O_16
REMARK    3  A    between atoms: N_9  and  C_11
REMARK    4  A    between atoms: N_9  and  C_14
REMARK    5  A    between atoms: O_16  and  C_17
REMARK    6  A    between atoms: C_17  and  C_18
REMARK    7  A    between atoms: C_18  and  N_20
REMARK    8  A    between atoms: N_20  and  C_23
REMARK                            x       y       z     vdW  Elec       q    Type
REMARK                         _______ _______ _______ _____ _____    ______ ____
ROOT
ATOM      1  C   UNL     1      34.152 -22.889 -16.976  0.00  0.00    +0.056 C 
ATOM      2  C   UNL     1      35.214 -21.905 -18.900  0.00  0.00    +0.138 C 
ATOM      3  C   UNL     1      34.084 -22.442 -18.296  0.00  0.00    +0.041 C 
ATOM      4  C   UNL     1      35.350 -22.795 -16.269  0.00  0.00    +0.000 C 
ATOM      5  C   UNL     1      36.481 -22.255 -16.882  0.00  0.00    -0.019 C 
ATOM      6  C   UNL     1      36.413 -21.809 -18.201  0.00  0.00    +0.033 C 
ATOM      7  C   UNL     1      37.763 -22.155 -16.126  0.00  0.00    +0.031 C 
ENDROOT
BRANCH   1  10
ATOM      8  O   UNL     1      31.923 -23.448 -16.995  0.00  0.00    -0.270 OA
ATOM      9  N   UNL     1      33.079 -23.948 -15.026  0.00  0.00    -0.278 N 
ATOM     10  C   UNL     1      32.972 -23.452 -16.337  0.00  0.00    +0.249 C 
BRANCH   9  11
ATOM     11  C   UNL     1      31.959 -23.916 -14.088  0.00  0.00    +0.076 C 
ATOM     12  C   UNL     1      31.132 -22.651 -14.287  0.00  0.00    +0.022 C 
ATOM     13  C   UNL     1      31.102 -25.166 -14.242  0.00  0.00    +0.022 C 
ENDBRANCH   9  11
BRANCH   9  14
ATOM     14  C   UNL     1      34.313 -24.529 -14.515  0.00  0.00    +0.094 C 
ATOM     15  C   UNL     1      34.538 -24.163 -13.062  0.00  0.00    +0.023 C 
ENDBRANCH   9  14
ENDBRANCH   1  10
BRANCH   2  16
ATOM     16  O   UNL     1      35.148 -21.465 -20.196  0.00  0.00    -0.474 OA
BRANCH  16  17
ATOM     17  C   UNL     1      35.845 -20.262 -20.500  0.00  0.00    +0.225 C 
BRANCH  17  18
ATOM     18  C   UNL     1      34.879 -19.265 -21.136  0.00  0.00    +0.113 C 
ATOM     19  C   UNL     1      33.440 -19.757 -21.044  0.00  0.00    +0.025 C 
BRANCH  18  20
ATOM     20  N   UNL     1      35.220 -19.078 -22.532  0.00  0.00    -0.331 N 
ATOM     21  H   UNL     1      35.716 -19.795 -22.990  0.00  0.00    +0.147 HD
BRANCH  20  23
ATOM     22  N   UNL     1      34.207 -15.639 -24.728  0.00  0.00    -0.242 NA
ATOM     23  C   UNL     1      34.887 -17.948 -23.254  0.00  0.00    +0.048 C 
ATOM     24  C   UNL     1      34.532 -18.031 -24.610  0.00  0.00    +0.035 C 
ATOM     25  C   UNL     1      34.893 -16.677 -22.656  0.00  0.00    +0.035 C 
ATOM     26  C   UNL     1      34.206 -16.870 -25.289  0.00  0.00    +0.100 C 
ATOM     27  C   UNL     1      34.551 -15.575 -23.423  0.00  0.00    +0.100 C 
ENDBRANCH  20  23
ENDBRANCH  18  20
ENDBRANCH  17  18
ENDBRANCH  16  17
ENDBRANCH   2  16
TORSDOF 8
ENDMDL
