MODEL 1
REMARK VINA RESULT:     -11.5      0.000      0.000
REMARK  Name = 2754
REMARK  7 active torsions:
REMARK  status: ('A' for Active; 'I' for Inactive)
REMARK    1  A    between atoms: C_1  and  C_2
REMARK    2  A    between atoms: C_1  and  C_15
REMARK    3  A    between atoms: C_2  and  C_3
REMARK    4  A    between atoms: C_3  and  C_8
REMARK    5  A    between atoms: N_4  and  C_9
REMARK    6  A    between atoms: C_15  and  O_16
REMARK    7  A    between atoms: O_16  and  C_23
REMARK                            x       y       z     vdW  Elec       q    Type
REMARK                         _______ _______ _______ _____ _____    ______ ____
ROOT
ATOM      1  C   UNL     1      33.789 -22.389 -19.365  0.00  0.00    +0.048 C 
ENDROOT
BRANCH   1   2
ATOM      2  C   UNL     1      33.038 -21.061 -19.446  0.00  0.00    +0.012 C 
BRANCH   2   3
ATOM      3  C   UNL     1      33.429 -20.279 -20.703  0.00  0.00    +0.068 C 
BRANCH   3   8
ATOM      4  N   UNL     1      35.402 -19.005 -21.547  0.00  0.00    -0.219 N 
ATOM      5  N   UNL     1      36.702 -18.845 -21.266  0.00  0.00    -0.043 NA
ATOM      6  N   UNL     1      35.778 -20.285 -19.838  0.00  0.00    -0.113 NA
ATOM      7  N   UNL     1      36.927 -19.629 -20.219  0.00  0.00    -0.023 NA
ATOM      8  C   UNL     1      34.882 -19.873 -20.671  0.00  0.00    +0.161 A 
BRANCH   4   9
ATOM      9  C   UNL     1      34.773 -18.284 -22.661  0.00  0.00    +0.108 C 
ATOM     10  C   UNL     1      34.939 -19.022 -24.001  0.00  0.00    +0.024 C 
ATOM     11  C   UNL     1      35.252 -16.825 -22.756  0.00  0.00    +0.024 C 
ATOM     12  C   UNL     1      34.251 -18.269 -25.139  0.00  0.00    +0.002 C 
ATOM     13  C   UNL     1      34.561 -16.087 -23.901  0.00  0.00    +0.002 C 
ATOM     14  C   UNL     1      34.731 -16.823 -25.229  0.00  0.00    +0.000 C 
ENDBRANCH   4   9
ENDBRANCH   3   8
ENDBRANCH   2   3
ENDBRANCH   1   2
BRANCH   1  15
ATOM     15  C   UNL     1      33.666 -23.020 -17.985  0.00  0.00    +0.205 C 
BRANCH  15  16
ATOM     16  O   UNL     1      34.908 -22.877 -17.300  0.00  0.00    -0.475 OA
BRANCH  16  23
ATOM     17  O   UNL     1      36.056 -24.328  -9.887  0.00  0.00    -0.275 OA
ATOM     18  N   UNL     1      34.979 -24.227 -11.912  0.00  0.00    -0.284 N 
ATOM     19  C   UNL     1      36.128 -23.383 -13.882  0.00  0.00    -0.005 C 
ATOM     20  C   UNL     1      37.400 -23.311 -13.088  0.00  0.00    +0.037 C 
ATOM     21  C   UNL     1      34.966 -23.878 -13.275  0.00  0.00    +0.046 C 
ATOM     22  C   UNL     1      37.108 -23.047 -11.618  0.00  0.00    +0.090 C 
ATOM     23  C   UNL     1      34.932 -23.221 -15.983  0.00  0.00    +0.138 C 
ATOM     24  C   UNL     1      36.105 -23.062 -15.243  0.00  0.00    +0.034 C 
ATOM     25  C   UNL     1      36.029 -23.952 -11.058  0.00  0.00    +0.226 C 
ATOM     26  C   UNL     1      33.798 -24.056 -14.018  0.00  0.00    +0.017 C 
ATOM     27  C   UNL     1      33.782 -23.719 -15.372  0.00  0.00    +0.038 C 
ATOM     28  H   UNL     1      34.194 -24.697 -11.547  0.00  0.00    +0.155 HD
ENDBRANCH  16  23
ENDBRANCH  15  16
ENDBRANCH   1  15
TORSDOF 7
ENDMDL
MODEL 2
REMARK VINA RESULT:     -11.4      5.041      8.362
REMARK  Name = 2754
REMARK  7 active torsions:
REMARK  status: ('A' for Active; 'I' for Inactive)
REMARK    1  A    between atoms: C_1  and  C_2
REMARK    2  A    between atoms: C_1  and  C_15
REMARK    3  A    between atoms: C_2  and  C_3
REMARK    4  A    between atoms: C_3  and  C_8
REMARK    5  A    between atoms: N_4  and  C_9
REMARK    6  A    between atoms: C_15  and  O_16
REMARK    7  A    between atoms: O_16  and  C_23
REMARK                            x       y       z     vdW  Elec       q    Type
REMARK                         _______ _______ _______ _____ _____    ______ ____
ROOT
ATOM      1  C   UNL     1      34.368 -15.462 -22.106  0.00  0.00    +0.048 C 
ENDROOT
BRANCH   1   2
ATOM      2  C   UNL     1      33.089 -14.807 -22.625  0.00  0.00    +0.012 C 
BRANCH   2   3
ATOM      3  C   UNL     1      33.260 -13.292 -22.766  0.00  0.00    +0.068 C 
BRANCH   3   8
ATOM      4  N   UNL     1      33.689 -11.625 -24.572  0.00  0.00    -0.219 N 
ATOM      5  N   UNL     1      33.783 -11.579 -25.908  0.00  0.00    -0.043 NA
ATOM      6  N   UNL     1      33.343 -13.659 -25.240  0.00  0.00    -0.113 NA
ATOM      7  N   UNL     1      33.571 -12.825 -26.312  0.00  0.00    -0.023 NA
ATOM      8  C   UNL     1      33.426 -12.886 -24.209  0.00  0.00    +0.161 A 
BRANCH   4   9
ATOM      9  C   UNL     1      33.870 -10.417 -23.758  0.00  0.00    +0.108 C 
ATOM     10  C   UNL     1      32.532  -9.847 -23.256  0.00  0.00    +0.024 C 
ATOM     11  C   UNL     1      34.706  -9.346 -24.480  0.00  0.00    +0.024 C 
ATOM     12  C   UNL     1      32.747  -8.609 -22.386  0.00  0.00    +0.002 C 
ATOM     13  C   UNL     1      34.906  -8.113 -23.602  0.00  0.00    +0.002 C 
ATOM     14  C   UNL     1      33.575  -7.550 -23.108  0.00  0.00    +0.000 C 
ENDBRANCH   4   9
ENDBRANCH   3   8
ENDBRANCH   2   3
ENDBRANCH   1   2
BRANCH   1  15
ATOM     15  C   UNL     1      35.104 -16.208 -23.209  0.00  0.00    +0.205 C 
BRANCH  15  16
ATOM     16  O   UNL     1      34.600 -17.540 -23.281  0.00  0.00    -0.475 OA
BRANCH  16  23
ATOM     17  O   UNL     1      35.489 -22.679 -17.697  0.00  0.00    -0.275 OA
ATOM     18  N   UNL     1      36.031 -21.043 -19.214  0.00  0.00    -0.284 N 
ATOM     19  C   UNL     1      34.320 -20.057 -20.633  0.00  0.00    -0.005 C 
ATOM     20  C   UNL     1      33.275 -20.827 -19.878  0.00  0.00    +0.037 C 
ATOM     21  C   UNL     1      35.663 -20.162 -20.248  0.00  0.00    +0.046 C 
ATOM     22  C   UNL     1      33.841 -22.137 -19.352  0.00  0.00    +0.090 C 
ATOM     23  C   UNL     1      34.946 -18.389 -22.275  0.00  0.00    +0.138 C 
ATOM     24  C   UNL     1      33.967 -19.160 -21.646  0.00  0.00    +0.034 C 
ATOM     25  C   UNL     1      35.173 -21.967 -18.649  0.00  0.00    +0.226 C 
ATOM     26  C   UNL     1      36.640 -19.377 -20.862  0.00  0.00    +0.017 C 
ATOM     27  C   UNL     1      36.279 -18.495 -21.881  0.00  0.00    +0.038 C 
ATOM     28  H   UNL     1      36.954 -20.998 -18.874  0.00  0.00    +0.155 HD
ENDBRANCH  16  23
ENDBRANCH  15  16
ENDBRANCH   1  15
TORSDOF 7
ENDMDL
MODEL 3
REMARK VINA RESULT:     -11.3      6.869     12.405
REMARK  Name = 2754
REMARK  7 active torsions:
REMARK  status: ('A' for Active; 'I' for Inactive)
REMARK    1  A    between atoms: C_1  and  C_2
REMARK    2  A    between atoms: C_1  and  C_15
REMARK    3  A    between atoms: C_2  and  C_3
REMARK    4  A    between atoms: C_3  and  C_8
REMARK    5  A    between atoms: N_4  and  C_9
REMARK    6  A    between atoms: C_15  and  O_16
REMARK    7  A    between atoms: O_16  and  C_23
REMARK                            x       y       z     vdW  Elec       q    Type
REMARK                         _______ _______ _______ _____ _____    ______ ____
ROOT
ATOM      1  C   UNL     1      32.852 -14.786 -21.003  0.00  0.00    +0.048 C 
ENDROOT
BRANCH   1   2
ATOM      2  C   UNL     1      34.369 -14.916 -21.134  0.00  0.00    +0.012 C 
BRANCH   2   3
ATOM      3  C   UNL     1      34.833 -16.341 -20.820  0.00  0.00    +0.068 C 
BRANCH   3   8
ATOM      4  N   UNL     1      34.690 -18.544 -21.984  0.00  0.00    -0.219 N 
ATOM      5  N   UNL     1      34.702 -19.036 -23.230  0.00  0.00    -0.043 NA
ATOM      6  N   UNL     1      34.902 -16.816 -23.276  0.00  0.00    -0.113 NA
ATOM      7  N   UNL     1      34.831 -17.975 -24.017  0.00  0.00    -0.023 NA
ATOM      8  C   UNL     1      34.812 -17.213 -22.051  0.00  0.00    +0.161 A 
BRANCH   4   9
ATOM      9  C   UNL     1      34.559 -19.431 -20.821  0.00  0.00    +0.108 C 
ATOM     10  C   UNL     1      35.725 -20.429 -20.713  0.00  0.00    +0.024 C 
ATOM     11  C   UNL     1      33.197 -20.147 -20.785  0.00  0.00    +0.024 C 
ATOM     12  C   UNL     1      35.582 -21.319 -19.480  0.00  0.00    +0.002 C 
ATOM     13  C   UNL     1      33.071 -21.038 -19.551  0.00  0.00    +0.002 C 
ATOM     14  C   UNL     1      34.230 -22.028 -19.450  0.00  0.00    +0.000 C 
ENDBRANCH   4   9
ENDBRANCH   3   8
ENDBRANCH   2   3
ENDBRANCH   1   2
BRANCH   1  15
ATOM     15  C   UNL     1      32.335 -13.534 -21.696  0.00  0.00    +0.205 C 
BRANCH  15  16
ATOM     16  O   UNL     1      31.566 -12.775 -20.764  0.00  0.00    -0.475 OA
BRANCH  16  23
ATOM     17  O   UNL     1      31.944  -5.276 -22.176  0.00  0.00    -0.275 OA
ATOM     18  N   UNL     1      31.985  -7.241 -20.989  0.00  0.00    -0.284 N 
ATOM     19  C   UNL     1      31.712  -9.375 -22.121  0.00  0.00    -0.005 C 
ATOM     20  C   UNL     1      31.746  -8.659 -23.441  0.00  0.00    +0.037 C 
ATOM     21  C   UNL     1      31.872  -8.642 -20.938  0.00  0.00    +0.046 C 
ATOM     22  C   UNL     1      31.190  -7.250 -23.308  0.00  0.00    +0.090 C 
ATOM     23  C   UNL     1      31.683 -11.420 -20.823  0.00  0.00    +0.138 C 
ATOM     24  C   UNL     1      31.624 -10.769 -22.057  0.00  0.00    +0.034 C 
ATOM     25  C   UNL     1      31.771  -6.493 -22.130  0.00  0.00    +0.226 C 
ATOM     26  C   UNL     1      31.951  -9.294 -19.706  0.00  0.00    +0.017 C 
ATOM     27  C   UNL     1      31.849 -10.684 -19.651  0.00  0.00    +0.038 C 
ATOM     28  H   UNL     1      32.232  -6.766 -20.162  0.00  0.00    +0.155 HD
ENDBRANCH  16  23
ENDBRANCH  15  16
ENDBRANCH   1  15
TORSDOF 7
ENDMDL
MODEL 4
REMARK VINA RESULT:     -11.3      3.609      6.481
REMARK  Name = 2754
REMARK  7 active torsions:
REMARK  status: ('A' for Active; 'I' for Inactive)
REMARK    1  A    between atoms: C_1  and  C_2
REMARK    2  A    between atoms: C_1  and  C_15
REMARK    3  A    between atoms: C_2  and  C_3
REMARK    4  A    between atoms: C_3  and  C_8
REMARK    5  A    between atoms: N_4  and  C_9
REMARK    6  A    between atoms: C_15  and  O_16
REMARK    7  A    between atoms: O_16  and  C_23
REMARK                            x       y       z     vdW  Elec       q    Type
REMARK                         _______ _______ _______ _____ _____    ______ ____
ROOT
ATOM      1  C   UNL     1      34.662 -18.762 -24.750  0.00  0.00    +0.048 C 
ENDROOT
BRANCH   1   2
ATOM      2  C   UNL     1      34.774 -17.357 -25.341  0.00  0.00    +0.012 C 
BRANCH   2   3
ATOM      3  C   UNL     1      33.405 -16.825 -25.771  0.00  0.00    +0.068 C 
BRANCH   3   8
ATOM      4  N   UNL     1      33.329 -14.554 -24.739  0.00  0.00    -0.219 N 
ATOM      5  N   UNL     1      33.338 -13.268 -25.116  0.00  0.00    -0.043 NA
ATOM      6  N   UNL     1      33.442 -14.594 -26.905  0.00  0.00    -0.113 NA
ATOM      7  N   UNL     1      33.408 -13.298 -26.441  0.00  0.00    -0.023 NA
ATOM      8  C   UNL     1      33.393 -15.318 -25.837  0.00  0.00    +0.161 A 
BRANCH   4   9
ATOM      9  C   UNL     1      33.259 -14.927 -23.321  0.00  0.00    +0.108 C 
ATOM     10  C   UNL     1      32.461 -13.910 -22.488  0.00  0.00    +0.024 C 
ATOM     11  C   UNL     1      34.651 -15.185 -22.717  0.00  0.00    +0.024 C 
ATOM     12  C   UNL     1      32.376 -14.335 -21.024  0.00  0.00    +0.002 C 
ATOM     13  C   UNL     1      34.550 -15.603 -21.251  0.00  0.00    +0.002 C 
ATOM     14  C   UNL     1      33.759 -14.588 -20.429  0.00  0.00    +0.000 C 
ENDBRANCH   4   9
ENDBRANCH   3   8
ENDBRANCH   2   3
ENDBRANCH   1   2
BRANCH   1  15
ATOM     15  C   UNL     1      35.177 -18.811 -23.319  0.00  0.00    +0.205 C 
BRANCH  15  16
ATOM     16  O   UNL     1      34.064 -18.789 -22.427  0.00  0.00    -0.475 OA
BRANCH  16  23
ATOM     17  O   UNL     1      35.324 -23.490 -16.536  0.00  0.00    -0.275 OA
ATOM     18  N   UNL     1      34.167 -22.298 -18.121  0.00  0.00    -0.284 N 
ATOM     19  C   UNL     1      35.351 -20.965 -19.775  0.00  0.00    -0.005 C 
ATOM     20  C   UNL     1      36.650 -21.520 -19.266  0.00  0.00    +0.037 C 
ATOM     21  C   UNL     1      34.148 -21.404 -19.208  0.00  0.00    +0.046 C 
ATOM     22  C   UNL     1      36.554 -21.854 -17.785  0.00  0.00    +0.090 C 
ATOM     23  C   UNL     1      34.092 -19.660 -21.381  0.00  0.00    +0.138 C 
ATOM     24  C   UNL     1      35.315 -20.095 -20.869  0.00  0.00    +0.034 C 
ATOM     25  C   UNL     1      35.313 -22.652 -17.437  0.00  0.00    +0.226 C 
ATOM     26  C   UNL     1      32.923 -20.986 -19.732  0.00  0.00    +0.017 C 
ATOM     27  C   UNL     1      32.898 -20.107 -20.815  0.00  0.00    +0.038 C 
ATOM     28  H   UNL     1      33.313 -22.694 -17.832  0.00  0.00    +0.155 HD
ENDBRANCH  16  23
ENDBRANCH  15  16
ENDBRANCH   1  15
TORSDOF 7
ENDMDL
MODEL 5
REMARK VINA RESULT:     -11.2      3.717      6.346
REMARK  Name = 2754
REMARK  7 active torsions:
REMARK  status: ('A' for Active; 'I' for Inactive)
REMARK    1  A    between atoms: C_1  and  C_2
REMARK    2  A    between atoms: C_1  and  C_15
REMARK    3  A    between atoms: C_2  and  C_3
REMARK    4  A    between atoms: C_3  and  C_8
REMARK    5  A    between atoms: N_4  and  C_9
REMARK    6  A    between atoms: C_15  and  O_16
REMARK    7  A    between atoms: O_16  and  C_23
REMARK                            x       y       z     vdW  Elec       q    Type
REMARK                         _______ _______ _______ _____ _____    ______ ____
ROOT
ATOM      1  C   UNL     1      34.845 -16.724 -21.221  0.00  0.00    +0.048 C 
ENDROOT
BRANCH   1   2
ATOM      2  C   UNL     1      34.093 -15.987 -22.329  0.00  0.00    +0.012 C 
BRANCH   2   3
ATOM      3  C   UNL     1      34.942 -15.880 -23.598  0.00  0.00    +0.068 C 
BRANCH   3   8
ATOM      4  N   UNL     1      33.505 -14.365 -24.965  0.00  0.00    -0.219 N 
ATOM      5  N   UNL     1      32.829 -14.379 -26.122  0.00  0.00    -0.043 NA
ATOM      6  N   UNL     1      33.835 -16.341 -25.795  0.00  0.00    -0.113 NA
ATOM      7  N   UNL     1      33.035 -15.589 -26.626  0.00  0.00    -0.023 NA
ATOM      8  C   UNL     1      34.095 -15.556 -24.803  0.00  0.00    +0.161 A 
BRANCH   4   9
ATOM      9  C   UNL     1      33.517 -13.173 -24.108  0.00  0.00    +0.108 C 
ATOM     10  C   UNL     1      32.220 -13.027 -23.294  0.00  0.00    +0.024 C 
ATOM     11  C   UNL     1      33.836 -11.891 -24.897  0.00  0.00    +0.024 C 
ATOM     12  C   UNL     1      32.268 -11.797 -22.388  0.00  0.00    +0.002 C 
ATOM     13  C   UNL     1      33.874 -10.670 -23.981  0.00  0.00    +0.002 C 
ATOM     14  C   UNL     1      32.583 -10.529 -23.176  0.00  0.00    +0.000 C 
ENDBRANCH   4   9
ENDBRANCH   3   8
ENDBRANCH   2   3
ENDBRANCH   1   2
BRANCH   1  15
ATOM     15  C   UNL     1      35.678 -17.870 -21.774  0.00  0.00    +0.205 C 
BRANCH  15  16
ATOM     16  O   UNL     1      34.818 -18.971 -22.058  0.00  0.00    -0.475 OA
BRANCH  16  23
ATOM     17  O   UNL     1      34.787 -23.869 -16.193  0.00  0.00    -0.275 OA
ATOM     18  N   UNL     1      33.997 -22.622 -17.952  0.00  0.00    -0.284 N 
ATOM     19  C   UNL     1      35.507 -21.237 -19.263  0.00  0.00    -0.005 C 
ATOM     20  C   UNL     1      36.666 -21.812 -18.501  0.00  0.00    +0.037 C 
ATOM     21  C   UNL     1      34.211 -21.692 -18.987  0.00  0.00    +0.046 C 
ATOM     22  C   UNL     1      36.252 -22.195 -17.089  0.00  0.00    +0.090 C 
ATOM     23  C   UNL     1      34.621 -19.877 -21.061  0.00  0.00    +0.138 C 
ATOM     24  C   UNL     1      35.706 -20.331 -20.309  0.00  0.00    +0.034 C 
ATOM     25  C   UNL     1      34.969 -23.001 -17.047  0.00  0.00    +0.226 C 
ATOM     26  C   UNL     1      33.128 -21.254 -19.751  0.00  0.00    +0.017 C 
ATOM     27  C   UNL     1      33.335 -20.339 -20.784  0.00  0.00    +0.038 C 
ATOM     28  H   UNL     1      33.103 -23.025 -17.870  0.00  0.00    +0.155 HD
ENDBRANCH  16  23
ENDBRANCH  15  16
ENDBRANCH   1  15
TORSDOF 7
ENDMDL
MODEL 6
REMARK VINA RESULT:     -11.1      2.608      9.455
REMARK  Name = 2754
REMARK  7 active torsions:
REMARK  status: ('A' for Active; 'I' for Inactive)
REMARK    1  A    between atoms: C_1  and  C_2
REMARK    2  A    between atoms: C_1  and  C_15
REMARK    3  A    between atoms: C_2  and  C_3
REMARK    4  A    between atoms: C_3  and  C_8
REMARK    5  A    between atoms: N_4  and  C_9
REMARK    6  A    between atoms: C_15  and  O_16
REMARK    7  A    between atoms: O_16  and  C_23
REMARK                            x       y       z     vdW  Elec       q    Type
REMARK                         _______ _______ _______ _____ _____    ______ ____
ROOT
ATOM      1  C   UNL     1      35.975 -22.292 -16.643  0.00  0.00    +0.048 C 
ENDROOT
BRANCH   1   2
ATOM      2  C   UNL     1      36.666 -23.344 -15.776  0.00  0.00    +0.012 C 
BRANCH   2   3
ATOM      3  C   UNL     1      35.683 -24.432 -15.335  0.00  0.00    +0.068 C 
BRANCH   3   8
ATOM      4  N   UNL     1      33.962 -24.169 -13.547  0.00  0.00    -0.219 N 
ATOM      5  N   UNL     1      33.896 -23.996 -12.220  0.00  0.00    -0.043 NA
ATOM      6  N   UNL     1      36.023 -24.116 -12.875  0.00  0.00    -0.113 NA
ATOM      7  N   UNL     1      35.159 -23.965 -11.813  0.00  0.00    -0.023 NA
ATOM      8  C   UNL     1      35.251 -24.237 -13.903  0.00  0.00    +0.161 A 
BRANCH   4   9
ATOM      9  C   UNL     1      32.743 -24.255 -14.362  0.00  0.00    +0.108 C 
ATOM     10  C   UNL     1      32.188 -22.868 -14.729  0.00  0.00    +0.024 C 
ATOM     11  C   UNL     1      31.667 -25.140 -13.709  0.00  0.00    +0.024 C 
ATOM     12  C   UNL     1      30.939 -22.982 -15.602  0.00  0.00    +0.002 C 
ATOM     13  C   UNL     1      30.422 -25.239 -14.589  0.00  0.00    +0.002 C 
ATOM     14  C   UNL     1      29.874 -23.860 -14.949  0.00  0.00    +0.000 C 
ENDBRANCH   4   9
ENDBRANCH   3   8
ENDBRANCH   2   3
ENDBRANCH   1   2
BRANCH   1  15
ATOM     15  C   UNL     1      34.711 -22.840 -17.289  0.00  0.00    +0.205 C 
BRANCH  15  16
ATOM     16  O   UNL     1      34.901 -22.897 -18.701  0.00  0.00    -0.475 OA
BRANCH  16  23
ATOM     17  O   UNL     1      34.648 -16.515 -22.895  0.00  0.00    -0.275 OA
ATOM     18  N   UNL     1      33.909 -18.277 -21.622  0.00  0.00    -0.284 N 
ATOM     19  C   UNL     1      35.487 -19.868 -20.677  0.00  0.00    -0.005 C 
ATOM     20  C   UNL     1      36.618 -19.010 -21.169  0.00  0.00    +0.037 C 
ATOM     21  C   UNL     1      34.167 -19.449 -20.888  0.00  0.00    +0.046 C 
ATOM     22  C   UNL     1      36.222 -18.263 -22.433  0.00  0.00    +0.090 C 
ATOM     23  C   UNL     1      34.661 -21.756 -19.405  0.00  0.00    +0.138 C 
ATOM     24  C   UNL     1      35.728 -21.023 -19.927  0.00  0.00    +0.034 C 
ATOM     25  C   UNL     1      34.875 -17.578 -22.319  0.00  0.00    +0.226 C 
ATOM     26  C   UNL     1      33.100 -20.171 -20.350  0.00  0.00    +0.017 C 
ATOM     27  C   UNL     1      33.350 -21.330 -19.614  0.00  0.00    +0.038 C 
ATOM     28  H   UNL     1      32.986 -17.934 -21.638  0.00  0.00    +0.155 HD
ENDBRANCH  16  23
ENDBRANCH  15  16
ENDBRANCH   1  15
TORSDOF 7
ENDMDL
MODEL 7
REMARK VINA RESULT:     -11.1      7.256     11.359
REMARK  Name = 2754
REMARK  7 active torsions:
REMARK  status: ('A' for Active; 'I' for Inactive)
REMARK    1  A    between atoms: C_1  and  C_2
REMARK    2  A    between atoms: C_1  and  C_15
REMARK    3  A    between atoms: C_2  and  C_3
REMARK    4  A    between atoms: C_3  and  C_8
REMARK    5  A    between atoms: N_4  and  C_9
REMARK    6  A    between atoms: C_15  and  O_16
REMARK    7  A    between atoms: O_16  and  C_23
REMARK                            x       y       z     vdW  Elec       q    Type
REMARK                         _______ _______ _______ _____ _____    ______ ____
ROOT
ATOM      1  C   UNL     1      33.353 -11.151 -23.878  0.00  0.00    +0.048 C 
ENDROOT
BRANCH   1   2
ATOM      2  C   UNL     1      32.272 -11.169 -22.798  0.00  0.00    +0.012 C 
BRANCH   2   3
ATOM      3  C   UNL     1      31.598  -9.801 -22.666  0.00  0.00    +0.068 C 
BRANCH   3   8
ATOM      4  N   UNL     1      32.585  -7.957 -21.304  0.00  0.00    -0.219 N 
ATOM      5  N   UNL     1      32.755  -7.626 -20.017  0.00  0.00    -0.043 NA
ATOM      6  N   UNL     1      31.703  -9.584 -20.175  0.00  0.00    -0.113 NA
ATOM      7  N   UNL     1      32.214  -8.624 -19.330  0.00  0.00    -0.023 NA
ATOM      8  C   UNL     1      31.951  -9.135 -21.359  0.00  0.00    +0.161 A 
BRANCH   4   9
ATOM      9  C   UNL     1      33.061  -7.080 -22.382  0.00  0.00    +0.108 C 
ATOM     10  C   UNL     1      31.910  -6.541 -23.248  0.00  0.00    +0.024 C 
ATOM     11  C   UNL     1      34.149  -7.750 -23.240  0.00  0.00    +0.024 C 
ATOM     12  C   UNL     1      32.426  -5.609 -24.342  0.00  0.00    +0.002 C 
ATOM     13  C   UNL     1      34.650  -6.809 -24.333  0.00  0.00    +0.002 C 
ATOM     14  C   UNL     1      33.503  -6.278 -25.191  0.00  0.00    +0.000 C 
ENDBRANCH   4   9
ENDBRANCH   3   8
ENDBRANCH   2   3
ENDBRANCH   1   2
BRANCH   1  15
ATOM     15  C   UNL     1      33.828 -12.556 -24.219  0.00  0.00    +0.205 C 
BRANCH  15  16
ATOM     16  O   UNL     1      32.953 -13.501 -23.606  0.00  0.00    -0.475 OA
BRANCH  16  23
ATOM     17  O   UNL     1      36.503 -19.493 -20.465  0.00  0.00    -0.275 OA
ATOM     18  N   UNL     1      35.351 -17.512 -20.603  0.00  0.00    -0.284 N 
ATOM     19  C   UNL     1      34.674 -16.624 -22.763  0.00  0.00    -0.005 C 
ATOM     20  C   UNL     1      35.162 -17.885 -23.415  0.00  0.00    +0.037 C 
ATOM     21  C   UNL     1      34.750 -16.497 -21.370  0.00  0.00    +0.046 C 
ATOM     22  C   UNL     1      36.320 -18.487 -22.633  0.00  0.00    +0.090 C 
ATOM     23  C   UNL     1      33.528 -14.492 -22.871  0.00  0.00    +0.138 C 
ATOM     24  C   UNL     1      34.053 -15.617 -23.509  0.00  0.00    +0.034 C 
ATOM     25  C   UNL     1      36.046 -18.575 -21.145  0.00  0.00    +0.226 C 
ATOM     26  C   UNL     1      34.207 -15.382 -20.729  0.00  0.00    +0.017 C 
ATOM     27  C   UNL     1      33.603 -14.376 -21.484  0.00  0.00    +0.038 C 
ATOM     28  H   UNL     1      35.270 -17.462 -19.623  0.00  0.00    +0.155 HD
ENDBRANCH  16  23
ENDBRANCH  15  16
ENDBRANCH   1  15
TORSDOF 7
ENDMDL
MODEL 8
REMARK VINA RESULT:     -11.1      6.176     12.382
REMARK  Name = 2754
REMARK  7 active torsions:
REMARK  status: ('A' for Active; 'I' for Inactive)
REMARK    1  A    between atoms: C_1  and  C_2
REMARK    2  A    between atoms: C_1  and  C_15
REMARK    3  A    between atoms: C_2  and  C_3
REMARK    4  A    between atoms: C_3  and  C_8
REMARK    5  A    between atoms: N_4  and  C_9
REMARK    6  A    between atoms: C_15  and  O_16
REMARK    7  A    between atoms: O_16  and  C_23
REMARK                            x       y       z     vdW  Elec       q    Type
REMARK                         _______ _______ _______ _____ _____    ______ ____
ROOT
ATOM      1  C   UNL     1      32.830 -14.925 -20.725  0.00  0.00    +0.048 C 
ENDROOT
BRANCH   1   2
ATOM      2  C   UNL     1      34.306 -15.000 -21.111  0.00  0.00    +0.012 C 
BRANCH   2   3
ATOM      3  C   UNL     1      34.888 -16.384 -20.812  0.00  0.00    +0.068 C 
BRANCH   3   8
ATOM      4  N   UNL     1      34.712 -18.592 -21.961  0.00  0.00    -0.219 N 
ATOM      5  N   UNL     1      34.742 -19.095 -23.203  0.00  0.00    -0.043 NA
ATOM      6  N   UNL     1      35.010 -16.883 -23.262  0.00  0.00    -0.113 NA
ATOM      7  N   UNL     1      34.925 -18.045 -23.995  0.00  0.00    -0.023 NA
ATOM      8  C   UNL     1      34.875 -17.266 -22.036  0.00  0.00    +0.161 A 
BRANCH   4   9
ATOM      9  C   UNL     1      34.521 -19.464 -20.795  0.00  0.00    +0.108 C 
ATOM     10  C   UNL     1      35.668 -20.476 -20.631  0.00  0.00    +0.024 C 
ATOM     11  C   UNL     1      33.149 -20.161 -20.805  0.00  0.00    +0.024 C 
ATOM     12  C   UNL     1      35.464 -21.351 -19.395  0.00  0.00    +0.002 C 
ATOM     13  C   UNL     1      32.963 -21.037 -19.568  0.00  0.00    +0.002 C 
ATOM     14  C   UNL     1      34.102 -22.041 -19.411  0.00  0.00    +0.000 C 
ENDBRANCH   4   9
ENDBRANCH   3   8
ENDBRANCH   2   3
ENDBRANCH   1   2
BRANCH   1  15
ATOM     15  C   UNL     1      32.312 -13.494 -20.765  0.00  0.00    +0.205 C 
BRANCH  15  16
ATOM     16  O   UNL     1      31.915 -13.184 -22.099  0.00  0.00    -0.475 OA
BRANCH  16  23
ATOM     17  O   UNL     1      34.749  -6.572 -24.673  0.00  0.00    -0.275 OA
ATOM     18  N   UNL     1      34.418  -8.836 -24.484  0.00  0.00    -0.284 N 
ATOM     19  C   UNL     1      32.780  -9.720 -22.919  0.00  0.00    -0.005 C 
ATOM     20  C   UNL     1      32.333  -8.317 -22.622  0.00  0.00    +0.037 C 
ATOM     21  C   UNL     1      33.785  -9.933 -23.872  0.00  0.00    +0.046 C 
ATOM     22  C   UNL     1      33.484  -7.335 -22.786  0.00  0.00    +0.090 C 
ATOM     23  C   UNL     1      32.517 -12.117 -22.693  0.00  0.00    +0.138 C 
ATOM     24  C   UNL     1      32.144 -10.820 -22.336  0.00  0.00    +0.034 C 
ATOM     25  C   UNL     1      34.245  -7.526 -24.082  0.00  0.00    +0.226 C 
ATOM     26  C   UNL     1      34.145 -11.230 -24.244  0.00  0.00    +0.017 C 
ATOM     27  C   UNL     1      33.513 -12.321 -23.647  0.00  0.00    +0.038 C 
ATOM     28  H   UNL     1      35.020  -9.013 -25.243  0.00  0.00    +0.155 HD
ENDBRANCH  16  23
ENDBRANCH  15  16
ENDBRANCH   1  15
TORSDOF 7
ENDMDL
MODEL 9
REMARK VINA RESULT:     -11.0      8.265     12.684
REMARK  Name = 2754
REMARK  7 active torsions:
REMARK  status: ('A' for Active; 'I' for Inactive)
REMARK    1  A    between atoms: C_1  and  C_2
REMARK    2  A    between atoms: C_1  and  C_15
REMARK    3  A    between atoms: C_2  and  C_3
REMARK    4  A    between atoms: C_3  and  C_8
REMARK    5  A    between atoms: N_4  and  C_9
REMARK    6  A    between atoms: C_15  and  O_16
REMARK    7  A    between atoms: O_16  and  C_23
REMARK                            x       y       z     vdW  Elec       q    Type
REMARK                         _______ _______ _______ _____ _____    ______ ____
ROOT
ATOM      1  C   UNL     1      34.719 -10.210 -24.026  0.00  0.00    +0.048 C 
ENDROOT
BRANCH   1   2
ATOM      2  C   UNL     1      34.561  -8.766 -24.502  0.00  0.00    +0.012 C 
BRANCH   2   3
ATOM      3  C   UNL     1      34.554  -7.790 -23.323  0.00  0.00    +0.068 C 
BRANCH   3   8
ATOM      4  N   UNL     1      32.263  -7.721 -22.336  0.00  0.00    -0.219 N 
ATOM      5  N   UNL     1      31.170  -6.946 -22.363  0.00  0.00    -0.043 NA
ATOM      6  N   UNL     1      32.758  -6.081 -23.665  0.00  0.00    -0.113 NA
ATOM      7  N   UNL     1      31.478  -5.944 -23.177  0.00  0.00    -0.023 NA
ATOM      8  C   UNL     1      33.192  -7.171 -23.127  0.00  0.00    +0.161 A 
BRANCH   4   9
ATOM      9  C   UNL     1      32.303  -8.946 -21.529  0.00  0.00    +0.108 C 
ATOM     10  C   UNL     1      31.414 -10.059 -22.111  0.00  0.00    +0.024 C 
ATOM     11  C   UNL     1      31.979  -8.680 -20.048  0.00  0.00    +0.024 C 
ATOM     12  C   UNL     1      31.497 -11.333 -21.271  0.00  0.00    +0.002 C 
ATOM     13  C   UNL     1      32.059  -9.963 -19.223  0.00  0.00    +0.002 C 
ATOM     14  C   UNL     1      31.173 -11.063 -19.804  0.00  0.00    +0.000 C 
ENDBRANCH   4   9
ENDBRANCH   3   8
ENDBRANCH   2   3
ENDBRANCH   1   2
BRANCH   1  15
ATOM     15  C   UNL     1      33.969 -11.182 -24.924  0.00  0.00    +0.205 C 
BRANCH  15  16
ATOM     16  O   UNL     1      33.304 -12.145 -24.108  0.00  0.00    -0.475 OA
BRANCH  16  23
ATOM     17  O   UNL     1      34.975 -19.587 -24.557  0.00  0.00    -0.275 OA
ATOM     18  N   UNL     1      34.227 -17.513 -25.198  0.00  0.00    -0.284 N 
ATOM     19  C   UNL     1      34.415 -15.612 -23.694  0.00  0.00    -0.005 C 
ATOM     20  C   UNL     1      35.194 -16.468 -22.738  0.00  0.00    +0.037 C 
ATOM     21  C   UNL     1      33.991 -16.156 -24.914  0.00  0.00    +0.046 C 
ATOM     22  C   UNL     1      34.767 -17.924 -22.842  0.00  0.00    +0.090 C 
ATOM     23  C   UNL     1      33.544 -13.458 -24.379  0.00  0.00    +0.138 C 
ATOM     24  C   UNL     1      34.193 -14.255 -23.436  0.00  0.00    +0.034 C 
ATOM     25  C   UNL     1      34.704 -18.421 -24.273  0.00  0.00    +0.226 C 
ATOM     26  C   UNL     1      33.359 -15.354 -25.867  0.00  0.00    +0.017 C 
ATOM     27  C   UNL     1      33.131 -14.005 -25.593  0.00  0.00    +0.038 C 
ATOM     28  H   UNL     1      34.042 -17.834 -26.111  0.00  0.00    +0.155 HD
ENDBRANCH  16  23
ENDBRANCH  15  16
ENDBRANCH   1  15
TORSDOF 7
ENDMDL
