MODEL 1
REMARK VINA RESULT:     -10.3      0.000      0.000
REMARK  Name = 86705695
REMARK  6 active torsions:
REMARK  status: ('A' for Active; 'I' for Inactive)
REMARK    1  A    between atoms: N_2  and  C_28
REMARK    2  A    between atoms: N_3  and  C_18
REMARK    3  A    between atoms: C_9  and  C_30
REMARK    4  A    between atoms: C_21  and  O_24
REMARK    5  A    between atoms: C_22  and  O_26
REMARK    6  A    between atoms: C_30  and  N_32
REMARK                            x       y       z     vdW  Elec       q    Type
REMARK                         _______ _______ _______ _____ _____    ______ ____
ROOT
ATOM      1  O   UNL     1      34.989 -16.857 -19.858  0.00  0.00    -0.252 OA
ATOM      2  N   UNL     1      34.649 -16.079 -22.010  0.00  0.00    -0.243 N 
ATOM      3  N   UNL     1      34.952 -18.425 -21.577  0.00  0.00    -0.234 N 
ATOM      4  N   UNL     1      33.353 -14.769 -26.433  0.00  0.00    -0.303 N 
ATOM      5  N   UNL     1      34.070 -17.029 -26.172  0.00  0.00    -0.229 NA
ATOM      6  C   UNL     1      34.428 -16.329 -23.401  0.00  0.00    +0.057 C 
ATOM      7  C   UNL     1      33.959 -15.378 -24.351  0.00  0.00    +0.046 C 
ATOM      8  C   UNL     1      34.695 -17.614 -23.887  0.00  0.00    +0.031 C 
ATOM      9  C   UNL     1      33.180 -13.667 -25.645  0.00  0.00    +0.005 C 
ATOM     10  C   UNL     1      35.268 -18.654 -22.985  0.00  0.00    +0.129 C 
ATOM     11  C   UNL     1      33.814 -15.808 -25.672  0.00  0.00    +0.133 C 
ATOM     12  C   UNL     1      33.540 -14.010 -24.361  0.00  0.00    +0.012 C 
ATOM     13  C   UNL     1      34.872 -17.111 -21.064  0.00  0.00    +0.315 C 
ATOM     14  C   UNL     1      34.514 -17.892 -25.241  0.00  0.00    +0.099 C 
ATOM     15  H   UNL     1      33.172 -14.808 -27.400  0.00  0.00    +0.153 HD
ENDROOT
BRANCH   3  18
ATOM     16  F   UNL     1      32.580 -19.735 -20.892  0.00  0.00    -0.200 F 
ATOM     17  F   UNL     1      37.300 -19.457 -20.461  0.00  0.00    -0.200 F 
ATOM     18  C   UNL     1      34.940 -19.571 -20.696  0.00  0.00    +0.117 C 
ATOM     19  C   UNL     1      33.733 -20.194 -20.380  0.00  0.00    +0.190 C 
ATOM     20  C   UNL     1      36.135 -20.053 -20.160  0.00  0.00    +0.190 C 
ATOM     21  C   UNL     1      36.122 -21.157 -19.309  0.00  0.00    +0.170 C 
ATOM     22  C   UNL     1      33.720 -21.299 -19.528  0.00  0.00    +0.170 C 
ATOM     23  C   UNL     1      34.915 -21.780 -18.993  0.00  0.00    +0.079 C 
BRANCH  21  24
ATOM     24  O   UNL     1      37.287 -21.628 -18.786  0.00  0.00    -0.469 OA
ATOM     25  C   UNL     1      37.281 -21.983 -17.403  0.00  0.00    +0.253 C 
ENDBRANCH  21  24
BRANCH  22  26
ATOM     26  O   UNL     1      32.543 -21.908 -19.219  0.00  0.00    -0.469 OA
ATOM     27  C   UNL     1      32.421 -22.456 -17.907  0.00  0.00    +0.253 C 
ENDBRANCH  22  26
ENDBRANCH   3  18
BRANCH   2  28
ATOM     28  C   UNL     1      34.581 -14.709 -21.516  0.00  0.00    +0.100 C 
ATOM     29  C   UNL     1      33.247 -14.422 -20.858  0.00  0.00    +0.024 C 
ENDBRANCH   2  28
BRANCH   9  30
ATOM     30  C   UNL     1      32.690 -12.393 -26.201  0.00  0.00    -0.035 C 
BRANCH  30  32
ATOM     31  O   UNL     1      35.623 -10.048 -24.326  0.00  0.00    -0.358 OA
ATOM     32  N   UNL     1      33.488 -11.242 -25.780  0.00  0.00    +0.394 N 
ATOM     33  C   UNL     1      33.422 -11.067 -24.323  0.00  0.00    -0.044 C 
ATOM     34  C   UNL     1      34.886 -11.393 -26.206  0.00  0.00    -0.044 C 
ATOM     35  C   UNL     1      34.270  -9.869 -23.907  0.00  0.00    +0.119 C 
ATOM     36  C   UNL     1      35.701 -10.188 -25.745  0.00  0.00    +0.119 C 
ATOM     37  H   UNL     1      33.098 -10.413 -26.227  0.00  0.00    -0.079 HD
ENDBRANCH  30  32
ENDBRANCH   9  30
TORSDOF 6
ENDMDL
MODEL 2
REMARK VINA RESULT:     -10.3      0.011      2.153
REMARK  Name = 86705695
REMARK  6 active torsions:
REMARK  status: ('A' for Active; 'I' for Inactive)
REMARK    1  A    between atoms: N_2  and  C_28
REMARK    2  A    between atoms: N_3  and  C_18
REMARK    3  A    between atoms: C_9  and  C_30
REMARK    4  A    between atoms: C_21  and  O_24
REMARK    5  A    between atoms: C_22  and  O_26
REMARK    6  A    between atoms: C_30  and  N_32
REMARK                            x       y       z     vdW  Elec       q    Type
REMARK                         _______ _______ _______ _____ _____    ______ ____
ROOT
ATOM      1  O   UNL     1      34.988 -16.853 -19.854  0.00  0.00    -0.252 OA
ATOM      2  N   UNL     1      34.645 -16.077 -22.005  0.00  0.00    -0.243 N 
ATOM      3  N   UNL     1      34.944 -18.423 -21.571  0.00  0.00    -0.234 N 
ATOM      4  N   UNL     1      33.342 -14.767 -26.426  0.00  0.00    -0.303 N 
ATOM      5  N   UNL     1      34.054 -17.030 -26.164  0.00  0.00    -0.229 NA
ATOM      6  C   UNL     1      34.420 -16.328 -23.396  0.00  0.00    +0.057 C 
ATOM      7  C   UNL     1      33.951 -15.376 -24.345  0.00  0.00    +0.046 C 
ATOM      8  C   UNL     1      34.683 -17.613 -23.881  0.00  0.00    +0.031 C 
ATOM      9  C   UNL     1      33.174 -13.664 -25.639  0.00  0.00    +0.005 C 
ATOM     10  C   UNL     1      35.256 -18.654 -22.979  0.00  0.00    +0.129 C 
ATOM     11  C   UNL     1      33.803 -15.807 -25.666  0.00  0.00    +0.133 C 
ATOM     12  C   UNL     1      33.537 -14.007 -24.355  0.00  0.00    +0.012 C 
ATOM     13  C   UNL     1      34.868 -17.109 -21.058  0.00  0.00    +0.315 C 
ATOM     14  C   UNL     1      34.498 -17.893 -25.234  0.00  0.00    +0.099 C 
ATOM     15  H   UNL     1      33.159 -14.807 -27.392  0.00  0.00    +0.153 HD
ENDROOT
BRANCH   3  18
ATOM     16  F   UNL     1      37.291 -19.460 -20.464  0.00  0.00    -0.200 F 
ATOM     17  F   UNL     1      32.570 -19.728 -20.874  0.00  0.00    -0.200 F 
ATOM     18  C   UNL     1      34.931 -19.568 -20.689  0.00  0.00    +0.117 C 
ATOM     19  C   UNL     1      36.127 -20.053 -20.159  0.00  0.00    +0.190 C 
ATOM     20  C   UNL     1      33.724 -20.190 -20.368  0.00  0.00    +0.190 C 
ATOM     21  C   UNL     1      33.713 -21.295 -19.517  0.00  0.00    +0.170 C 
ATOM     22  C   UNL     1      36.116 -21.158 -19.308  0.00  0.00    +0.170 C 
ATOM     23  C   UNL     1      34.908 -21.779 -18.988  0.00  0.00    +0.079 C 
BRANCH  21  24
ATOM     24  O   UNL     1      32.535 -21.902 -19.203  0.00  0.00    -0.469 OA
ATOM     25  C   UNL     1      32.419 -22.452 -17.891  0.00  0.00    +0.253 C 
ENDBRANCH  21  24
BRANCH  22  26
ATOM     26  O   UNL     1      37.282 -21.633 -18.790  0.00  0.00    -0.469 OA
ATOM     27  C   UNL     1      37.284 -21.982 -17.406  0.00  0.00    +0.253 C 
ENDBRANCH  22  26
ENDBRANCH   3  18
BRANCH   2  28
ATOM     28  C   UNL     1      34.583 -14.706 -21.512  0.00  0.00    +0.100 C 
ATOM     29  C   UNL     1      33.251 -14.415 -20.852  0.00  0.00    +0.024 C 
ENDBRANCH   2  28
BRANCH   9  30
ATOM     30  C   UNL     1      32.687 -12.389 -26.195  0.00  0.00    -0.035 C 
BRANCH  30  32
ATOM     31  O   UNL     1      35.622 -10.049 -24.317  0.00  0.00    -0.358 OA
ATOM     32  N   UNL     1      33.485 -11.240 -25.773  0.00  0.00    +0.394 N 
ATOM     33  C   UNL     1      33.420 -11.067 -24.315  0.00  0.00    -0.044 C 
ATOM     34  C   UNL     1      34.883 -11.391 -26.199  0.00  0.00    -0.044 C 
ATOM     35  C   UNL     1      34.269  -9.869 -23.898  0.00  0.00    +0.119 C 
ATOM     36  C   UNL     1      35.699 -10.187 -25.736  0.00  0.00    +0.119 C 
ATOM     37  H   UNL     1      33.096 -10.409 -26.219  0.00  0.00    -0.079 HD
ENDBRANCH  30  32
ENDBRANCH   9  30
TORSDOF 6
ENDMDL
MODEL 3
REMARK VINA RESULT:      -9.8      1.733      2.869
REMARK  Name = 86705695
REMARK  6 active torsions:
REMARK  status: ('A' for Active; 'I' for Inactive)
REMARK    1  A    between atoms: N_2  and  C_28
REMARK    2  A    between atoms: N_3  and  C_18
REMARK    3  A    between atoms: C_9  and  C_30
REMARK    4  A    between atoms: C_21  and  O_24
REMARK    5  A    between atoms: C_22  and  O_26
REMARK    6  A    between atoms: C_30  and  N_32
REMARK                            x       y       z     vdW  Elec       q    Type
REMARK                         _______ _______ _______ _____ _____    ______ ____
ROOT
ATOM      1  O   UNL     1      35.159 -19.137 -23.277  0.00  0.00    -0.252 OA
ATOM      2  N   UNL     1      34.329 -16.979 -23.219  0.00  0.00    -0.243 N 
ATOM      3  N   UNL     1      34.008 -18.476 -21.365  0.00  0.00    -0.234 N 
ATOM      4  N   UNL     1      33.071 -12.393 -22.636  0.00  0.00    -0.303 N 
ATOM      5  N   UNL     1      32.328 -13.911 -20.952  0.00  0.00    -0.229 NA
ATOM      6  C   UNL     1      33.691 -15.911 -22.512  0.00  0.00    +0.057 C 
ATOM      7  C   UNL     1      33.667 -14.546 -22.916  0.00  0.00    +0.046 C 
ATOM      8  C   UNL     1      33.026 -16.219 -21.320  0.00  0.00    +0.031 C 
ATOM      9  C   UNL     1      33.804 -12.441 -23.786  0.00  0.00    +0.005 C 
ATOM     10  C   UNL     1      32.927 -17.635 -20.859  0.00  0.00    +0.129 C 
ATOM     11  C   UNL     1      32.982 -13.646 -22.095  0.00  0.00    +0.133 C 
ATOM     12  C   UNL     1      34.187 -13.749 -23.983  0.00  0.00    +0.012 C 
ATOM     13  C   UNL     1      34.540 -18.263 -22.657  0.00  0.00    +0.315 C 
ATOM     14  C   UNL     1      32.373 -15.211 -20.612  0.00  0.00    +0.099 C 
ATOM     15  H   UNL     1      32.668 -11.579 -22.254  0.00  0.00    +0.153 HD
ENDROOT
BRANCH   3  18
ATOM     16  F   UNL     1      32.089 -20.343 -20.562  0.00  0.00    -0.200 F 
ATOM     17  F   UNL     1      36.645 -19.012 -20.603  0.00  0.00    -0.200 F 
ATOM     18  C   UNL     1      34.360 -19.651 -20.600  0.00  0.00    +0.117 C 
ATOM     19  C   UNL     1      33.368 -20.557 -20.219  0.00  0.00    +0.190 C 
ATOM     20  C   UNL     1      35.688 -19.879 -20.240  0.00  0.00    +0.190 C 
ATOM     21  C   UNL     1      36.025 -21.013 -19.500  0.00  0.00    +0.170 C 
ATOM     22  C   UNL     1      33.707 -21.690 -19.480  0.00  0.00    +0.170 C 
ATOM     23  C   UNL     1      35.035 -21.918 -19.120  0.00  0.00    +0.079 C 
BRANCH  21  24
ATOM     24  O   UNL     1      37.322 -21.236 -19.149  0.00  0.00    -0.469 OA
ATOM     25  C   UNL     1      37.566 -21.665 -17.810  0.00  0.00    +0.253 C 
ENDBRANCH  21  24
BRANCH  22  26
ATOM     26  O   UNL     1      32.741 -22.575 -19.107  0.00  0.00    -0.469 OA
ATOM     27  C   UNL     1      32.734 -22.993 -17.743  0.00  0.00    +0.253 C 
ENDBRANCH  22  26
ENDBRANCH   3  18
BRANCH   2  28
ATOM     28  C   UNL     1      34.848 -16.732 -24.559  0.00  0.00    +0.100 C 
ATOM     29  C   UNL     1      33.806 -17.024 -25.620  0.00  0.00    +0.024 C 
ENDBRANCH   2  28
BRANCH   9  30
ATOM     30  C   UNL     1      34.062 -11.230 -24.585  0.00  0.00    -0.035 C 
BRANCH  30  32
ATOM     31  O   UNL     1      33.478  -7.206 -23.544  0.00  0.00    -0.358 OA
ATOM     32  N   UNL     1      33.965  -9.998 -23.804  0.00  0.00    +0.394 N 
ATOM     33  C   UNL     1      34.934  -9.001 -24.280  0.00  0.00    -0.044 C 
ATOM     34  C   UNL     1      32.605  -9.447 -23.866  0.00  0.00    -0.044 C 
ATOM     35  C   UNL     1      34.807  -7.723 -23.457  0.00  0.00    +0.119 C 
ATOM     36  C   UNL     1      32.532  -8.157 -23.054  0.00  0.00    +0.119 C 
ATOM     37  H   UNL     1      34.181 -10.227 -22.834  0.00  0.00    -0.079 HD
ENDBRANCH  30  32
ENDBRANCH   9  30
TORSDOF 6
ENDMDL
MODEL 4
REMARK VINA RESULT:      -9.8      4.059      6.803
REMARK  Name = 86705695
REMARK  6 active torsions:
REMARK  status: ('A' for Active; 'I' for Inactive)
REMARK    1  A    between atoms: N_2  and  C_28
REMARK    2  A    between atoms: N_3  and  C_18
REMARK    3  A    between atoms: C_9  and  C_30
REMARK    4  A    between atoms: C_21  and  O_24
REMARK    5  A    between atoms: C_22  and  O_26
REMARK    6  A    between atoms: C_30  and  N_32
REMARK                            x       y       z     vdW  Elec       q    Type
REMARK                         _______ _______ _______ _____ _____    ______ ____
ROOT
ATOM      1  O   UNL     1      34.214 -12.992 -24.889  0.00  0.00    -0.252 OA
ATOM      2  N   UNL     1      33.172 -11.435 -23.533  0.00  0.00    -0.243 N 
ATOM      3  N   UNL     1      33.295 -13.748 -22.890  0.00  0.00    -0.234 N 
ATOM      4  N   UNL     1      31.522  -8.299 -20.307  0.00  0.00    -0.303 N 
ATOM      5  N   UNL     1      31.207 -10.607 -19.790  0.00  0.00    -0.229 NA
ATOM      6  C   UNL     1      32.534 -11.090 -22.300  0.00  0.00    +0.057 C 
ATOM      7  C   UNL     1      32.302  -9.767 -21.827  0.00  0.00    +0.046 C 
ATOM      8  C   UNL     1      32.090 -12.131 -21.477  0.00  0.00    +0.031 C 
ATOM      9  C   UNL     1      32.078  -7.556 -21.308  0.00  0.00    +0.005 C 
ATOM     10  C   UNL     1      32.215 -13.548 -21.927  0.00  0.00    +0.129 C 
ATOM     11  C   UNL     1      31.652  -9.630 -20.598  0.00  0.00    +0.133 C 
ATOM     12  C   UNL     1      32.568  -8.429 -22.255  0.00  0.00    +0.012 C 
ATOM     13  C   UNL     1      33.603 -12.750 -23.841  0.00  0.00    +0.315 C 
ATOM     14  C   UNL     1      31.444 -11.838 -20.278  0.00  0.00    +0.099 C 
ATOM     15  H   UNL     1      31.094  -7.933 -19.500  0.00  0.00    +0.153 HD
ENDROOT
BRANCH   3  18
ATOM     16  F   UNL     1      34.583 -14.938 -20.713  0.00  0.00    -0.200 F 
ATOM     17  F   UNL     1      33.207 -15.253 -25.245  0.00  0.00    -0.200 F 
ATOM     18  C   UNL     1      33.882 -15.066 -22.977  0.00  0.00    +0.117 C 
ATOM     19  C   UNL     1      34.516 -15.622 -21.866  0.00  0.00    +0.190 C 
ATOM     20  C   UNL     1      33.816 -15.783 -24.173  0.00  0.00    +0.190 C 
ATOM     21  C   UNL     1      34.384 -17.054 -24.257  0.00  0.00    +0.170 C 
ATOM     22  C   UNL     1      35.083 -16.893 -21.950  0.00  0.00    +0.170 C 
ATOM     23  C   UNL     1      35.017 -17.609 -23.146  0.00  0.00    +0.079 C 
BRANCH  21  24
ATOM     24  O   UNL     1      34.319 -17.753 -25.423  0.00  0.00    -0.469 OA
ATOM     25  C   UNL     1      34.216 -19.173 -25.322  0.00  0.00    +0.253 C 
ENDBRANCH  21  24
BRANCH  22  26
ATOM     26  O   UNL     1      35.703 -17.437 -20.867  0.00  0.00    -0.469 OA
ATOM     27  C   UNL     1      36.110 -18.802 -20.967  0.00  0.00    +0.253 C 
ENDBRANCH  22  26
ENDBRANCH   3  18
BRANCH   2  28
ATOM     28  C   UNL     1      33.456 -10.384 -24.503  0.00  0.00    +0.100 C 
ATOM     29  C   UNL     1      34.897  -9.925 -24.417  0.00  0.00    +0.024 C 
ENDBRANCH   2  28
BRANCH   9  30
ATOM     30  C   UNL     1      32.081  -6.083 -21.262  0.00  0.00    -0.035 C 
BRANCH  30  32
ATOM     31  O   UNL     1      30.486  -4.190 -24.652  0.00  0.00    -0.358 OA
ATOM     32  N   UNL     1      31.965  -5.470 -22.584  0.00  0.00    +0.394 N 
ATOM     33  C   UNL     1      31.013  -6.213 -23.422  0.00  0.00    -0.044 C 
ATOM     34  C   UNL     1      31.548  -4.066 -22.473  0.00  0.00    -0.044 C 
ATOM     35  C   UNL     1      30.901  -5.549 -24.791  0.00  0.00    +0.119 C 
ATOM     36  C   UNL     1      31.422  -3.452 -23.865  0.00  0.00    +0.119 C 
ATOM     37  H   UNL     1      32.884  -5.504 -23.025  0.00  0.00    -0.079 HD
ENDBRANCH  30  32
ENDBRANCH   9  30
TORSDOF 6
ENDMDL
MODEL 5
REMARK VINA RESULT:      -9.8      1.731      3.572
REMARK  Name = 86705695
REMARK  6 active torsions:
REMARK  status: ('A' for Active; 'I' for Inactive)
REMARK    1  A    between atoms: N_2  and  C_28
REMARK    2  A    between atoms: N_3  and  C_18
REMARK    3  A    between atoms: C_9  and  C_30
REMARK    4  A    between atoms: C_21  and  O_24
REMARK    5  A    between atoms: C_22  and  O_26
REMARK    6  A    between atoms: C_30  and  N_32
REMARK                            x       y       z     vdW  Elec       q    Type
REMARK                         _______ _______ _______ _____ _____    ______ ____
ROOT
ATOM      1  O   UNL     1      35.168 -19.118 -23.263  0.00  0.00    -0.252 OA
ATOM      2  N   UNL     1      34.331 -16.963 -23.212  0.00  0.00    -0.243 N 
ATOM      3  N   UNL     1      34.006 -18.457 -21.358  0.00  0.00    -0.234 N 
ATOM      4  N   UNL     1      33.057 -12.379 -22.644  0.00  0.00    -0.303 N 
ATOM      5  N   UNL     1      32.310 -13.897 -20.961  0.00  0.00    -0.229 NA
ATOM      6  C   UNL     1      33.687 -15.895 -22.511  0.00  0.00    +0.057 C 
ATOM      7  C   UNL     1      33.661 -14.531 -22.917  0.00  0.00    +0.046 C 
ATOM      8  C   UNL     1      33.017 -16.203 -21.321  0.00  0.00    +0.031 C 
ATOM      9  C   UNL     1      33.796 -12.427 -23.790  0.00  0.00    +0.005 C 
ATOM     10  C   UNL     1      32.919 -17.618 -20.859  0.00  0.00    +0.129 C 
ATOM     11  C   UNL     1      32.970 -13.632 -22.102  0.00  0.00    +0.133 C 
ATOM     12  C   UNL     1      34.184 -13.735 -23.983  0.00  0.00    +0.012 C 
ATOM     13  C   UNL     1      34.544 -18.245 -22.647  0.00  0.00    +0.315 C 
ATOM     14  C   UNL     1      32.358 -15.196 -20.619  0.00  0.00    +0.099 C 
ATOM     15  H   UNL     1      32.650 -11.566 -22.266  0.00  0.00    +0.153 HD
ENDROOT
BRANCH   3  18
ATOM     16  F   UNL     1      36.638 -18.973 -20.572  0.00  0.00    -0.200 F 
ATOM     17  F   UNL     1      32.092 -20.339 -20.571  0.00  0.00    -0.200 F 
ATOM     18  C   UNL     1      34.357 -19.630 -20.589  0.00  0.00    +0.117 C 
ATOM     19  C   UNL     1      35.684 -19.848 -20.218  0.00  0.00    +0.190 C 
ATOM     20  C   UNL     1      33.370 -20.544 -20.218  0.00  0.00    +0.190 C 
ATOM     21  C   UNL     1      33.710 -21.675 -19.477  0.00  0.00    +0.170 C 
ATOM     22  C   UNL     1      36.024 -20.980 -19.477  0.00  0.00    +0.170 C 
ATOM     23  C   UNL     1      35.036 -21.894 -19.107  0.00  0.00    +0.079 C 
BRANCH  21  24
ATOM     24  O   UNL     1      32.748 -22.567 -19.115  0.00  0.00    -0.469 OA
ATOM     25  C   UNL     1      32.730 -22.983 -17.749  0.00  0.00    +0.253 C 
ENDBRANCH  21  24
BRANCH  22  26
ATOM     26  O   UNL     1      37.318 -21.195 -19.115  0.00  0.00    -0.469 OA
ATOM     27  C   UNL     1      37.555 -21.624 -17.774  0.00  0.00    +0.253 C 
ENDBRANCH  22  26
ENDBRANCH   3  18
BRANCH   2  28
ATOM     28  C   UNL     1      34.856 -16.717 -24.551  0.00  0.00    +0.100 C 
ATOM     29  C   UNL     1      33.815 -16.997 -25.615  0.00  0.00    +0.024 C 
ENDBRANCH   2  28
BRANCH   9  30
ATOM     30  C   UNL     1      34.055 -11.217 -24.591  0.00  0.00    -0.035 C 
BRANCH  30  32
ATOM     31  O   UNL     1      33.490  -7.190 -23.552  0.00  0.00    -0.358 OA
ATOM     32  N   UNL     1      33.961  -9.985 -23.810  0.00  0.00    +0.394 N 
ATOM     33  C   UNL     1      34.939  -8.994 -24.279  0.00  0.00    -0.044 C 
ATOM     34  C   UNL     1      32.604  -9.425 -23.880  0.00  0.00    -0.044 C 
ATOM     35  C   UNL     1      34.814  -7.714 -23.457  0.00  0.00    +0.119 C 
ATOM     36  C   UNL     1      32.534  -8.134 -23.069  0.00  0.00    +0.119 C 
ATOM     37  H   UNL     1      34.169 -10.215 -22.838  0.00  0.00    -0.079 HD
ENDBRANCH  30  32
ENDBRANCH   9  30
TORSDOF 6
ENDMDL
MODEL 6
REMARK VINA RESULT:      -9.8      4.058      6.658
REMARK  Name = 86705695
REMARK  6 active torsions:
REMARK  status: ('A' for Active; 'I' for Inactive)
REMARK    1  A    between atoms: N_2  and  C_28
REMARK    2  A    between atoms: N_3  and  C_18
REMARK    3  A    between atoms: C_9  and  C_30
REMARK    4  A    between atoms: C_21  and  O_24
REMARK    5  A    between atoms: C_22  and  O_26
REMARK    6  A    between atoms: C_30  and  N_32
REMARK                            x       y       z     vdW  Elec       q    Type
REMARK                         _______ _______ _______ _____ _____    ______ ____
ROOT
ATOM      1  O   UNL     1      34.226 -12.991 -24.878  0.00  0.00    -0.252 OA
ATOM      2  N   UNL     1      33.176 -11.437 -23.524  0.00  0.00    -0.243 N 
ATOM      3  N   UNL     1      33.301 -13.751 -22.883  0.00  0.00    -0.234 N 
ATOM      4  N   UNL     1      31.508  -8.309 -20.301  0.00  0.00    -0.303 N 
ATOM      5  N   UNL     1      31.195 -10.618 -19.787  0.00  0.00    -0.229 NA
ATOM      6  C   UNL     1      32.533 -11.095 -22.293  0.00  0.00    +0.057 C 
ATOM      7  C   UNL     1      32.296  -9.773 -21.820  0.00  0.00    +0.046 C 
ATOM      8  C   UNL     1      32.088 -12.138 -21.473  0.00  0.00    +0.031 C 
ATOM      9  C   UNL     1      32.066  -7.563 -21.299  0.00  0.00    +0.005 C 
ATOM     10  C   UNL     1      32.217 -13.554 -21.924  0.00  0.00    +0.129 C 
ATOM     11  C   UNL     1      31.642  -9.639 -20.593  0.00  0.00    +0.133 C 
ATOM     12  C   UNL     1      32.561  -8.434 -22.245  0.00  0.00    +0.012 C 
ATOM     13  C   UNL     1      33.611 -12.751 -23.832  0.00  0.00    +0.315 C 
ATOM     14  C   UNL     1      31.436 -11.847 -20.276  0.00  0.00    +0.099 C 
ATOM     15  H   UNL     1      31.076  -7.944 -19.495  0.00  0.00    +0.153 HD
ENDROOT
BRANCH   3  18
ATOM     16  F   UNL     1      33.214 -15.255 -25.237  0.00  0.00    -0.200 F 
ATOM     17  F   UNL     1      34.593 -14.941 -20.706  0.00  0.00    -0.200 F 
ATOM     18  C   UNL     1      33.890 -15.068 -22.970  0.00  0.00    +0.117 C 
ATOM     19  C   UNL     1      33.823 -15.784 -24.166  0.00  0.00    +0.190 C 
ATOM     20  C   UNL     1      34.525 -15.625 -21.859  0.00  0.00    +0.190 C 
ATOM     21  C   UNL     1      35.093 -16.896 -21.944  0.00  0.00    +0.170 C 
ATOM     22  C   UNL     1      34.391 -17.055 -24.250  0.00  0.00    +0.170 C 
ATOM     23  C   UNL     1      35.026 -17.611 -23.139  0.00  0.00    +0.079 C 
BRANCH  21  24
ATOM     24  O   UNL     1      35.712 -17.439 -20.860  0.00  0.00    -0.469 OA
ATOM     25  C   UNL     1      36.109 -18.807 -20.958  0.00  0.00    +0.253 C 
ENDBRANCH  21  24
BRANCH  22  26
ATOM     26  O   UNL     1      34.327 -17.755 -25.416  0.00  0.00    -0.469 OA
ATOM     27  C   UNL     1      34.218 -19.175 -25.316  0.00  0.00    +0.253 C 
ENDBRANCH  22  26
ENDBRANCH   3  18
BRANCH   2  28
ATOM     28  C   UNL     1      33.462 -10.385 -24.492  0.00  0.00    +0.100 C 
ATOM     29  C   UNL     1      34.903  -9.928 -24.405  0.00  0.00    +0.024 C 
ENDBRANCH   2  28
BRANCH   9  30
ATOM     30  C   UNL     1      32.066  -6.090 -21.251  0.00  0.00    -0.035 C 
BRANCH  30  32
ATOM     31  O   UNL     1      30.501  -4.195 -24.654  0.00  0.00    -0.358 OA
ATOM     32  N   UNL     1      31.962  -5.476 -22.574  0.00  0.00    +0.394 N 
ATOM     33  C   UNL     1      31.019  -6.219 -23.421  0.00  0.00    -0.044 C 
ATOM     34  C   UNL     1      31.542  -4.072 -22.466  0.00  0.00    -0.044 C 
ATOM     35  C   UNL     1      30.919  -5.554 -24.791  0.00  0.00    +0.119 C 
ATOM     36  C   UNL     1      31.428  -3.457 -23.858  0.00  0.00    +0.119 C 
ATOM     37  H   UNL     1      32.885  -5.508 -23.006  0.00  0.00    -0.079 HD
ENDBRANCH  30  32
ENDBRANCH   9  30
TORSDOF 6
ENDMDL
MODEL 7
REMARK VINA RESULT:      -9.7      0.717      2.420
REMARK  Name = 86705695
REMARK  6 active torsions:
REMARK  status: ('A' for Active; 'I' for Inactive)
REMARK    1  A    between atoms: N_2  and  C_28
REMARK    2  A    between atoms: N_3  and  C_18
REMARK    3  A    between atoms: C_9  and  C_30
REMARK    4  A    between atoms: C_21  and  O_24
REMARK    5  A    between atoms: C_22  and  O_26
REMARK    6  A    between atoms: C_30  and  N_32
REMARK                            x       y       z     vdW  Elec       q    Type
REMARK                         _______ _______ _______ _____ _____    ______ ____
ROOT
ATOM      1  O   UNL     1      35.355 -17.126 -19.701  0.00  0.00    -0.252 OA
ATOM      2  N   UNL     1      34.940 -16.209 -21.784  0.00  0.00    -0.243 N 
ATOM      3  N   UNL     1      34.962 -18.592 -21.465  0.00  0.00    -0.234 N 
ATOM      4  N   UNL     1      33.459 -14.530 -26.020  0.00  0.00    -0.303 N 
ATOM      5  N   UNL     1      33.886 -16.875 -25.907  0.00  0.00    -0.229 NA
ATOM      6  C   UNL     1      34.569 -16.361 -23.157  0.00  0.00    +0.057 C 
ATOM      7  C   UNL     1      34.153 -15.312 -24.025  0.00  0.00    +0.046 C 
ATOM      8  C   UNL     1      34.619 -17.644 -23.712  0.00  0.00    +0.031 C 
ATOM      9  C   UNL     1      33.504 -13.455 -25.181  0.00  0.00    +0.005 C 
ATOM     10  C   UNL     1      35.123 -18.793 -22.903  0.00  0.00    +0.129 C 
ATOM     11  C   UNL     1      33.840 -15.656 -25.343  0.00  0.00    +0.133 C 
ATOM     12  C   UNL     1      33.923 -13.903 -23.948  0.00  0.00    +0.012 C 
ATOM     13  C   UNL     1      35.103 -17.305 -20.899  0.00  0.00    +0.315 C 
ATOM     14  C   UNL     1      34.288 -17.832 -25.052  0.00  0.00    +0.099 C 
ATOM     15  H   UNL     1      33.193 -14.499 -26.967  0.00  0.00    +0.153 HD
ENDROOT
BRANCH   3  18
ATOM     16  F   UNL     1      37.232 -19.815 -20.387  0.00  0.00    -0.200 F 
ATOM     17  F   UNL     1      32.506 -19.773 -20.832  0.00  0.00    -0.200 F 
ATOM     18  C   UNL     1      34.871 -19.767 -20.628  0.00  0.00    +0.117 C 
ATOM     19  C   UNL     1      36.031 -20.346 -20.112  0.00  0.00    +0.190 C 
ATOM     20  C   UNL     1      33.626 -20.325 -20.338  0.00  0.00    +0.190 C 
ATOM     21  C   UNL     1      33.540 -21.459 -19.531  0.00  0.00    +0.170 C 
ATOM     22  C   UNL     1      35.945 -21.480 -19.305  0.00  0.00    +0.170 C 
ATOM     23  C   UNL     1      34.699 -22.037 -19.015  0.00  0.00    +0.079 C 
BRANCH  21  24
ATOM     24  O   UNL     1      32.325 -22.003 -19.248  0.00  0.00    -0.469 OA
ATOM     25  C   UNL     1      32.091 -22.398 -17.896  0.00  0.00    +0.253 C 
ENDBRANCH  21  24
BRANCH  22  26
ATOM     26  O   UNL     1      37.076 -22.046 -18.800  0.00  0.00    -0.469 OA
ATOM     27  C   UNL     1      37.219 -22.055 -17.380  0.00  0.00    +0.253 C 
ENDBRANCH  22  26
ENDBRANCH   3  18
BRANCH   2  28
ATOM     28  C   UNL     1      35.099 -14.867 -21.236  0.00  0.00    +0.100 C 
ATOM     29  C   UNL     1      33.828 -14.387 -20.566  0.00  0.00    +0.024 C 
ENDBRANCH   2  28
BRANCH   9  30
ATOM     30  C   UNL     1      33.144 -12.102 -25.644  0.00  0.00    -0.035 C 
BRANCH  30  32
ATOM     31  O   UNL     1      34.049  -8.316 -24.073  0.00  0.00    -0.358 OA
ATOM     32  N   UNL     1      33.624 -11.048 -24.752  0.00  0.00    +0.394 N 
ATOM     33  C   UNL     1      34.668 -10.246 -25.407  0.00  0.00    -0.044 C 
ATOM     34  C   UNL     1      32.517 -10.180 -24.327  0.00  0.00    -0.044 C 
ATOM     35  C   UNL     1      35.144  -9.147 -24.462  0.00  0.00    +0.119 C 
ATOM     36  C   UNL     1      33.044  -9.081 -23.409  0.00  0.00    +0.119 C 
ATOM     37  H   UNL     1      34.024 -11.495 -23.927  0.00  0.00    -0.079 HD
ENDBRANCH  30  32
ENDBRANCH   9  30
TORSDOF 6
ENDMDL
MODEL 8
REMARK VINA RESULT:      -9.5      3.145      9.624
REMARK  Name = 86705695
REMARK  6 active torsions:
REMARK  status: ('A' for Active; 'I' for Inactive)
REMARK    1  A    between atoms: N_2  and  C_28
REMARK    2  A    between atoms: N_3  and  C_18
REMARK    3  A    between atoms: C_9  and  C_30
REMARK    4  A    between atoms: C_21  and  O_24
REMARK    5  A    between atoms: C_22  and  O_26
REMARK    6  A    between atoms: C_30  and  N_32
REMARK                            x       y       z     vdW  Elec       q    Type
REMARK                         _______ _______ _______ _____ _____    ______ ____
ROOT
ATOM      1  O   UNL     1      32.536 -12.141 -20.792  0.00  0.00    -0.252 OA
ATOM      2  N   UNL     1      33.234 -14.174 -21.646  0.00  0.00    -0.243 N 
ATOM      3  N   UNL     1      32.960 -12.261 -23.077  0.00  0.00    -0.234 N 
ATOM      4  N   UNL     1      35.269 -18.091 -23.510  0.00  0.00    -0.303 N 
ATOM      5  N   UNL     1      34.617 -16.401 -25.064  0.00  0.00    -0.229 NA
ATOM      6  C   UNL     1      33.721 -14.963 -22.736  0.00  0.00    +0.057 C 
ATOM      7  C   UNL     1      34.315 -16.252 -22.626  0.00  0.00    +0.046 C 
ATOM      8  C   UNL     1      33.606 -14.439 -24.028  0.00  0.00    +0.031 C 
ATOM      9  C   UNL     1      35.243 -18.284 -22.159  0.00  0.00    +0.005 C 
ATOM     10  C   UNL     1      32.922 -13.131 -24.249  0.00  0.00    +0.129 C 
ATOM     11  C   UNL     1      34.721 -16.874 -23.810  0.00  0.00    +0.133 C 
ATOM     12  C   UNL     1      34.666 -17.170 -21.588  0.00  0.00    +0.012 C 
ATOM     13  C   UNL     1      32.885 -12.806 -21.775  0.00  0.00    +0.315 C 
ATOM     14  C   UNL     1      34.047 -15.185 -25.119  0.00  0.00    +0.099 C 
ATOM     15  H   UNL     1      35.627 -18.730 -24.167  0.00  0.00    +0.153 HD
ENDROOT
BRANCH   3  18
ATOM     16  F   UNL     1      30.605 -10.851 -22.551  0.00  0.00    -0.200 F 
ATOM     17  F   UNL     1      35.109 -10.756 -24.048  0.00  0.00    -0.200 F 
ATOM     18  C   UNL     1      32.860 -10.836 -23.295  0.00  0.00    +0.117 C 
ATOM     19  C   UNL     1      31.663 -10.172 -23.019  0.00  0.00    +0.190 C 
ATOM     20  C   UNL     1      33.956 -10.123 -23.781  0.00  0.00    +0.190 C 
ATOM     21  C   UNL     1      33.857  -8.748 -23.992  0.00  0.00    +0.170 C 
ATOM     22  C   UNL     1      31.565  -8.796 -23.229  0.00  0.00    +0.170 C 
ATOM     23  C   UNL     1      32.662  -8.085 -23.716  0.00  0.00    +0.079 C 
BRANCH  21  24
ATOM     24  O   UNL     1      34.927  -8.053 -24.466  0.00  0.00    -0.469 OA
ATOM     25  C   UNL     1      34.689  -6.714 -24.900  0.00  0.00    +0.253 C 
ENDBRANCH  21  24
BRANCH  22  26
ATOM     26  O   UNL     1      30.399  -8.147 -22.961  0.00  0.00    -0.469 OA
ATOM     27  C   UNL     1      30.434  -6.720 -22.964  0.00  0.00    +0.253 C 
ENDBRANCH  22  26
ENDBRANCH   3  18
BRANCH   2  28
ATOM     28  C   UNL     1      33.148 -14.773 -20.319  0.00  0.00    +0.100 C 
ATOM     29  C   UNL     1      31.886 -15.596 -20.163  0.00  0.00    +0.024 C 
ENDBRANCH   2  28
BRANCH   9  30
ATOM     30  C   UNL     1      35.770 -19.517 -21.547  0.00  0.00    -0.035 C 
BRANCH  30  32
ATOM     31  O   UNL     1      33.132 -21.954 -19.375  0.00  0.00    -0.358 OA
ATOM     32  N   UNL     1      34.919 -20.031 -20.476  0.00  0.00    +0.394 N 
ATOM     33  C   UNL     1      33.521 -20.124 -20.919  0.00  0.00    -0.044 C 
ATOM     34  C   UNL     1      35.390 -21.347 -20.021  0.00  0.00    -0.044 C 
ATOM     35  C   UNL     1      32.655 -20.673 -19.789  0.00  0.00    +0.119 C 
ATOM     36  C   UNL     1      34.480 -21.868 -18.913  0.00  0.00    +0.119 C 
ATOM     37  H   UNL     1      34.972 -19.378 -19.695  0.00  0.00    -0.079 HD
ENDBRANCH  30  32
ENDBRANCH   9  30
TORSDOF 6
ENDMDL
MODEL 9
REMARK VINA RESULT:      -9.5      3.157      9.831
REMARK  Name = 86705695
REMARK  6 active torsions:
REMARK  status: ('A' for Active; 'I' for Inactive)
REMARK    1  A    between atoms: N_2  and  C_28
REMARK    2  A    between atoms: N_3  and  C_18
REMARK    3  A    between atoms: C_9  and  C_30
REMARK    4  A    between atoms: C_21  and  O_24
REMARK    5  A    between atoms: C_22  and  O_26
REMARK    6  A    between atoms: C_30  and  N_32
REMARK                            x       y       z     vdW  Elec       q    Type
REMARK                         _______ _______ _______ _____ _____    ______ ____
ROOT
ATOM      1  O   UNL     1      32.552 -12.136 -20.808  0.00  0.00    -0.252 OA
ATOM      2  N   UNL     1      33.214 -14.167 -21.695  0.00  0.00    -0.243 N 
ATOM      3  N   UNL     1      32.930 -12.238 -23.102  0.00  0.00    -0.234 N 
ATOM      4  N   UNL     1      35.174 -18.084 -23.636  0.00  0.00    -0.303 N 
ATOM      5  N   UNL     1      34.507 -16.374 -25.160  0.00  0.00    -0.229 NA
ATOM      6  C   UNL     1      33.671 -14.950 -22.801  0.00  0.00    +0.057 C 
ATOM      7  C   UNL     1      34.255 -16.245 -22.716  0.00  0.00    +0.046 C 
ATOM      8  C   UNL     1      33.536 -14.412 -24.086  0.00  0.00    +0.031 C 
ATOM      9  C   UNL     1      35.174 -18.290 -22.286  0.00  0.00    +0.005 C 
ATOM     10  C   UNL     1      32.859 -13.097 -24.281  0.00  0.00    +0.129 C 
ATOM     11  C   UNL     1      34.632 -16.859 -23.913  0.00  0.00    +0.133 C 
ATOM     12  C   UNL     1      34.619 -17.177 -21.694  0.00  0.00    +0.012 C 
ATOM     13  C   UNL     1      32.875 -12.794 -21.804  0.00  0.00    +0.315 C 
ATOM     14  C   UNL     1      33.948 -15.152 -25.193  0.00  0.00    +0.099 C 
ATOM     15  H   UNL     1      35.513 -18.721 -24.306  0.00  0.00    +0.153 HD
ENDROOT
BRANCH   3  18
ATOM     16  F   UNL     1      35.086 -10.741 -24.061  0.00  0.00    -0.200 F 
ATOM     17  F   UNL     1      30.585 -10.814 -22.555  0.00  0.00    -0.200 F 
ATOM     18  C   UNL     1      32.838 -10.810 -23.304  0.00  0.00    +0.117 C 
ATOM     19  C   UNL     1      33.940 -10.102 -23.784  0.00  0.00    +0.190 C 
ATOM     20  C   UNL     1      31.649 -10.138 -23.017  0.00  0.00    +0.190 C 
ATOM     21  C   UNL     1      31.562  -8.760 -23.211  0.00  0.00    +0.170 C 
ATOM     22  C   UNL     1      33.853  -8.723 -23.978  0.00  0.00    +0.170 C 
ATOM     23  C   UNL     1      32.663  -8.052 -23.691  0.00  0.00    +0.079 C 
BRANCH  21  24
ATOM     24  O   UNL     1      30.402  -8.104 -22.932  0.00  0.00    -0.469 OA
ATOM     25  C   UNL     1      30.450  -6.677 -22.924  0.00  0.00    +0.253 C 
ENDBRANCH  21  24
BRANCH  22  26
ATOM     26  O   UNL     1      34.927  -8.030 -24.446  0.00  0.00    -0.469 OA
ATOM     27  C   UNL     1      34.695  -6.694 -24.890  0.00  0.00    +0.253 C 
ENDBRANCH  22  26
ENDBRANCH   3  18
BRANCH   2  28
ATOM     28  C   UNL     1      33.148 -14.778 -20.372  0.00  0.00    +0.100 C 
ATOM     29  C   UNL     1      31.884 -15.594 -20.200  0.00  0.00    +0.024 C 
ENDBRANCH   2  28
BRANCH   9  30
ATOM     30  C   UNL     1      35.701 -19.533 -21.697  0.00  0.00    -0.035 C 
BRANCH  30  32
ATOM     31  O   UNL     1      33.124 -21.925 -19.404  0.00  0.00    -0.358 OA
ATOM     32  N   UNL     1      34.887 -20.031 -20.589  0.00  0.00    +0.394 N 
ATOM     33  C   UNL     1      33.472 -20.111 -20.977  0.00  0.00    -0.044 C 
ATOM     34  C   UNL     1      35.362 -21.347 -20.142  0.00  0.00    -0.044 C 
ATOM     35  C   UNL     1      32.645 -20.642 -19.810  0.00  0.00    +0.119 C 
ATOM     36  C   UNL     1      34.490 -21.850 -18.996  0.00  0.00    +0.119 C 
ATOM     37  H   UNL     1      34.977 -19.371 -19.816  0.00  0.00    -0.079 HD
ENDBRANCH  30  32
ENDBRANCH   9  30
TORSDOF 6
ENDMDL
