MODEL 1
REMARK VINA RESULT:      -8.7      0.000      0.000
REMARK  Name = 6018
REMARK  4 active torsions:
REMARK  status: ('A' for Active; 'I' for Inactive)
REMARK    1  A    between atoms: C_4  and  C_21
REMARK    2  A    between atoms: C_14  and  O_17
REMARK    3  A    between atoms: C_15  and  O_19
REMARK    4  A    between atoms: C_21  and  C_22
REMARK                            x       y       z     vdW  Elec       q    Type
REMARK                         _______ _______ _______ _____ _____    ______ ____
ROOT
ATOM      1  O   UNL     1      33.941 -15.093 -19.928  0.00  0.00    -0.296 OA
ATOM      2  N   UNL     1      33.328 -14.646 -23.917  0.00  0.00    +0.392 N 
ATOM      3  C   UNL     1      32.328 -14.123 -22.951  0.00  0.00    -0.027 C 
ATOM      4  C   UNL     1      34.792 -15.594 -22.119  0.00  0.00    +0.037 C 
ATOM      5  C   UNL     1      34.691 -14.703 -23.362  0.00  0.00    -0.069 C 
ATOM      6  C   UNL     1      32.325 -15.017 -21.698  0.00  0.00    +0.048 C 
ATOM      7  C   UNL     1      33.267 -13.875 -25.165  0.00  0.00    -0.072 C 
ATOM      8  C   UNL     1      32.433 -12.615 -22.721  0.00  0.00    -0.042 C 
ATOM      9  C   UNL     1      33.716 -15.190 -21.133  0.00  0.00    +0.146 C 
ATOM     10  C   UNL     1      33.588 -12.391 -24.981  0.00  0.00    +0.003 C 
ATOM     11  C   UNL     1      32.991 -11.796 -23.729  0.00  0.00    -0.027 C 
ATOM     12  C   UNL     1      31.903 -11.995 -21.579  0.00  0.00    +0.033 C 
ATOM     13  C   UNL     1      33.050 -10.404 -23.553  0.00  0.00    +0.035 C 
ATOM     14  C   UNL     1      31.962 -10.609 -21.418  0.00  0.00    +0.172 C 
ATOM     15  C   UNL     1      32.539  -9.814 -22.401  0.00  0.00    +0.172 C 
ATOM     16  H   UNL     1      33.083 -15.615 -24.121  0.00  0.00    -0.079 HD
ENDROOT
BRANCH  14  17
ATOM     17  O   UNL     1      31.446 -10.046 -20.289  0.00  0.00    -0.468 OA
ATOM     18  C   UNL     1      31.433 -10.850 -19.111  0.00  0.00    +0.253 C 
ENDBRANCH  14  17
BRANCH  15  19
ATOM     19  O   UNL     1      32.598  -8.462 -22.256  0.00  0.00    -0.468 OA
ATOM     20  C   UNL     1      33.757  -7.804 -22.767  0.00  0.00    +0.253 C 
ENDBRANCH  15  19
BRANCH   4  21
ATOM     21  C   UNL     1      34.673 -17.081 -22.446  0.00  0.00    +0.005 C 
BRANCH  21  22
ATOM     22  C   UNL     1      34.928 -17.995 -21.236  0.00  0.00    +0.000 C 
ATOM     23  C   UNL     1      33.852 -19.071 -21.081  0.00  0.00    +0.000 C 
ATOM     24  C   UNL     1      36.302 -18.654 -21.367  0.00  0.00    +0.000 C 
ENDBRANCH  21  22
ENDBRANCH   4  21
TORSDOF 4
ENDMDL
MODEL 2
REMARK VINA RESULT:      -7.9      2.107      7.303
REMARK  Name = 6018
REMARK  4 active torsions:
REMARK  status: ('A' for Active; 'I' for Inactive)
REMARK    1  A    between atoms: C_4  and  C_21
REMARK    2  A    between atoms: C_14  and  O_17
REMARK    3  A    between atoms: C_15  and  O_19
REMARK    4  A    between atoms: C_21  and  C_22
REMARK                            x       y       z     vdW  Elec       q    Type
REMARK                         _______ _______ _______ _____ _____    ______ ____
ROOT
ATOM      1  O   UNL     1      34.995 -10.109 -24.587  0.00  0.00    -0.296 OA
ATOM      2  N   UNL     1      31.614 -10.828 -22.455  0.00  0.00    +0.392 N 
ATOM      3  C   UNL     1      32.144 -11.867 -23.376  0.00  0.00    -0.027 C 
ATOM      4  C   UNL     1      33.403  -9.177 -23.046  0.00  0.00    +0.037 C 
ATOM      5  C   UNL     1      32.660  -9.929 -21.937  0.00  0.00    -0.069 C 
ATOM      6  C   UNL     1      32.848 -11.178 -24.559  0.00  0.00    +0.048 C 
ATOM      7  C   UNL     1      30.842 -11.462 -21.380  0.00  0.00    -0.072 C 
ATOM      8  C   UNL     1      32.920 -12.974 -22.663  0.00  0.00    -0.042 C 
ATOM      9  C   UNL     1      33.873 -10.171 -24.089  0.00  0.00    +0.146 C 
ATOM     10  C   UNL     1      31.668 -12.415 -20.516  0.00  0.00    +0.003 C 
ATOM     11  C   UNL     1      32.639 -13.258 -21.308  0.00  0.00    -0.027 C 
ATOM     12  C   UNL     1      33.839 -13.794 -23.336  0.00  0.00    +0.033 C 
ATOM     13  C   UNL     1      33.308 -14.304 -20.653  0.00  0.00    +0.035 C 
ATOM     14  C   UNL     1      34.495 -14.836 -22.676  0.00  0.00    +0.172 C 
ATOM     15  C   UNL     1      34.233 -15.089 -21.335  0.00  0.00    +0.172 C 
ATOM     16  H   UNL     1      30.990 -10.228 -22.994  0.00  0.00    -0.079 HD
ENDROOT
BRANCH  14  17
ATOM     17  O   UNL     1      35.389 -15.603 -23.362  0.00  0.00    -0.468 OA
ATOM     18  C   UNL     1      34.872 -16.418 -24.412  0.00  0.00    +0.253 C 
ENDBRANCH  14  17
BRANCH  15  19
ATOM     19  O   UNL     1      34.864 -16.104 -20.682  0.00  0.00    -0.468 OA
ATOM     20  C   UNL     1      34.408 -17.429 -20.950  0.00  0.00    +0.253 C 
ENDBRANCH  15  19
BRANCH   4  21
ATOM     21  C   UNL     1      32.550  -8.094 -23.702  0.00  0.00    +0.005 C 
BRANCH  21  22
ATOM     22  C   UNL     1      33.230  -6.716 -23.735  0.00  0.00    +0.000 C 
ATOM     23  C   UNL     1      34.343  -6.640 -24.782  0.00  0.00    +0.000 C 
ATOM     24  C   UNL     1      32.186  -5.631 -24.011  0.00  0.00    +0.000 C 
ENDBRANCH  21  22
ENDBRANCH   4  21
TORSDOF 4
ENDMDL
MODEL 3
REMARK VINA RESULT:      -7.9      3.544      8.803
REMARK  Name = 6018
REMARK  4 active torsions:
REMARK  status: ('A' for Active; 'I' for Inactive)
REMARK    1  A    between atoms: C_4  and  C_21
REMARK    2  A    between atoms: C_14  and  O_17
REMARK    3  A    between atoms: C_15  and  O_19
REMARK    4  A    between atoms: C_21  and  C_22
REMARK                            x       y       z     vdW  Elec       q    Type
REMARK                         _______ _______ _______ _____ _____    ______ ____
ROOT
ATOM      1  O   UNL     1      29.744  -5.782 -22.159  0.00  0.00    -0.296 OA
ATOM      2  N   UNL     1      33.448  -6.566 -23.627  0.00  0.00    +0.392 N 
ATOM      3  C   UNL     1      33.064  -7.065 -22.282  0.00  0.00    -0.027 C 
ATOM      4  C   UNL     1      31.257  -5.407 -23.989  0.00  0.00    +0.037 C 
ATOM      5  C   UNL     1      32.297  -6.395 -24.529  0.00  0.00    -0.069 C 
ATOM      6  C   UNL     1      32.069  -6.078 -21.646  0.00  0.00    +0.048 C 
ATOM      7  C   UNL     1      34.483  -7.433 -24.204  0.00  0.00    -0.072 C 
ATOM      8  C   UNL     1      32.674  -8.542 -22.267  0.00  0.00    -0.042 C 
ATOM      9  C   UNL     1      30.905  -5.789 -22.566  0.00  0.00    +0.146 C 
ATOM     10  C   UNL     1      34.027  -8.879 -24.399  0.00  0.00    +0.003 C 
ATOM     11  C   UNL     1      33.190  -9.406 -23.260  0.00  0.00    -0.027 C 
ATOM     12  C   UNL     1      31.896  -9.099 -21.241  0.00  0.00    +0.033 C 
ATOM     13  C   UNL     1      32.879 -10.776 -23.232  0.00  0.00    +0.035 C 
ATOM     14  C   UNL     1      31.598 -10.464 -21.221  0.00  0.00    +0.172 C 
ATOM     15  C   UNL     1      32.086 -11.301 -22.217  0.00  0.00    +0.172 C 
ATOM     16  H   UNL     1      33.836  -5.630 -23.511  0.00  0.00    -0.079 HD
ENDROOT
BRANCH  14  17
ATOM     17  O   UNL     1      30.830 -10.965 -20.212  0.00  0.00    -0.468 OA
ATOM     18  C   UNL     1      31.224 -10.648 -18.878  0.00  0.00    +0.253 C 
ENDBRANCH  14  17
BRANCH  15  19
ATOM     19  O   UNL     1      31.806 -12.634 -22.205  0.00  0.00    -0.468 OA
ATOM     20  C   UNL     1      32.532 -13.458 -23.115  0.00  0.00    +0.253 C 
ENDBRANCH  15  19
BRANCH   4  21
ATOM     21  C   UNL     1      31.736  -3.959 -24.039  0.00  0.00    +0.005 C 
BRANCH  21  22
ATOM     22  C   UNL     1      31.226  -3.188 -25.269  0.00  0.00    +0.000 C 
ATOM     23  C   UNL     1      30.700  -1.798 -24.909  0.00  0.00    +0.000 C 
ATOM     24  C   UNL     1      32.348  -3.065 -26.302  0.00  0.00    +0.000 C 
ENDBRANCH  21  22
ENDBRANCH   4  21
TORSDOF 4
ENDMDL
MODEL 4
REMARK VINA RESULT:      -7.8      2.540      4.503
REMARK  Name = 6018
REMARK  4 active torsions:
REMARK  status: ('A' for Active; 'I' for Inactive)
REMARK    1  A    between atoms: C_4  and  C_21
REMARK    2  A    between atoms: C_14  and  O_17
REMARK    3  A    between atoms: C_15  and  O_19
REMARK    4  A    between atoms: C_21  and  C_22
REMARK                            x       y       z     vdW  Elec       q    Type
REMARK                         _______ _______ _______ _____ _____    ______ ____
ROOT
ATOM      1  O   UNL     1      33.996 -18.871 -24.584  0.00  0.00    -0.296 OA
ATOM      2  N   UNL     1      35.062 -17.114 -21.082  0.00  0.00    +0.392 N 
ATOM      3  C   UNL     1      35.357 -16.436 -22.371  0.00  0.00    -0.027 C 
ATOM      4  C   UNL     1      34.063 -19.123 -22.195  0.00  0.00    +0.037 C 
ATOM      5  C   UNL     1      33.895 -18.009 -21.156  0.00  0.00    -0.069 C 
ATOM      6  C   UNL     1      35.608 -17.502 -23.452  0.00  0.00    +0.048 C 
ATOM      7  C   UNL     1      34.932 -16.117 -20.013  0.00  0.00    -0.072 C 
ATOM      8  C   UNL     1      34.368 -15.324 -22.715  0.00  0.00    -0.042 C 
ATOM      9  C   UNL     1      34.482 -18.509 -23.514  0.00  0.00    +0.146 C 
ATOM     10  C   UNL     1      33.794 -15.122 -20.242  0.00  0.00    +0.003 C 
ATOM     11  C   UNL     1      33.669 -14.669 -21.676  0.00  0.00    -0.027 C 
ATOM     12  C   UNL     1      34.198 -14.856 -24.027  0.00  0.00    +0.033 C 
ATOM     13  C   UNL     1      32.793 -13.613 -21.973  0.00  0.00    +0.035 C 
ATOM     14  C   UNL     1      33.328 -13.800 -24.310  0.00  0.00    +0.172 C 
ATOM     15  C   UNL     1      32.623 -13.181 -23.284  0.00  0.00    +0.172 C 
ATOM     16  H   UNL     1      35.851 -17.723 -20.865  0.00  0.00    -0.079 HD
ENDROOT
BRANCH  14  17
ATOM     17  O   UNL     1      33.183 -13.381 -25.599  0.00  0.00    -0.468 OA
ATOM     18  C   UNL     1      33.107 -14.392 -26.604  0.00  0.00    +0.253 C 
ENDBRANCH  14  17
BRANCH  15  19
ATOM     19  O   UNL     1      31.775 -12.149 -23.547  0.00  0.00    -0.468 OA
ATOM     20  C   UNL     1      31.627 -11.156 -22.534  0.00  0.00    +0.253 C 
ENDBRANCH  15  19
BRANCH   4  21
ATOM     21  C   UNL     1      35.072 -20.185 -21.766  0.00  0.00    +0.005 C 
BRANCH  21  22
ATOM     22  C   UNL     1      35.036 -20.490 -20.259  0.00  0.00    +0.000 C 
ATOM     23  C   UNL     1      33.798 -21.292 -19.855  0.00  0.00    +0.000 C 
ATOM     24  C   UNL     1      36.300 -21.254 -19.857  0.00  0.00    +0.000 C 
ENDBRANCH  21  22
ENDBRANCH   4  21
TORSDOF 4
ENDMDL
MODEL 5
REMARK VINA RESULT:      -7.8      2.300      7.439
REMARK  Name = 6018
REMARK  4 active torsions:
REMARK  status: ('A' for Active; 'I' for Inactive)
REMARK    1  A    between atoms: C_4  and  C_21
REMARK    2  A    between atoms: C_14  and  O_17
REMARK    3  A    between atoms: C_15  and  O_19
REMARK    4  A    between atoms: C_21  and  C_22
REMARK                            x       y       z     vdW  Elec       q    Type
REMARK                         _______ _______ _______ _____ _____    ______ ____
ROOT
ATOM      1  O   UNL     1      34.007  -8.994 -23.893  0.00  0.00    -0.296 OA
ATOM      2  N   UNL     1      31.396  -9.497 -20.824  0.00  0.00    +0.392 N 
ATOM      3  C   UNL     1      31.285 -10.347 -22.037  0.00  0.00    -0.027 C 
ATOM      4  C   UNL     1      33.317  -8.177 -21.740  0.00  0.00    +0.037 C 
ATOM      5  C   UNL     1      32.766  -9.014 -20.582  0.00  0.00    -0.069 C 
ATOM      6  C   UNL     1      31.759  -9.541 -23.260  0.00  0.00    +0.048 C 
ATOM      7  C   UNL     1      30.843 -10.208 -19.665  0.00  0.00    -0.072 C 
ATOM      8  C   UNL     1      31.880 -11.743 -21.860  0.00  0.00    -0.042 C 
ATOM      9  C   UNL     1      33.128  -8.940 -23.035  0.00  0.00    +0.146 C 
ATOM     10  C   UNL     1      31.576 -11.510 -19.342  0.00  0.00    +0.003 C 
ATOM     11  C   UNL     1      31.961 -12.305 -20.566  0.00  0.00    -0.027 C 
ATOM     12  C   UNL     1      32.263 -12.536 -22.953  0.00  0.00    +0.033 C 
ATOM     13  C   UNL     1      32.460 -13.606 -20.392  0.00  0.00    +0.035 C 
ATOM     14  C   UNL     1      32.752 -13.832 -22.768  0.00  0.00    +0.172 C 
ATOM     15  C   UNL     1      32.855 -14.365 -21.489  0.00  0.00    +0.172 C 
ATOM     16  H   UNL     1      30.842  -8.656 -20.985  0.00  0.00    -0.079 HD
ENDROOT
BRANCH  14  17
ATOM     17  O   UNL     1      33.124 -14.566 -23.855  0.00  0.00    -0.468 OA
ATOM     18  C   UNL     1      33.114 -13.904 -25.119  0.00  0.00    +0.253 C 
ENDBRANCH  14  17
BRANCH  15  19
ATOM     19  O   UNL     1      33.327 -15.627 -21.297  0.00  0.00    -0.468 OA
ATOM     20  C   UNL     1      34.631 -15.754 -20.733  0.00  0.00    +0.253 C 
ENDBRANCH  15  19
BRANCH   4  21
ATOM     21  C   UNL     1      32.662  -6.802 -21.841  0.00  0.00    +0.005 C 
BRANCH  21  22
ATOM     22  C   UNL     1      31.765  -6.641 -23.080  0.00  0.00    +0.000 C 
ATOM     23  C   UNL     1      30.398  -6.046 -22.736  0.00  0.00    +0.000 C 
ATOM     24  C   UNL     1      32.467  -5.759 -24.115  0.00  0.00    +0.000 C 
ENDBRANCH  21  22
ENDBRANCH   4  21
TORSDOF 4
ENDMDL
MODEL 6
REMARK VINA RESULT:      -7.5      4.420      7.899
REMARK  Name = 6018
REMARK  4 active torsions:
REMARK  status: ('A' for Active; 'I' for Inactive)
REMARK    1  A    between atoms: C_4  and  C_21
REMARK    2  A    between atoms: C_14  and  O_17
REMARK    3  A    between atoms: C_15  and  O_19
REMARK    4  A    between atoms: C_21  and  C_22
REMARK                            x       y       z     vdW  Elec       q    Type
REMARK                         _______ _______ _______ _____ _____    ______ ____
ROOT
ATOM      1  O   UNL     1      34.497  -9.806 -24.524  0.00  0.00    -0.296 OA
ATOM      2  N   UNL     1      32.066  -6.917 -23.030  0.00  0.00    +0.392 N 
ATOM      3  C   UNL     1      33.431  -6.567 -23.499  0.00  0.00    -0.027 C 
ATOM      4  C   UNL     1      32.362  -9.357 -23.515  0.00  0.00    +0.037 C 
ATOM      5  C   UNL     1      31.509  -8.100 -23.709  0.00  0.00    -0.069 C 
ATOM      6  C   UNL     1      34.365  -7.768 -23.267  0.00  0.00    +0.048 C 
ATOM      7  C   UNL     1      31.185  -5.748 -23.137  0.00  0.00    -0.072 C 
ATOM      8  C   UNL     1      33.454  -5.934 -24.889  0.00  0.00    -0.042 C 
ATOM      9  C   UNL     1      33.801  -9.037 -23.864  0.00  0.00    +0.146 C 
ATOM     10  C   UNL     1      31.026  -5.234 -24.568  0.00  0.00    +0.003 C 
ATOM     11  C   UNL     1      32.310  -5.253 -25.362  0.00  0.00    -0.027 C 
ATOM     12  C   UNL     1      34.611  -5.918 -25.683  0.00  0.00    +0.033 C 
ATOM     13  C   UNL     1      32.332  -4.625 -26.618  0.00  0.00    +0.035 C 
ATOM     14  C   UNL     1      34.624  -5.285 -26.928  0.00  0.00    +0.172 C 
ATOM     15  C   UNL     1      33.484  -4.642 -27.398  0.00  0.00    +0.172 C 
ATOM     16  H   UNL     1      32.135  -7.184 -22.048  0.00  0.00    -0.079 HD
ENDROOT
BRANCH  14  17
ATOM     17  O   UNL     1      35.765  -5.301 -27.674  0.00  0.00    -0.468 OA
ATOM     18  C   UNL     1      36.657  -4.198 -27.517  0.00  0.00    +0.253 C 
ENDBRANCH  14  17
BRANCH  15  19
ATOM     19  O   UNL     1      33.486  -4.018 -28.608  0.00  0.00    -0.468 OA
ATOM     20  C   UNL     1      32.682  -4.594 -29.636  0.00  0.00    +0.253 C 
ENDBRANCH  15  19
BRANCH   4  21
ATOM     21  C   UNL     1      32.279  -9.915 -22.097  0.00  0.00    +0.005 C 
BRANCH  21  22
ATOM     22  C   UNL     1      31.372 -11.151 -21.977  0.00  0.00    +0.000 C 
ATOM     23  C   UNL     1      32.091 -12.443 -22.369  0.00  0.00    +0.000 C 
ATOM     24  C   UNL     1      30.843 -11.267 -20.546  0.00  0.00    +0.000 C 
ENDBRANCH  21  22
ENDBRANCH   4  21
TORSDOF 4
ENDMDL
MODEL 7
REMARK VINA RESULT:      -7.5      1.245      1.517
REMARK  Name = 6018
REMARK  4 active torsions:
REMARK  status: ('A' for Active; 'I' for Inactive)
REMARK    1  A    between atoms: C_4  and  C_21
REMARK    2  A    between atoms: C_14  and  O_17
REMARK    3  A    between atoms: C_15  and  O_19
REMARK    4  A    between atoms: C_21  and  C_22
REMARK                            x       y       z     vdW  Elec       q    Type
REMARK                         _______ _______ _______ _____ _____    ______ ____
ROOT
ATOM      1  O   UNL     1      34.678 -15.204 -20.052  0.00  0.00    -0.296 OA
ATOM      2  N   UNL     1      33.583 -15.828 -23.912  0.00  0.00    +0.392 N 
ATOM      3  C   UNL     1      32.760 -14.949 -23.043  0.00  0.00    -0.027 C 
ATOM      4  C   UNL     1      35.194 -16.390 -22.078  0.00  0.00    +0.037 C 
ATOM      5  C   UNL     1      34.998 -15.877 -23.509  0.00  0.00    -0.069 C 
ATOM      6  C   UNL     1      32.853 -15.451 -21.590  0.00  0.00    +0.048 C 
ATOM      7  C   UNL     1      33.417 -15.436 -25.317  0.00  0.00    -0.072 C 
ATOM      8  C   UNL     1      33.008 -13.459 -23.274  0.00  0.00    -0.042 C 
ATOM      9  C   UNL     1      34.289 -15.610 -21.146  0.00  0.00    +0.146 C 
ATOM     10  C   UNL     1      33.870 -14.005 -25.608  0.00  0.00    +0.003 C 
ATOM     11  C   UNL     1      33.489 -13.021 -24.529  0.00  0.00    -0.027 C 
ATOM     12  C   UNL     1      32.680 -12.489 -22.314  0.00  0.00    +0.033 C 
ATOM     13  C   UNL     1      33.675 -11.651 -24.773  0.00  0.00    +0.035 C 
ATOM     14  C   UNL     1      32.864 -11.128 -22.571  0.00  0.00    +0.172 C 
ATOM     15  C   UNL     1      33.365 -10.709 -23.797  0.00  0.00    +0.172 C 
ATOM     16  H   UNL     1      33.241 -16.783 -23.799  0.00  0.00    -0.079 HD
ENDROOT
BRANCH  14  17
ATOM     17  O   UNL     1      32.543 -10.218 -21.608  0.00  0.00    -0.468 OA
ATOM     18  C   UNL     1      31.156 -10.022 -21.338  0.00  0.00    +0.253 C 
ENDBRANCH  14  17
BRANCH  15  19
ATOM     19  O   UNL     1      33.544  -9.386 -24.060  0.00  0.00    -0.468 OA
ATOM     20  C   UNL     1      34.869  -8.960 -24.375  0.00  0.00    +0.253 C 
ENDBRANCH  15  19
BRANCH   4  21
ATOM     21  C   UNL     1      34.921 -17.885 -21.943  0.00  0.00    +0.005 C 
BRANCH  21  22
ATOM     22  C   UNL     1      36.006 -18.636 -21.152  0.00  0.00    +0.000 C 
ATOM     23  C   UNL     1      35.580 -20.057 -20.782  0.00  0.00    +0.000 C 
ATOM     24  C   UNL     1      37.301 -18.680 -21.966  0.00  0.00    +0.000 C 
ENDBRANCH  21  22
ENDBRANCH   4  21
TORSDOF 4
ENDMDL
MODEL 8
REMARK VINA RESULT:      -7.4     11.860     13.927
REMARK  Name = 6018
REMARK  4 active torsions:
REMARK  status: ('A' for Active; 'I' for Inactive)
REMARK    1  A    between atoms: C_4  and  C_21
REMARK    2  A    between atoms: C_14  and  O_17
REMARK    3  A    between atoms: C_15  and  O_19
REMARK    4  A    between atoms: C_21  and  C_22
REMARK                            x       y       z     vdW  Elec       q    Type
REMARK                         _______ _______ _______ _____ _____    ______ ____
ROOT
ATOM      1  O   UNL     1      30.852 -25.380 -12.678  0.00  0.00    -0.296 OA
ATOM      2  N   UNL     1      31.565 -23.159 -16.002  0.00  0.00    +0.392 N 
ATOM      3  C   UNL     1      32.265 -22.837 -14.732  0.00  0.00    -0.027 C 
ATOM      4  C   UNL     1      30.250 -25.029 -14.978  0.00  0.00    +0.037 C 
ATOM      5  C   UNL     1      31.184 -24.578 -16.106  0.00  0.00    -0.069 C 
ATOM      6  C   UNL     1      31.351 -23.201 -13.549  0.00  0.00    +0.048 C 
ATOM      7  C   UNL     1      32.373 -22.715 -17.144  0.00  0.00    -0.072 C 
ATOM      8  C   UNL     1      33.701 -23.357 -14.679  0.00  0.00    -0.042 C 
ATOM      9  C   UNL     1      30.850 -24.624 -13.648  0.00  0.00    +0.146 C 
ATOM     10  C   UNL     1      33.739 -23.396 -17.225  0.00  0.00    +0.003 C 
ATOM     11  C   UNL     1      34.409 -23.567 -15.884  0.00  0.00    -0.027 C 
ATOM     12  C   UNL     1      34.384 -23.542 -13.467  0.00  0.00    +0.033 C 
ATOM     13  C   UNL     1      35.745 -23.998 -15.850  0.00  0.00    +0.035 C 
ATOM     14  C   UNL     1      35.715 -23.965 -13.445  0.00  0.00    +0.172 C 
ATOM     15  C   UNL     1      36.394 -24.197 -14.635  0.00  0.00    +0.172 C 
ATOM     16  H   UNL     1      30.684 -22.646 -16.008  0.00  0.00    -0.079 HD
ENDROOT
BRANCH  14  17
ATOM     17  O   UNL     1      36.340 -24.144 -12.247  0.00  0.00    -0.468 OA
ATOM     18  C   UNL     1      37.006 -23.012 -11.688  0.00  0.00    +0.253 C 
ENDBRANCH  14  17
BRANCH  15  19
ATOM     19  O   UNL     1      37.693 -24.606 -14.627  0.00  0.00    -0.468 OA
ATOM     20  C   UNL     1      37.934 -26.006 -14.755  0.00  0.00    +0.253 C 
ENDBRANCH  15  19
BRANCH   4  21
ATOM     21  C   UNL     1      28.840 -24.458 -15.113  0.00  0.00    +0.005 C 
BRANCH  21  22
ATOM     22  C   UNL     1      28.751 -23.273 -16.089  0.00  0.00    +0.000 C 
ATOM     23  C   UNL     1      27.938 -23.609 -17.341  0.00  0.00    +0.000 C 
ATOM     24  C   UNL     1      28.133 -22.066 -15.380  0.00  0.00    +0.000 C 
ENDBRANCH  21  22
ENDBRANCH   4  21
TORSDOF 4
ENDMDL
MODEL 9
REMARK VINA RESULT:      -7.2      4.122      7.592
REMARK  Name = 6018
REMARK  4 active torsions:
REMARK  status: ('A' for Active; 'I' for Inactive)
REMARK    1  A    between atoms: C_4  and  C_21
REMARK    2  A    between atoms: C_14  and  O_17
REMARK    3  A    between atoms: C_15  and  O_19
REMARK    4  A    between atoms: C_21  and  C_22
REMARK                            x       y       z     vdW  Elec       q    Type
REMARK                         _______ _______ _______ _____ _____    ______ ____
ROOT
ATOM      1  O   UNL     1      33.733 -10.009 -24.841  0.00  0.00    -0.296 OA
ATOM      2  N   UNL     1      32.244  -7.354 -22.152  0.00  0.00    +0.392 N 
ATOM      3  C   UNL     1      33.396  -6.973 -23.010  0.00  0.00    -0.027 C 
ATOM      4  C   UNL     1      32.122  -9.675 -23.088  0.00  0.00    +0.037 C 
ATOM      5  C   UNL     1      31.379  -8.374 -22.770  0.00  0.00    -0.069 C 
ATOM      6  C   UNL     1      34.233  -8.229 -23.313  0.00  0.00    +0.048 C 
ATOM      7  C   UNL     1      31.497  -6.154 -21.758  0.00  0.00    -0.072 C 
ATOM      8  C   UNL     1      33.006  -6.101 -24.202  0.00  0.00    -0.042 C 
ATOM      9  C   UNL     1      33.380  -9.348 -23.866  0.00  0.00    +0.146 C 
ATOM     10  C   UNL     1      30.911  -5.385 -22.942  0.00  0.00    +0.003 C 
ATOM     11  C   UNL     1      31.840  -5.305 -24.129  0.00  0.00    -0.027 C 
ATOM     12  C   UNL     1      33.820  -5.982 -25.339  0.00  0.00    +0.033 C 
ATOM     13  C   UNL     1      31.494  -4.461 -25.197  0.00  0.00    +0.035 C 
ATOM     14  C   UNL     1      33.469  -5.135 -26.393  0.00  0.00    +0.172 C 
ATOM     15  C   UNL     1      32.305  -4.378 -26.324  0.00  0.00    +0.172 C 
ATOM     16  H   UNL     1      32.617  -7.796 -21.312  0.00  0.00    -0.079 HD
ENDROOT
BRANCH  14  17
ATOM     17  O   UNL     1      34.282  -5.056 -27.485  0.00  0.00    -0.468 OA
ATOM     18  C   UNL     1      35.243  -4.002 -27.502  0.00  0.00    +0.253 C 
ENDBRANCH  14  17
BRANCH  15  19
ATOM     19  O   UNL     1      31.955  -3.546 -27.344  0.00  0.00    -0.468 OA
ATOM     20  C   UNL     1      31.482  -2.248 -26.989  0.00  0.00    +0.253 C 
ENDBRANCH  15  19
BRANCH   4  21
ATOM     21  C   UNL     1      32.473 -10.477 -21.837  0.00  0.00    +0.005 C 
BRANCH  21  22
ATOM     22  C   UNL     1      31.383 -11.481 -21.428  0.00  0.00    +0.000 C 
ATOM     23  C   UNL     1      31.931 -12.897 -21.249  0.00  0.00    +0.000 C 
ATOM     24  C   UNL     1      30.715 -11.018 -20.132  0.00  0.00    +0.000 C 
ENDBRANCH  21  22
ENDBRANCH   4  21
TORSDOF 4
ENDMDL
