MODEL 1
REMARK VINA RESULT:     -10.4      0.000      0.000
REMARK  Name = 15942652
REMARK  5 active torsions:
REMARK  status: ('A' for Active; 'I' for Inactive)
REMARK    1  A    between atoms: C_3  and  N_16
REMARK    2  A    between atoms: C_10  and  C_20
REMARK    3  A    between atoms: C_11  and  O_30
REMARK    4  A    between atoms: C_23  and  O_26
REMARK    5  A    between atoms: C_25  and  O_28
REMARK                            x       y       z     vdW  Elec       q    Type
REMARK                         _______ _______ _______ _____ _____    ______ ____
ROOT
ATOM      1  O   UNL     1      34.982 -23.795 -15.391  0.00  0.00    -0.449 OA
ATOM      2  O   UNL     1      32.092 -24.561 -12.622  0.00  0.00    -0.283 OA
ATOM      3  C   UNL     1      33.385 -23.017 -16.944  0.00  0.00    +0.103 C 
ATOM      4  C   UNL     1      33.667 -23.540 -15.683  0.00  0.00    +0.163 A 
ATOM      5  C   UNL     1      32.067 -22.737 -17.301  0.00  0.00    +0.015 C 
ATOM      6  C   UNL     1      32.632 -23.782 -14.782  0.00  0.00    +0.078 A 
ATOM      7  C   UNL     1      31.031 -22.979 -16.398  0.00  0.00    -0.020 C 
ATOM      8  C   UNL     1      31.310 -23.503 -15.135  0.00  0.00    +0.002 C 
ATOM      9  C   UNL     1      32.957 -24.334 -13.457  0.00  0.00    +0.235 A 
ATOM     10  C   UNL     1      35.293 -24.327 -14.149  0.00  0.00    +0.182 A 
ATOM     11  C   UNL     1      34.391 -24.598 -13.187  0.00  0.00    +0.208 A 
ATOM     12  C   UNL     1      29.621 -22.677 -16.783  0.00  0.00    +0.031 C 
ENDROOT
BRANCH   3  16
ATOM     13  S   UNL     1      34.024 -22.616 -19.585  0.00  0.00    +0.057 S 
ATOM     14  O   UNL     1      34.241 -23.890 -20.239  0.00  0.00    -0.154 OA
ATOM     15  O   UNL     1      32.791 -21.870 -19.739  0.00  0.00    -0.154 OA
ATOM     16  N   UNL     1      34.446 -22.756 -17.901  0.00  0.00    -0.191 N 
ATOM     17  C   UNL     1      35.563 -21.828 -17.563  0.00  0.00    +0.117 C 
ATOM     18  C   UNL     1      35.382 -21.522 -19.970  0.00  0.00    +0.174 C 
ATOM     19  C   UNL     1      36.385 -21.718 -18.845  0.00  0.00    +0.051 C 
ENDBRANCH   3  16
BRANCH  10  20
ATOM     20  C   UNL     1      36.737 -24.553 -13.965  0.00  0.00    +0.041 C 
ATOM     21  C   UNL     1      37.488 -25.136 -14.986  0.00  0.00    +0.043 C 
ATOM     22  C   UNL     1      37.354 -24.185 -12.769  0.00  0.00    +0.006 C 
ATOM     23  C   UNL     1      38.855 -25.351 -14.811  0.00  0.00    +0.168 C 
ATOM     24  C   UNL     1      38.720 -24.400 -12.594  0.00  0.00    +0.040 C 
ATOM     25  C   UNL     1      39.471 -24.982 -13.614  0.00  0.00    +0.167 C 
BRANCH  23  26
ATOM     26  O   UNL     1      39.578 -25.921 -15.815  0.00  0.00    -0.503 OA
ATOM     27  H   UNL     1      40.506 -25.791 -15.856  0.00  0.00    +0.292 HD
ENDBRANCH  23  26
BRANCH  25  28
ATOM     28  O   UNL     1      40.806 -25.186 -13.432  0.00  0.00    -0.503 OA
ATOM     29  H   UNL     1      41.273 -24.683 -12.794  0.00  0.00    +0.292 HD
ENDBRANCH  25  28
ENDBRANCH  10  20
BRANCH  11  30
ATOM     30  O   UNL     1      34.737 -25.097 -11.950  0.00  0.00    -0.501 OA
ATOM     31  H   UNL     1      35.609 -25.404 -11.797  0.00  0.00    +0.292 HD
ENDBRANCH  11  30
TORSDOF 5
ENDMDL
MODEL 2
REMARK VINA RESULT:      -9.6      1.485      1.796
REMARK  Name = 15942652
REMARK  5 active torsions:
REMARK  status: ('A' for Active; 'I' for Inactive)
REMARK    1  A    between atoms: C_3  and  N_16
REMARK    2  A    between atoms: C_10  and  C_20
REMARK    3  A    between atoms: C_11  and  O_30
REMARK    4  A    between atoms: C_23  and  O_26
REMARK    5  A    between atoms: C_25  and  O_28
REMARK                            x       y       z     vdW  Elec       q    Type
REMARK                         _______ _______ _______ _____ _____    ______ ____
ROOT
ATOM      1  O   UNL     1      33.571 -23.448 -15.608  0.00  0.00    -0.449 OA
ATOM      2  O   UNL     1      30.870 -24.866 -12.907  0.00  0.00    -0.283 OA
ATOM      3  C   UNL     1      31.853 -22.603 -16.988  0.00  0.00    +0.103 C 
ATOM      4  C   UNL     1      32.229 -23.275 -15.825  0.00  0.00    +0.163 A 
ATOM      5  C   UNL     1      30.503 -22.396 -17.265  0.00  0.00    +0.015 C 
ATOM      6  C   UNL     1      31.255 -23.738 -14.942  0.00  0.00    +0.078 A 
ATOM      7  C   UNL     1      29.528 -22.860 -16.380  0.00  0.00    -0.020 C 
ATOM      8  C   UNL     1      29.901 -23.532 -15.216  0.00  0.00    +0.002 C 
ATOM      9  C   UNL     1      31.679 -24.442 -13.722  0.00  0.00    +0.235 A 
ATOM     10  C   UNL     1      33.976 -24.122 -14.467  0.00  0.00    +0.182 A 
ATOM     11  C   UNL     1      33.139 -24.610 -13.532  0.00  0.00    +0.208 A 
ATOM     12  C   UNL     1      28.084 -22.636 -16.679  0.00  0.00    +0.031 C 
ENDROOT
BRANCH   3  16
ATOM     13  S   UNL     1      34.121 -23.193 -18.420  0.00  0.00    +0.057 S 
ATOM     14  O   UNL     1      35.295 -22.956 -17.605  0.00  0.00    -0.154 OA
ATOM     15  O   UNL     1      33.595 -24.525 -18.646  0.00  0.00    -0.154 OA
ATOM     16  N   UNL     1      32.850 -22.111 -17.923  0.00  0.00    -0.191 N 
ATOM     17  C   UNL     1      32.459 -21.213 -19.047  0.00  0.00    +0.117 C 
ATOM     18  C   UNL     1      34.345 -22.411 -20.009  0.00  0.00    +0.174 C 
ATOM     19  C   UNL     1      33.735 -21.027 -19.864  0.00  0.00    +0.051 C 
ENDBRANCH   3  16
BRANCH  10  20
ATOM     20  C   UNL     1      35.440 -24.239 -14.356  0.00  0.00    +0.041 C 
ATOM     21  C   UNL     1      36.107 -25.290 -14.987  0.00  0.00    +0.043 C 
ATOM     22  C   UNL     1      36.162 -23.300 -13.618  0.00  0.00    +0.006 C 
ATOM     23  C   UNL     1      37.493 -25.402 -14.881  0.00  0.00    +0.168 C 
ATOM     24  C   UNL     1      37.547 -23.412 -13.512  0.00  0.00    +0.040 C 
ATOM     25  C   UNL     1      38.213 -24.462 -14.143  0.00  0.00    +0.167 C 
BRANCH  23  26
ATOM     26  O   UNL     1      38.132 -26.432 -15.503  0.00  0.00    -0.503 OA
ATOM     27  H   UNL     1      38.957 -26.735 -15.177  0.00  0.00    +0.292 HD
ENDBRANCH  23  26
BRANCH  25  28
ATOM     28  O   UNL     1      39.568 -24.559 -14.033  0.00  0.00    -0.503 OA
ATOM     29  H   UNL     1      40.055 -23.870 -13.625  0.00  0.00    +0.292 HD
ENDBRANCH  25  28
ENDBRANCH  10  20
BRANCH  11  30
ATOM     30  O   UNL     1      33.576 -25.249 -12.391  0.00  0.00    -0.501 OA
ATOM     31  H   UNL     1      34.486 -25.241 -12.169  0.00  0.00    +0.292 HD
ENDBRANCH  11  30
TORSDOF 5
ENDMDL
MODEL 3
REMARK VINA RESULT:      -9.1     12.143     16.045
REMARK  Name = 15942652
REMARK  5 active torsions:
REMARK  status: ('A' for Active; 'I' for Inactive)
REMARK    1  A    between atoms: C_3  and  N_16
REMARK    2  A    between atoms: C_10  and  C_20
REMARK    3  A    between atoms: C_11  and  O_30
REMARK    4  A    between atoms: C_23  and  O_26
REMARK    5  A    between atoms: C_25  and  O_28
REMARK                            x       y       z     vdW  Elec       q    Type
REMARK                         _______ _______ _______ _____ _____    ______ ____
ROOT
ATOM      1  O   UNL     1      32.887 -10.956 -23.284  0.00  0.00    -0.449 OA
ATOM      2  O   UNL     1      31.315 -11.315 -19.542  0.00  0.00    -0.283 OA
ATOM      3  C   UNL     1      33.199 -13.290 -23.453  0.00  0.00    +0.103 C 
ATOM      4  C   UNL     1      32.767 -12.193 -22.706  0.00  0.00    +0.163 A 
ATOM      5  C   UNL     1      33.103 -14.574 -22.919  0.00  0.00    +0.015 C 
ATOM      6  C   UNL     1      32.240 -12.384 -21.430  0.00  0.00    +0.078 A 
ATOM      7  C   UNL     1      32.575 -14.764 -21.641  0.00  0.00    -0.020 C 
ATOM      8  C   UNL     1      32.142 -13.669 -20.892  0.00  0.00    +0.002 C 
ATOM      9  C   UNL     1      31.791 -11.210 -20.665  0.00  0.00    +0.235 A 
ATOM     10  C   UNL     1      32.477  -9.847 -22.563  0.00  0.00    +0.182 A 
ATOM     11  C   UNL     1      31.945  -9.893 -21.328  0.00  0.00    +0.208 A 
ATOM     12  C   UNL     1      32.473 -16.140 -21.074  0.00  0.00    +0.031 C 
ENDROOT
BRANCH   3  16
ATOM     13  S   UNL     1      33.228 -14.203 -26.042  0.00  0.00    +0.057 S 
ATOM     14  O   UNL     1      34.190 -15.278 -26.176  0.00  0.00    -0.154 OA
ATOM     15  O   UNL     1      31.804 -14.450 -25.940  0.00  0.00    -0.154 OA
ATOM     16  N   UNL     1      33.751 -13.118 -24.785  0.00  0.00    -0.191 N 
ATOM     17  C   UNL     1      33.992 -11.754 -25.338  0.00  0.00    +0.117 C 
ATOM     18  C   UNL     1      33.489 -13.019 -27.354  0.00  0.00    +0.174 C 
ATOM     19  C   UNL     1      34.443 -11.987 -26.777  0.00  0.00    +0.051 C 
ENDBRANCH   3  16
BRANCH  10  20
ATOM     20  C   UNL     1      32.661  -8.582 -23.297  0.00  0.00    +0.041 C 
ATOM     21  C   UNL     1      31.553  -7.808 -23.643  0.00  0.00    +0.043 C 
ATOM     22  C   UNL     1      33.944  -8.159 -23.649  0.00  0.00    +0.006 C 
ATOM     23  C   UNL     1      31.727  -6.612 -24.339  0.00  0.00    +0.168 C 
ATOM     24  C   UNL     1      34.117  -6.964 -24.345  0.00  0.00    +0.040 C 
ATOM     25  C   UNL     1      33.010  -6.190 -24.690  0.00  0.00    +0.167 C 
BRANCH  23  26
ATOM     26  O   UNL     1      30.637  -5.865 -24.671  0.00  0.00    -0.503 OA
ATOM     27  H   UNL     1      29.884  -5.864 -24.114  0.00  0.00    +0.292 HD
ENDBRANCH  23  26
BRANCH  25  28
ATOM     28  O   UNL     1      33.193  -5.023 -25.369  0.00  0.00    -0.503 OA
ATOM     29  H   UNL     1      34.056  -4.671 -25.471  0.00  0.00    +0.292 HD
ENDBRANCH  25  28
ENDBRANCH  10  20
BRANCH  11  30
ATOM     30  O   UNL     1      31.517  -8.772 -20.649  0.00  0.00    -0.501 OA
ATOM     31  H   UNL     1      31.372  -8.811 -19.725  0.00  0.00    +0.292 HD
ENDBRANCH  11  30
TORSDOF 5
ENDMDL
MODEL 4
REMARK VINA RESULT:      -8.9      2.420      4.645
REMARK  Name = 15942652
REMARK  5 active torsions:
REMARK  status: ('A' for Active; 'I' for Inactive)
REMARK    1  A    between atoms: C_3  and  N_16
REMARK    2  A    between atoms: C_10  and  C_20
REMARK    3  A    between atoms: C_11  and  O_30
REMARK    4  A    between atoms: C_23  and  O_26
REMARK    5  A    between atoms: C_25  and  O_28
REMARK                            x       y       z     vdW  Elec       q    Type
REMARK                         _______ _______ _______ _____ _____    ______ ____
ROOT
ATOM      1  O   UNL     1      34.780 -23.613 -16.023  0.00  0.00    -0.449 OA
ATOM      2  O   UNL     1      37.369 -21.435 -18.294  0.00  0.00    -0.283 OA
ATOM      3  C   UNL     1      32.941 -22.918 -17.329  0.00  0.00    +0.103 C 
ATOM      4  C   UNL     1      34.313 -22.877 -17.081  0.00  0.00    +0.163 A 
ATOM      5  C   UNL     1      32.405 -22.189 -18.390  0.00  0.00    +0.015 C 
ATOM      6  C   UNL     1      35.145 -22.110 -17.894  0.00  0.00    +0.078 A 
ATOM      7  C   UNL     1      33.239 -21.421 -19.204  0.00  0.00    -0.020 C 
ATOM      8  C   UNL     1      34.612 -21.379 -18.959  0.00  0.00    +0.002 C 
ATOM      9  C   UNL     1      36.589 -22.085 -17.612  0.00  0.00    +0.235 A 
ATOM     10  C   UNL     1      36.137 -23.584 -15.745  0.00  0.00    +0.182 A 
ATOM     11  C   UNL     1      37.047 -22.893 -16.456  0.00  0.00    +0.208 A 
ATOM     12  C   UNL     1      32.662 -20.645 -20.339  0.00  0.00    +0.031 C 
ENDROOT
BRANCH   3  16
ATOM     13  S   UNL     1      32.115 -23.479 -14.771  0.00  0.00    +0.057 S 
ATOM     14  O   UNL     1      32.974 -24.488 -14.185  0.00  0.00    -0.154 OA
ATOM     15  O   UNL     1      32.247 -22.072 -14.451  0.00  0.00    -0.154 OA
ATOM     16  N   UNL     1      32.053 -23.710 -16.496  0.00  0.00    -0.191 N 
ATOM     17  C   UNL     1      30.658 -24.002 -16.935  0.00  0.00    +0.117 C 
ATOM     18  C   UNL     1      30.409 -23.944 -14.516  0.00  0.00    +0.174 C 
ATOM     19  C   UNL     1      30.019 -24.730 -15.756  0.00  0.00    +0.051 C 
ENDBRANCH   3  16
BRANCH  10  20
ATOM     20  C   UNL     1      36.505 -24.416 -14.586  0.00  0.00    +0.041 C 
ATOM     21  C   UNL     1      36.515 -23.864 -13.305  0.00  0.00    +0.043 C 
ATOM     22  C   UNL     1      36.844 -25.757 -14.769  0.00  0.00    +0.006 C 
ATOM     23  C   UNL     1      36.865 -24.651 -12.208  0.00  0.00    +0.168 C 
ATOM     24  C   UNL     1      37.194 -26.544 -13.673  0.00  0.00    +0.040 C 
ATOM     25  C   UNL     1      37.204 -25.992 -12.392  0.00  0.00    +0.167 C 
BRANCH  23  26
ATOM     26  O   UNL     1      36.871 -24.100 -10.962  0.00  0.00    -0.503 OA
ATOM     27  H   UNL     1      37.300 -23.280 -10.815  0.00  0.00    +0.292 HD
ENDBRANCH  23  26
BRANCH  25  28
ATOM     28  O   UNL     1      37.546 -26.772 -11.328  0.00  0.00    -0.503 OA
ATOM     29  H   UNL     1      38.082 -27.530 -11.457  0.00  0.00    +0.292 HD
ENDBRANCH  25  28
ENDBRANCH  10  20
BRANCH  11  30
ATOM     30  O   UNL     1      38.396 -22.910 -16.171  0.00  0.00    -0.501 OA
ATOM     31  H   UNL     1      38.986 -23.373 -16.732  0.00  0.00    +0.292 HD
ENDBRANCH  11  30
TORSDOF 5
ENDMDL
MODEL 5
REMARK VINA RESULT:      -8.3      2.277      6.326
REMARK  Name = 15942652
REMARK  5 active torsions:
REMARK  status: ('A' for Active; 'I' for Inactive)
REMARK    1  A    between atoms: C_3  and  N_16
REMARK    2  A    between atoms: C_10  and  C_20
REMARK    3  A    between atoms: C_11  and  O_30
REMARK    4  A    between atoms: C_23  and  O_26
REMARK    5  A    between atoms: C_25  and  O_28
REMARK                            x       y       z     vdW  Elec       q    Type
REMARK                         _______ _______ _______ _____ _____    ______ ____
ROOT
ATOM      1  O   UNL     1      34.847 -22.840 -15.726  0.00  0.00    -0.449 OA
ATOM      2  O   UNL     1      38.579 -23.844 -14.436  0.00  0.00    -0.283 OA
ATOM      3  C   UNL     1      33.872 -23.595 -13.713  0.00  0.00    +0.103 C 
ATOM      4  C   UNL     1      35.017 -23.398 -14.486  0.00  0.00    +0.163 A 
ATOM      5  C   UNL     1      33.980 -24.159 -12.443  0.00  0.00    +0.015 C 
ATOM      6  C   UNL     1      36.265 -23.766 -13.987  0.00  0.00    +0.078 A 
ATOM      7  C   UNL     1      35.231 -24.527 -11.944  0.00  0.00    -0.020 C 
ATOM      8  C   UNL     1      36.378 -24.332 -12.715  0.00  0.00    +0.002 C 
ATOM      9  C   UNL     1      37.457 -23.547 -14.822  0.00  0.00    +0.235 A 
ATOM     10  C   UNL     1      35.964 -22.643 -16.521  0.00  0.00    +0.182 A 
ATOM     11  C   UNL     1      37.224 -22.944 -16.157  0.00  0.00    +0.208 A 
ATOM     12  C   UNL     1      35.343 -25.130 -10.584  0.00  0.00    +0.031 C 
ENDROOT
BRANCH   3  16
ATOM     13  S   UNL     1      31.692 -24.365 -15.193  0.00  0.00    +0.057 S 
ATOM     14  O   UNL     1      31.910 -24.057 -16.592  0.00  0.00    -0.154 OA
ATOM     15  O   UNL     1      31.845 -25.706 -14.666  0.00  0.00    -0.154 OA
ATOM     16  N   UNL     1      32.560 -23.220 -14.210  0.00  0.00    -0.191 N 
ATOM     17  C   UNL     1      31.617 -22.443 -13.356  0.00  0.00    +0.117 C 
ATOM     18  C   UNL     1      30.083 -23.762 -14.706  0.00  0.00    +0.174 C 
ATOM     19  C   UNL     1      30.326 -22.363 -14.167  0.00  0.00    +0.051 C 
ENDBRANCH   3  16
BRANCH  10  20
ATOM     20  C   UNL     1      35.642 -22.037 -17.826  0.00  0.00    +0.041 C 
ATOM     21  C   UNL     1      34.356 -22.160 -18.354  0.00  0.00    +0.043 C 
ATOM     22  C   UNL     1      36.622 -21.341 -18.533  0.00  0.00    +0.006 C 
ATOM     23  C   UNL     1      34.052 -21.588 -19.589  0.00  0.00    +0.168 C 
ATOM     24  C   UNL     1      36.318 -20.769 -19.767  0.00  0.00    +0.040 C 
ATOM     25  C   UNL     1      35.034 -20.892 -20.296  0.00  0.00    +0.167 C 
BRANCH  23  26
ATOM     26  O   UNL     1      32.793 -21.715 -20.095  0.00  0.00    -0.503 OA
ATOM     27  H   UNL     1      32.403 -21.002 -20.563  0.00  0.00    +0.292 HD
ENDBRANCH  23  26
BRANCH  25  28
ATOM     28  O   UNL     1      34.748 -20.327 -21.503  0.00  0.00    -0.503 OA
ATOM     29  H   UNL     1      34.194 -20.777 -22.110  0.00  0.00    +0.292 HD
ENDBRANCH  25  28
ENDBRANCH  10  20
BRANCH  11  30
ATOM     30  O   UNL     1      38.318 -22.706 -16.961  0.00  0.00    -0.501 OA
ATOM     31  H   UNL     1      39.165 -23.007 -16.698  0.00  0.00    +0.292 HD
ENDBRANCH  11  30
TORSDOF 5
ENDMDL
MODEL 6
REMARK VINA RESULT:      -8.3      2.461      6.889
REMARK  Name = 15942652
REMARK  5 active torsions:
REMARK  status: ('A' for Active; 'I' for Inactive)
REMARK    1  A    between atoms: C_3  and  N_16
REMARK    2  A    between atoms: C_10  and  C_20
REMARK    3  A    between atoms: C_11  and  O_30
REMARK    4  A    between atoms: C_23  and  O_26
REMARK    5  A    between atoms: C_25  and  O_28
REMARK                            x       y       z     vdW  Elec       q    Type
REMARK                         _______ _______ _______ _____ _____    ______ ____
ROOT
ATOM      1  O   UNL     1      34.477 -22.699 -16.741  0.00  0.00    -0.449 OA
ATOM      2  O   UNL     1      38.450 -22.796 -15.841  0.00  0.00    -0.283 OA
ATOM      3  C   UNL     1      33.932 -23.896 -14.781  0.00  0.00    +0.103 C 
ATOM      4  C   UNL     1      34.906 -23.319 -15.596  0.00  0.00    +0.163 A 
ATOM      5  C   UNL     1      34.306 -24.542 -13.603  0.00  0.00    +0.015 C 
ATOM      6  C   UNL     1      36.249 -23.390 -15.233  0.00  0.00    +0.078 A 
ATOM      7  C   UNL     1      35.652 -24.611 -13.240  0.00  0.00    -0.020 C 
ATOM      8  C   UNL     1      36.628 -24.036 -14.054  0.00  0.00    +0.002 C 
ATOM      9  C   UNL     1      37.256 -22.772 -16.110  0.00  0.00    +0.235 A 
ATOM     10  C   UNL     1      35.422 -22.127 -17.578  0.00  0.00    +0.182 A 
ATOM     11  C   UNL     1      36.747 -22.117 -17.339  0.00  0.00    +0.208 A 
ATOM     12  C   UNL     1      36.048 -25.302 -11.979  0.00  0.00    +0.031 C 
ENDROOT
BRANCH   3  16
ATOM     13  S   UNL     1      31.347 -23.860 -13.857  0.00  0.00    +0.057 S 
ATOM     14  O   UNL     1      30.869 -25.215 -13.672  0.00  0.00    -0.154 OA
ATOM     15  O   UNL     1      31.787 -23.039 -12.746  0.00  0.00    -0.154 OA
ATOM     16  N   UNL     1      32.526 -23.836 -15.138  0.00  0.00    -0.191 N 
ATOM     17  C   UNL     1      32.062 -22.968 -16.259  0.00  0.00    +0.117 C 
ATOM     18  C   UNL     1      30.131 -22.933 -14.779  0.00  0.00    +0.174 C 
ATOM     19  C   UNL     1      30.540 -23.076 -16.236  0.00  0.00    +0.051 C 
ENDBRANCH   3  16
BRANCH  10  20
ATOM     20  C   UNL     1      34.829 -21.496 -18.769  0.00  0.00    +0.041 C 
ATOM     21  C   UNL     1      35.627 -20.742 -19.630  0.00  0.00    +0.043 C 
ATOM     22  C   UNL     1      33.468 -21.650 -19.037  0.00  0.00    +0.006 C 
ATOM     23  C   UNL     1      35.066 -20.143 -20.758  0.00  0.00    +0.168 C 
ATOM     24  C   UNL     1      32.907 -21.051 -20.164  0.00  0.00    +0.040 C 
ATOM     25  C   UNL     1      33.704 -20.298 -21.025  0.00  0.00    +0.167 C 
BRANCH  23  26
ATOM     26  O   UNL     1      35.855 -19.410 -21.592  0.00  0.00    -0.503 OA
ATOM     27  H   UNL     1      36.675 -19.757 -21.885  0.00  0.00    +0.292 HD
ENDBRANCH  23  26
BRANCH  25  28
ATOM     28  O   UNL     1      33.144 -19.719 -22.124  0.00  0.00    -0.503 OA
ATOM     29  H   UNL     1      33.240 -20.122 -22.964  0.00  0.00    +0.292 HD
ENDBRANCH  25  28
ENDBRANCH  10  20
BRANCH  11  30
ATOM     30  O   UNL     1      37.658 -21.511 -18.176  0.00  0.00    -0.501 OA
ATOM     31  H   UNL     1      38.263 -20.883 -17.834  0.00  0.00    +0.292 HD
ENDBRANCH  11  30
TORSDOF 5
ENDMDL
MODEL 7
REMARK VINA RESULT:      -8.2     12.324     16.078
REMARK  Name = 15942652
REMARK  5 active torsions:
REMARK  status: ('A' for Active; 'I' for Inactive)
REMARK    1  A    between atoms: C_3  and  N_16
REMARK    2  A    between atoms: C_10  and  C_20
REMARK    3  A    between atoms: C_11  and  O_30
REMARK    4  A    between atoms: C_23  and  O_26
REMARK    5  A    between atoms: C_25  and  O_28
REMARK                            x       y       z     vdW  Elec       q    Type
REMARK                         _______ _______ _______ _____ _____    ______ ____
ROOT
ATOM      1  O   UNL     1      32.090 -10.850 -22.635  0.00  0.00    -0.449 OA
ATOM      2  O   UNL     1      31.565 -11.686 -18.682  0.00  0.00    -0.283 OA
ATOM      3  C   UNL     1      32.659 -13.092 -23.106  0.00  0.00    +0.103 C 
ATOM      4  C   UNL     1      32.285 -12.125 -22.172  0.00  0.00    +0.163 A 
ATOM      5  C   UNL     1      32.872 -14.407 -22.696  0.00  0.00    +0.015 C 
ATOM      6  C   UNL     1      32.124 -12.476 -20.833  0.00  0.00    +0.078 A 
ATOM      7  C   UNL     1      32.711 -14.757 -21.354  0.00  0.00    -0.020 C 
ATOM      8  C   UNL     1      32.336 -13.793 -20.418  0.00  0.00    +0.002 C 
ATOM      9  C   UNL     1      31.727 -11.437 -19.869  0.00  0.00    +0.235 A 
ATOM     10  C   UNL     1      31.729  -9.865 -21.730  0.00  0.00    +0.182 A 
ATOM     11  C   UNL     1      31.533 -10.072 -20.414  0.00  0.00    +0.208 A 
ATOM     12  C   UNL     1      32.938 -16.166 -20.920  0.00  0.00    +0.031 C 
ENDROOT
BRANCH   3  16
ATOM     13  S   UNL     1      33.862 -11.405 -24.908  0.00  0.00    +0.057 S 
ATOM     14  O   UNL     1      33.049 -10.221 -25.095  0.00  0.00    -0.154 OA
ATOM     15  O   UNL     1      35.045 -11.403 -24.071  0.00  0.00    -0.154 OA
ATOM     16  N   UNL     1      32.833 -12.751 -24.507  0.00  0.00    -0.191 N 
ATOM     17  C   UNL     1      32.943 -13.820 -25.541  0.00  0.00    +0.117 C 
ATOM     18  C   UNL     1      34.318 -12.060 -26.506  0.00  0.00    +0.174 C 
ATOM     19  C   UNL     1      33.242 -13.080 -26.841  0.00  0.00    +0.051 C 
ENDBRANCH   3  16
BRANCH  10  20
ATOM     20  C   UNL     1      31.553  -8.543 -22.357  0.00  0.00    +0.041 C 
ATOM     21  C   UNL     1      31.926  -7.388 -21.668  0.00  0.00    +0.043 C 
ATOM     22  C   UNL     1      31.012  -8.445 -23.639  0.00  0.00    +0.006 C 
ATOM     23  C   UNL     1      31.758  -6.137 -22.261  0.00  0.00    +0.168 C 
ATOM     24  C   UNL     1      30.844  -7.195 -24.232  0.00  0.00    +0.040 C 
ATOM     25  C   UNL     1      31.217  -6.041 -23.544  0.00  0.00    +0.167 C 
BRANCH  23  26
ATOM     26  O   UNL     1      32.126  -5.017 -21.578  0.00  0.00    -0.503 OA
ATOM     27  H   UNL     1      32.559  -4.317 -22.027  0.00  0.00    +0.292 HD
ENDBRANCH  23  26
BRANCH  25  28
ATOM     28  O   UNL     1      31.049  -4.824 -24.134  0.00  0.00    -0.503 OA
ATOM     29  H   UNL     1      30.507  -4.744 -24.894  0.00  0.00    +0.292 HD
ENDBRANCH  25  28
ENDBRANCH  10  20
BRANCH  11  30
ATOM     30  O   UNL     1      31.143  -9.076 -19.545  0.00  0.00    -0.501 OA
ATOM     31  H   UNL     1      30.749  -9.299 -18.725  0.00  0.00    +0.292 HD
ENDBRANCH  11  30
TORSDOF 5
ENDMDL
MODEL 8
REMARK VINA RESULT:      -8.1      2.399      6.462
REMARK  Name = 15942652
REMARK  5 active torsions:
REMARK  status: ('A' for Active; 'I' for Inactive)
REMARK    1  A    between atoms: C_3  and  N_16
REMARK    2  A    between atoms: C_10  and  C_20
REMARK    3  A    between atoms: C_11  and  O_30
REMARK    4  A    between atoms: C_23  and  O_26
REMARK    5  A    between atoms: C_25  and  O_28
REMARK                            x       y       z     vdW  Elec       q    Type
REMARK                         _______ _______ _______ _____ _____    ______ ____
ROOT
ATOM      1  O   UNL     1      32.775 -22.959 -16.039  0.00  0.00    -0.449 OA
ATOM      2  O   UNL     1      34.178 -24.945 -12.770  0.00  0.00    -0.283 OA
ATOM      3  C   UNL     1      34.963 -22.587 -16.839  0.00  0.00    +0.103 C 
ATOM      4  C   UNL     1      34.124 -23.122 -15.862  0.00  0.00    +0.163 A 
ATOM      5  C   UNL     1      36.346 -22.720 -16.716  0.00  0.00    +0.015 C 
ATOM      6  C   UNL     1      34.668 -23.789 -14.766  0.00  0.00    +0.078 A 
ATOM      7  C   UNL     1      36.889 -23.388 -15.618  0.00  0.00    -0.020 C 
ATOM      8  C   UNL     1      36.053 -23.924 -14.639  0.00  0.00    +0.002 C 
ATOM      9  C   UNL     1      33.760 -24.345 -13.751  0.00  0.00    +0.235 A 
ATOM     10  C   UNL     1      31.915 -23.469 -15.079  0.00  0.00    +0.182 A 
ATOM     11  C   UNL     1      32.310 -24.140 -13.981  0.00  0.00    +0.208 A 
ATOM     12  C   UNL     1      38.369 -23.529 -15.490  0.00  0.00    +0.031 C 
ENDROOT
BRANCH   3  16
ATOM     13  S   UNL     1      35.470 -21.598 -19.351  0.00  0.00    +0.057 S 
ATOM     14  O   UNL     1      36.020 -20.261 -19.254  0.00  0.00    -0.154 OA
ATOM     15  O   UNL     1      36.301 -22.757 -19.607  0.00  0.00    -0.154 OA
ATOM     16  N   UNL     1      34.421 -21.888 -17.991  0.00  0.00    -0.191 N 
ATOM     17  C   UNL     1      33.028 -22.149 -18.452  0.00  0.00    +0.117 C 
ATOM     18  C   UNL     1      34.141 -21.598 -20.544  0.00  0.00    +0.174 C 
ATOM     19  C   UNL     1      32.880 -21.339 -19.737  0.00  0.00    +0.051 C 
ENDBRANCH   3  16
BRANCH  10  20
ATOM     20  C   UNL     1      30.496 -23.225 -15.389  0.00  0.00    +0.041 C 
ATOM     21  C   UNL     1      29.834 -24.034 -16.313  0.00  0.00    +0.043 C 
ATOM     22  C   UNL     1      29.813 -22.184 -14.760  0.00  0.00    +0.006 C 
ATOM     23  C   UNL     1      28.490 -23.803 -16.608  0.00  0.00    +0.168 C 
ATOM     24  C   UNL     1      28.470 -21.953 -15.054  0.00  0.00    +0.040 C 
ATOM     25  C   UNL     1      27.808 -22.761 -15.977  0.00  0.00    +0.167 C 
BRANCH  23  26
ATOM     26  O   UNL     1      27.855 -24.600 -17.512  0.00  0.00    -0.503 OA
ATOM     27  H   UNL     1      28.219 -25.433 -17.738  0.00  0.00    +0.292 HD
ENDBRANCH  23  26
BRANCH  25  28
ATOM     28  O   UNL     1      26.495 -22.526 -16.256  0.00  0.00    -0.503 OA
ATOM     29  H   UNL     1      26.114 -21.696 -16.046  0.00  0.00    +0.292 HD
ENDBRANCH  25  28
ENDBRANCH  10  20
BRANCH  11  30
ATOM     30  O   UNL     1      31.427 -24.664 -13.061  0.00  0.00    -0.501 OA
ATOM     31  H   UNL     1      30.627 -24.214 -12.872  0.00  0.00    +0.292 HD
ENDBRANCH  11  30
TORSDOF 5
ENDMDL
MODEL 9
REMARK VINA RESULT:      -7.9     10.298     13.570
REMARK  Name = 15942652
REMARK  5 active torsions:
REMARK  status: ('A' for Active; 'I' for Inactive)
REMARK    1  A    between atoms: C_3  and  N_16
REMARK    2  A    between atoms: C_10  and  C_20
REMARK    3  A    between atoms: C_11  and  O_30
REMARK    4  A    between atoms: C_23  and  O_26
REMARK    5  A    between atoms: C_25  and  O_28
REMARK                            x       y       z     vdW  Elec       q    Type
REMARK                         _______ _______ _______ _____ _____    ______ ____
ROOT
ATOM      1  O   UNL     1      33.619 -12.794 -22.962  0.00  0.00    -0.449 OA
ATOM      2  O   UNL     1      30.892 -11.824 -20.094  0.00  0.00    -0.283 OA
ATOM      3  C   UNL     1      33.361 -10.699 -24.016  0.00  0.00    +0.103 C 
ATOM      4  C   UNL     1      33.006 -11.569 -22.985  0.00  0.00    +0.163 A 
ATOM      5  C   UNL     1      32.771  -9.438 -24.094  0.00  0.00    +0.015 C 
ATOM      6  C   UNL     1      32.063 -11.177 -22.036  0.00  0.00    +0.078 A 
ATOM      7  C   UNL     1      31.827  -9.046 -23.143  0.00  0.00    -0.020 C 
ATOM      8  C   UNL     1      31.470  -9.915 -22.111  0.00  0.00    +0.002 C 
ATOM      9  C   UNL     1      31.708 -12.114 -20.959  0.00  0.00    +0.235 A 
ATOM     10  C   UNL     1      33.279 -13.686 -21.957  0.00  0.00    +0.182 A 
ATOM     11  C   UNL     1      32.393 -13.429 -20.976  0.00  0.00    +0.208 A 
ATOM     12  C   UNL     1      31.199  -7.696 -23.229  0.00  0.00    +0.031 C 
ENDROOT
BRANCH   3  16
ATOM     13  S   UNL     1      33.850 -12.190 -26.268  0.00  0.00    +0.057 S 
ATOM     14  O   UNL     1      34.238 -13.535 -25.896  0.00  0.00    -0.154 OA
ATOM     15  O   UNL     1      32.515 -11.873 -26.733  0.00  0.00    -0.154 OA
ATOM     16  N   UNL     1      34.340 -11.084 -25.016  0.00  0.00    -0.191 N 
ATOM     17  C   UNL     1      35.314 -10.088 -25.550  0.00  0.00    +0.117 C 
ATOM     18  C   UNL     1      35.015 -11.557 -27.466  0.00  0.00    +0.174 C 
ATOM     19  C   UNL     1      36.069 -10.827 -26.651  0.00  0.00    +0.051 C 
ENDBRANCH   3  16
BRANCH  10  20
ATOM     20  C   UNL     1      34.009 -14.962 -22.047  0.00  0.00    +0.041 C 
ATOM     21  C   UNL     1      34.321 -15.501 -23.296  0.00  0.00    +0.043 C 
ATOM     22  C   UNL     1      34.389 -15.634 -20.885  0.00  0.00    +0.006 C 
ATOM     23  C   UNL     1      35.011 -16.710 -23.382  0.00  0.00    +0.168 C 
ATOM     24  C   UNL     1      35.078 -16.842 -20.971  0.00  0.00    +0.040 C 
ATOM     25  C   UNL     1      35.390 -17.381 -22.219  0.00  0.00    +0.167 C 
BRANCH  23  26
ATOM     26  O   UNL     1      35.310 -17.226 -24.608  0.00  0.00    -0.503 OA
ATOM     27  H   UNL     1      35.055 -18.102 -24.821  0.00  0.00    +0.292 HD
ENDBRANCH  23  26
BRANCH  25  28
ATOM     28  O   UNL     1      36.066 -18.562 -22.290  0.00  0.00    -0.503 OA
ATOM     29  H   UNL     1      36.899 -18.650 -21.870  0.00  0.00    +0.292 HD
ENDBRANCH  25  28
ENDBRANCH  10  20
BRANCH  11  30
ATOM     30  O   UNL     1      32.100 -14.326 -19.972  0.00  0.00    -0.501 OA
ATOM     31  H   UNL     1      31.214 -14.442 -19.692  0.00  0.00    +0.292 HD
ENDBRANCH  11  30
TORSDOF 5
ENDMDL
