MODEL 1
REMARK VINA RESULT:      -9.8      0.000      0.000
REMARK  Name = 4046
REMARK  5 active torsions:
REMARK  status: ('A' for Active; 'I' for Inactive)
REMARK    1  A    between atoms: C_2  and  C_19
REMARK    2  A    between atoms: C_6  and  C_14
REMARK    3  A    between atoms: C_8  and  C_18
REMARK    4  A    between atoms: C_19  and  C_21
REMARK    5  A    between atoms: C_19  and  O_28
REMARK                            x       y       z     vdW  Elec       q    Type
REMARK                         _______ _______ _______ _____ _____    ______ ____
ROOT
ATOM      1  N   UNL     1      34.049  -9.748 -24.191  0.00  0.00    -0.402 NA
ATOM      2  C   UNL     1      33.307 -12.389 -23.802  0.00  0.00    -0.007 C 
ATOM      3  C   UNL     1      32.778 -11.397 -22.976  0.00  0.00    +0.095 C 
ATOM      4  C   UNL     1      34.196 -12.076 -24.812  0.00  0.00    +0.030 C 
ATOM      5  C   UNL     1      33.184 -10.066 -23.209  0.00  0.00    +0.120 C 
ATOM      6  C   UNL     1      34.534 -10.748 -24.965  0.00  0.00    +0.202 C 
ATOM      7  C   UNL     1      31.873 -11.691 -21.942  0.00  0.00    -0.015 C 
ATOM      8  C   UNL     1      32.662  -9.069 -22.390  0.00  0.00    +0.097 C 
ATOM      9  C   UNL     1      31.367 -10.675 -21.138  0.00  0.00    -0.004 C 
ATOM     10  C   UNL     1      31.762  -9.362 -21.362  0.00  0.00    +0.006 C 
ENDROOT
BRANCH   6  14
ATOM     11  F   UNL     1      35.404  -9.036 -26.391  0.00  0.00    -0.164 F 
ATOM     12  F   UNL     1      36.800 -10.545 -25.700  0.00  0.00    -0.164 F 
ATOM     13  F   UNL     1      35.304 -11.055 -27.193  0.00  0.00    -0.164 F 
ATOM     14  C   UNL     1      35.491 -10.353 -26.039  0.00  0.00    +0.446 C 
ENDBRANCH   6  14
BRANCH   8  18
ATOM     15  F   UNL     1      34.407  -7.442 -22.563  0.00  0.00    -0.166 F 
ATOM     16  F   UNL     1      32.644  -7.126 -23.785  0.00  0.00    -0.166 F 
ATOM     17  F   UNL     1      32.542  -6.818 -21.636  0.00  0.00    -0.166 F 
ATOM     18  C   UNL     1      33.058  -7.639 -22.592  0.00  0.00    +0.421 C 
ENDBRANCH   8  18
BRANCH   2  19
ATOM     19  C   UNL     1      32.938 -13.842 -23.632  0.00  0.00    +0.110 C 
BRANCH  19  21
ATOM     20  N   UNL     1      33.528 -14.784 -21.460  0.00  0.00    +0.387 N 
ATOM     21  C   UNL     1      33.994 -14.611 -22.841  0.00  0.00    -0.030 C 
ATOM     22  C   UNL     1      34.273 -15.971 -23.496  0.00  0.00    -0.019 C 
ATOM     23  C   UNL     1      35.266 -16.787 -22.673  0.00  0.00    -0.004 C 
ATOM     24  C   UNL     1      34.809 -16.883 -21.221  0.00  0.00    -0.023 C 
ATOM     25  C   UNL     1      34.508 -15.502 -20.644  0.00  0.00    -0.082 C 
ATOM     26  H   UNL     1      32.655 -15.311 -21.469  0.00  0.00    -0.084 HD
ATOM     27  H   UNL     1      33.391 -13.859 -21.052  0.00  0.00    -0.084 HD
ENDBRANCH  19  21
BRANCH  19  28
ATOM     28  O   UNL     1      32.779 -14.441 -24.916  0.00  0.00    -0.382 OA
ATOM     29  H   UNL     1      31.968 -14.972 -24.927  0.00  0.00    +0.211 HD
ENDBRANCH  19  28
ENDBRANCH   2  19
TORSDOF 5
ENDMDL
MODEL 2
REMARK VINA RESULT:      -9.7     12.225     15.192
REMARK  Name = 4046
REMARK  5 active torsions:
REMARK  status: ('A' for Active; 'I' for Inactive)
REMARK    1  A    between atoms: C_2  and  C_19
REMARK    2  A    between atoms: C_6  and  C_14
REMARK    3  A    between atoms: C_8  and  C_18
REMARK    4  A    between atoms: C_19  and  C_21
REMARK    5  A    between atoms: C_19  and  O_28
REMARK                            x       y       z     vdW  Elec       q    Type
REMARK                         _______ _______ _______ _____ _____    ______ ____
ROOT
ATOM      1  N   UNL     1      33.215 -23.214 -16.528  0.00  0.00    -0.402 NA
ATOM      2  C   UNL     1      34.856 -23.415 -14.305  0.00  0.00    -0.007 C 
ATOM      3  C   UNL     1      35.375 -22.916 -15.501  0.00  0.00    +0.095 C 
ATOM      4  C   UNL     1      33.537 -23.811 -14.211  0.00  0.00    +0.030 C 
ATOM      5  C   UNL     1      34.504 -22.831 -16.607  0.00  0.00    +0.120 C 
ATOM      6  C   UNL     1      32.761 -23.691 -15.346  0.00  0.00    +0.202 C 
ATOM      7  C   UNL     1      36.714 -22.508 -15.620  0.00  0.00    -0.015 C 
ATOM      8  C   UNL     1      35.012 -22.334 -17.805  0.00  0.00    +0.097 C 
ATOM      9  C   UNL     1      37.195 -22.015 -16.829  0.00  0.00    -0.004 C 
ATOM     10  C   UNL     1      36.343 -21.929 -17.923  0.00  0.00    +0.006 C 
ENDROOT
BRANCH   6  14
ATOM     11  F   UNL     1      30.769 -24.269 -16.537  0.00  0.00    -0.164 F 
ATOM     12  F   UNL     1      31.123 -25.292 -14.658  0.00  0.00    -0.164 F 
ATOM     13  F   UNL     1      30.538 -23.197 -14.659  0.00  0.00    -0.164 F 
ATOM     14  C   UNL     1      31.328 -24.105 -15.302  0.00  0.00    +0.446 C 
ENDBRANCH   6  14
BRANCH   8  18
ATOM     15  F   UNL     1      32.928 -21.637 -18.751  0.00  0.00    -0.166 F 
ATOM     16  F   UNL     1      34.682 -21.485 -20.016  0.00  0.00    -0.166 F 
ATOM     17  F   UNL     1      33.843 -23.437 -19.556  0.00  0.00    -0.166 F 
ATOM     18  C   UNL     1      34.132 -22.223 -19.011  0.00  0.00    +0.421 C 
ENDBRANCH   8  18
BRANCH   2  19
ATOM     19  C   UNL     1      35.707 -23.548 -13.066  0.00  0.00    +0.110 C 
BRANCH  19  21
ATOM     20  N   UNL     1      36.211 -25.609 -14.271  0.00  0.00    +0.387 N 
ATOM     21  C   UNL     1      36.585 -24.797 -13.107  0.00  0.00    -0.030 C 
ATOM     22  C   UNL     1      38.069 -24.409 -13.167  0.00  0.00    -0.019 C 
ATOM     23  C   UNL     1      38.958 -25.644 -13.291  0.00  0.00    -0.004 C 
ATOM     24  C   UNL     1      38.501 -26.520 -14.452  0.00  0.00    -0.023 C 
ATOM     25  C   UNL     1      37.009 -26.832 -14.356  0.00  0.00    -0.082 C 
ATOM     26  H   UNL     1      36.357 -25.060 -15.118  0.00  0.00    -0.084 HD
ATOM     27  H   UNL     1      35.231 -25.875 -14.172  0.00  0.00    -0.084 HD
ENDBRANCH  19  21
BRANCH  19  28
ATOM     28  O   UNL     1      34.863 -23.599 -11.918  0.00  0.00    -0.382 OA
ATOM     29  H   UNL     1      34.301 -22.810 -11.894  0.00  0.00    +0.211 HD
ENDBRANCH  19  28
ENDBRANCH   2  19
TORSDOF 5
ENDMDL
MODEL 3
REMARK VINA RESULT:      -9.6     11.192     14.473
REMARK  Name = 4046
REMARK  5 active torsions:
REMARK  status: ('A' for Active; 'I' for Inactive)
REMARK    1  A    between atoms: C_2  and  C_19
REMARK    2  A    between atoms: C_6  and  C_14
REMARK    3  A    between atoms: C_8  and  C_18
REMARK    4  A    between atoms: C_19  and  C_21
REMARK    5  A    between atoms: C_19  and  O_28
REMARK                            x       y       z     vdW  Elec       q    Type
REMARK                         _______ _______ _______ _____ _____    ______ ____
ROOT
ATOM      1  N   UNL     1      33.462 -23.462 -14.906  0.00  0.00    -0.402 NA
ATOM      2  C   UNL     1      34.313 -22.963 -17.494  0.00  0.00    -0.007 C 
ATOM      3  C   UNL     1      35.251 -23.032 -16.463  0.00  0.00    +0.095 C 
ATOM      4  C   UNL     1      32.967 -23.140 -17.246  0.00  0.00    +0.030 C 
ATOM      5  C   UNL     1      34.773 -23.288 -15.160  0.00  0.00    +0.120 C 
ATOM      6  C   UNL     1      32.594 -23.386 -15.941  0.00  0.00    +0.202 C 
ATOM      7  C   UNL     1      36.626 -22.856 -16.692  0.00  0.00    -0.015 C 
ATOM      8  C   UNL     1      35.701 -23.359 -14.124  0.00  0.00    +0.097 C 
ATOM      9  C   UNL     1      37.531 -22.931 -15.638  0.00  0.00    -0.004 C 
ATOM     10  C   UNL     1      37.068 -23.183 -14.352  0.00  0.00    +0.006 C 
ENDROOT
BRANCH   6  14
ATOM     11  F   UNL     1      30.304 -23.104 -16.573  0.00  0.00    -0.164 F 
ATOM     12  F   UNL     1      30.802 -24.892 -15.453  0.00  0.00    -0.164 F 
ATOM     13  F   UNL     1      30.785 -22.959 -14.457  0.00  0.00    -0.164 F 
ATOM     14  C   UNL     1      31.151 -23.582 -15.614  0.00  0.00    +0.446 C 
ENDBRANCH   6  14
BRANCH   8  18
ATOM     15  F   UNL     1      33.964 -23.240 -12.484  0.00  0.00    -0.166 F 
ATOM     16  F   UNL     1      35.299 -24.946 -12.381  0.00  0.00    -0.166 F 
ATOM     17  F   UNL     1      36.010 -22.975 -11.799  0.00  0.00    -0.166 F 
ATOM     18  C   UNL     1      35.249 -23.627 -12.722  0.00  0.00    +0.421 C 
ENDBRANCH   8  18
BRANCH   2  19
ATOM     19  C   UNL     1      34.723 -22.692 -18.921  0.00  0.00    +0.110 C 
BRANCH  19  21
ATOM     20  N   UNL     1      35.468 -20.789 -20.255  0.00  0.00    +0.387 N 
ATOM     21  C   UNL     1      34.420 -21.255 -19.339  0.00  0.00    -0.030 C 
ATOM     22  C   UNL     1      33.039 -21.168 -20.003  0.00  0.00    -0.019 C 
ATOM     23  C   UNL     1      32.753 -19.753 -20.501  0.00  0.00    -0.004 C 
ATOM     24  C   UNL     1      33.894 -19.254 -21.381  0.00  0.00    -0.023 C 
ATOM     25  C   UNL     1      35.241 -19.408 -20.679  0.00  0.00    -0.082 C 
ATOM     26  H   UNL     1      35.479 -21.391 -21.079  0.00  0.00    -0.084 HD
ATOM     27  H   UNL     1      36.361 -20.829 -19.763  0.00  0.00    -0.084 HD
ENDBRANCH  19  21
BRANCH  19  28
ATOM     28  O   UNL     1      34.037 -23.592 -19.788  0.00  0.00    -0.382 OA
ATOM     29  H   UNL     1      34.554 -24.406 -19.884  0.00  0.00    +0.211 HD
ENDBRANCH  19  28
ENDBRANCH   2  19
TORSDOF 5
ENDMDL
MODEL 4
REMARK VINA RESULT:      -9.5     12.158     14.813
REMARK  Name = 4046
REMARK  5 active torsions:
REMARK  status: ('A' for Active; 'I' for Inactive)
REMARK    1  A    between atoms: C_2  and  C_19
REMARK    2  A    between atoms: C_6  and  C_14
REMARK    3  A    between atoms: C_8  and  C_18
REMARK    4  A    between atoms: C_19  and  C_21
REMARK    5  A    between atoms: C_19  and  O_28
REMARK                            x       y       z     vdW  Elec       q    Type
REMARK                         _______ _______ _______ _____ _____    ______ ____
ROOT
ATOM      1  N   UNL     1      32.005 -22.907 -17.078  0.00  0.00    -0.402 NA
ATOM      2  C   UNL     1      34.022 -24.130 -15.624  0.00  0.00    -0.007 C 
ATOM      3  C   UNL     1      32.706 -24.195 -15.164  0.00  0.00    +0.095 C 
ATOM      4  C   UNL     1      34.336 -23.466 -16.793  0.00  0.00    +0.030 C 
ATOM      5  C   UNL     1      31.711 -23.558 -15.936  0.00  0.00    +0.120 C 
ATOM      6  C   UNL     1      33.297 -22.874 -17.480  0.00  0.00    +0.202 C 
ATOM      7  C   UNL     1      32.362 -24.864 -13.978  0.00  0.00    -0.015 C 
ATOM      8  C   UNL     1      30.395 -23.616 -15.486  0.00  0.00    +0.097 C 
ATOM      9  C   UNL     1      31.039 -24.907 -13.551  0.00  0.00    -0.004 C 
ATOM     10  C   UNL     1      30.054 -24.282 -14.306  0.00  0.00    +0.006 C 
ENDROOT
BRANCH   6  14
ATOM     11  F   UNL     1      33.554 -22.938 -19.857  0.00  0.00    -0.164 F 
ATOM     12  F   UNL     1      32.689 -21.140 -19.010  0.00  0.00    -0.164 F 
ATOM     13  F   UNL     1      34.809 -21.549 -18.751  0.00  0.00    -0.164 F 
ATOM     14  C   UNL     1      33.579 -22.141 -18.749  0.00  0.00    +0.446 C 
ENDBRANCH   6  14
BRANCH   8  18
ATOM     15  F   UNL     1      29.697 -21.820 -16.903  0.00  0.00    -0.166 F 
ATOM     16  F   UNL     1      28.773 -23.753 -17.239  0.00  0.00    -0.166 F 
ATOM     17  F   UNL     1      28.250 -22.593 -15.476  0.00  0.00    -0.166 F 
ATOM     18  C   UNL     1      29.299 -22.958 -16.264  0.00  0.00    +0.421 C 
ENDBRANCH   8  18
BRANCH   2  19
ATOM     19  C   UNL     1      35.158 -24.776 -14.870  0.00  0.00    +0.110 C 
BRANCH  19  21
ATOM     20  N   UNL     1      35.364 -24.905 -12.442  0.00  0.00    +0.387 N 
ATOM     21  C   UNL     1      35.507 -24.010 -13.596  0.00  0.00    -0.030 C 
ATOM     22  C   UNL     1      36.935 -23.452 -13.678  0.00  0.00    -0.019 C 
ATOM     23  C   UNL     1      37.330 -22.753 -12.381  0.00  0.00    -0.004 C 
ATOM     24  C   UNL     1      37.093 -23.668 -11.184  0.00  0.00    -0.023 C 
ATOM     25  C   UNL     1      35.670 -24.222 -11.185  0.00  0.00    -0.082 C 
ATOM     26  H   UNL     1      36.002 -25.694 -12.553  0.00  0.00    -0.084 HD
ATOM     27  H   UNL     1      34.395 -25.223 -12.404  0.00  0.00    -0.084 HD
ENDBRANCH  19  21
BRANCH  19  28
ATOM     28  O   UNL     1      36.305 -24.843 -15.712  0.00  0.00    -0.382 OA
ATOM     29  H   UNL     1      36.789 -25.665 -15.537  0.00  0.00    +0.211 HD
ENDBRANCH  19  28
ENDBRANCH   2  19
TORSDOF 5
ENDMDL
MODEL 5
REMARK VINA RESULT:      -9.5      1.859      3.894
REMARK  Name = 4046
REMARK  5 active torsions:
REMARK  status: ('A' for Active; 'I' for Inactive)
REMARK    1  A    between atoms: C_2  and  C_19
REMARK    2  A    between atoms: C_6  and  C_14
REMARK    3  A    between atoms: C_8  and  C_18
REMARK    4  A    between atoms: C_19  and  C_21
REMARK    5  A    between atoms: C_19  and  O_28
REMARK                            x       y       z     vdW  Elec       q    Type
REMARK                         _______ _______ _______ _____ _____    ______ ____
ROOT
ATOM      1  N   UNL     1      32.690 -10.051 -22.288  0.00  0.00    -0.402 NA
ATOM      2  C   UNL     1      32.815 -12.552 -23.471  0.00  0.00    -0.007 C 
ATOM      3  C   UNL     1      33.549 -11.497 -24.014  0.00  0.00    +0.095 C 
ATOM      4  C   UNL     1      32.027 -12.371 -22.353  0.00  0.00    +0.030 C 
ATOM      5  C   UNL     1      33.456 -10.240 -23.379  0.00  0.00    +0.120 C 
ATOM      6  C   UNL     1      31.998 -11.107 -21.800  0.00  0.00    +0.202 C 
ATOM      7  C   UNL     1      34.358 -11.658 -25.151  0.00  0.00    -0.015 C 
ATOM      8  C   UNL     1      34.184  -9.181 -23.913  0.00  0.00    +0.097 C 
ATOM      9  C   UNL     1      35.075 -10.581 -25.664  0.00  0.00    -0.004 C 
ATOM     10  C   UNL     1      34.988  -9.341 -25.044  0.00  0.00    +0.006 C 
ENDROOT
BRANCH   6  14
ATOM     11  F   UNL     1      29.843 -11.165 -20.765  0.00  0.00    -0.164 F 
ATOM     12  F   UNL     1      31.555 -11.566 -19.496  0.00  0.00    -0.164 F 
ATOM     13  F   UNL     1      31.180  -9.545 -20.205  0.00  0.00    -0.164 F 
ATOM     14  C   UNL     1      31.161 -10.853 -20.592  0.00  0.00    +0.446 C 
ENDBRANCH   6  14
BRANCH   8  18
ATOM     15  F   UNL     1      32.930  -7.191 -23.474  0.00  0.00    -0.166 F 
ATOM     16  F   UNL     1      34.302  -7.849 -21.929  0.00  0.00    -0.166 F 
ATOM     17  F   UNL     1      35.074  -6.981 -23.767  0.00  0.00    -0.166 F 
ATOM     18  C   UNL     1      34.122  -7.825 -23.280  0.00  0.00    +0.421 C 
ENDBRANCH   8  18
BRANCH   2  19
ATOM     19  C   UNL     1      32.846 -13.933 -24.078  0.00  0.00    +0.110 C 
BRANCH  19  21
ATOM     20  N   UNL     1      33.633 -15.169 -22.126  0.00  0.00    +0.387 N 
ATOM     21  C   UNL     1      33.974 -14.786 -23.501  0.00  0.00    -0.030 C 
ATOM     22  C   UNL     1      34.208 -16.029 -24.371  0.00  0.00    -0.019 C 
ATOM     23  C   UNL     1      35.277 -16.934 -23.765  0.00  0.00    -0.004 C 
ATOM     24  C   UNL     1      34.949 -17.251 -22.310  0.00  0.00    -0.023 C 
ATOM     25  C   UNL     1      34.687 -15.977 -21.512  0.00  0.00    -0.082 C 
ATOM     26  H   UNL     1      32.767 -15.709 -22.139  0.00  0.00    -0.084 HD
ATOM     27  H   UNL     1      33.523 -14.316 -21.576  0.00  0.00    -0.084 HD
ENDBRANCH  19  21
BRANCH  19  28
ATOM     28  O   UNL     1      33.008 -13.825 -25.490  0.00  0.00    -0.382 OA
ATOM     29  H   UNL     1      33.875 -14.178 -25.745  0.00  0.00    +0.211 HD
ENDBRANCH  19  28
ENDBRANCH   2  19
TORSDOF 5
ENDMDL
MODEL 6
REMARK VINA RESULT:      -9.4     10.514     13.768
REMARK  Name = 4046
REMARK  5 active torsions:
REMARK  status: ('A' for Active; 'I' for Inactive)
REMARK    1  A    between atoms: C_2  and  C_19
REMARK    2  A    between atoms: C_6  and  C_14
REMARK    3  A    between atoms: C_8  and  C_18
REMARK    4  A    between atoms: C_19  and  C_21
REMARK    5  A    between atoms: C_19  and  O_28
REMARK                            x       y       z     vdW  Elec       q    Type
REMARK                         _______ _______ _______ _____ _____    ______ ____
ROOT
ATOM      1  N   UNL     1      33.121 -22.165 -18.014  0.00  0.00    -0.402 NA
ATOM      2  C   UNL     1      35.459 -22.872 -16.707  0.00  0.00    -0.007 C 
ATOM      3  C   UNL     1      35.528 -22.150 -17.900  0.00  0.00    +0.095 C 
ATOM      4  C   UNL     1      34.243 -23.239 -16.166  0.00  0.00    +0.030 C 
ATOM      5  C   UNL     1      34.313 -21.813 -18.532  0.00  0.00    +0.120 C 
ATOM      6  C   UNL     1      33.108 -22.864 -16.855  0.00  0.00    +0.202 C 
ATOM      7  C   UNL     1      36.754 -21.766 -18.469  0.00  0.00    -0.015 C 
ATOM      8  C   UNL     1      34.371 -21.093 -19.723  0.00  0.00    +0.097 C 
ATOM      9  C   UNL     1      36.783 -21.048 -19.661  0.00  0.00    -0.004 C 
ATOM     10  C   UNL     1      35.590 -20.711 -20.288  0.00  0.00    +0.006 C 
ENDROOT
BRANCH   6  14
ATOM     11  F   UNL     1      31.533 -24.581 -16.318  0.00  0.00    -0.164 F 
ATOM     12  F   UNL     1      31.568 -22.841 -15.026  0.00  0.00    -0.164 F 
ATOM     13  F   UNL     1      30.744 -22.685 -17.032  0.00  0.00    -0.164 F 
ATOM     14  C   UNL     1      31.767 -23.236 -16.317  0.00  0.00    +0.446 C 
ENDBRANCH   6  14
BRANCH   8  18
ATOM     15  F   UNL     1      32.340 -21.776 -20.787  0.00  0.00    -0.166 F 
ATOM     16  F   UNL     1      32.298 -19.901 -19.699  0.00  0.00    -0.166 F 
ATOM     17  F   UNL     1      33.358 -20.032 -21.593  0.00  0.00    -0.166 F 
ATOM     18  C   UNL     1      33.112 -20.708 -20.436  0.00  0.00    +0.421 C 
ENDBRANCH   8  18
BRANCH   2  19
ATOM     19  C   UNL     1      36.702 -23.283 -15.957  0.00  0.00    +0.110 C 
BRANCH  19  21
ATOM     20  N   UNL     1      37.369 -25.518 -15.237  0.00  0.00    +0.387 N 
ATOM     21  C   UNL     1      36.427 -24.422 -14.978  0.00  0.00    -0.030 C 
ATOM     22  C   UNL     1      36.552 -23.929 -13.530  0.00  0.00    -0.019 C 
ATOM     23  C   UNL     1      36.360 -25.073 -12.537  0.00  0.00    -0.004 C 
ATOM     24  C   UNL     1      37.286 -26.236 -12.875  0.00  0.00    -0.023 C 
ATOM     25  C   UNL     1      37.144 -26.649 -14.338  0.00  0.00    -0.082 C 
ATOM     26  H   UNL     1      38.320 -25.174 -15.105  0.00  0.00    -0.084 HD
ATOM     27  H   UNL     1      37.227 -25.839 -16.195  0.00  0.00    -0.084 HD
ENDBRANCH  19  21
BRANCH  19  28
ATOM     28  O   UNL     1      37.217 -22.161 -15.246  0.00  0.00    -0.382 OA
ATOM     29  H   UNL     1      38.127 -22.344 -14.966  0.00  0.00    +0.211 HD
ENDBRANCH  19  28
ENDBRANCH   2  19
TORSDOF 5
ENDMDL
MODEL 7
REMARK VINA RESULT:      -9.1     11.961     14.940
REMARK  Name = 4046
REMARK  5 active torsions:
REMARK  status: ('A' for Active; 'I' for Inactive)
REMARK    1  A    between atoms: C_2  and  C_19
REMARK    2  A    between atoms: C_6  and  C_14
REMARK    3  A    between atoms: C_8  and  C_18
REMARK    4  A    between atoms: C_19  and  C_21
REMARK    5  A    between atoms: C_19  and  O_28
REMARK                            x       y       z     vdW  Elec       q    Type
REMARK                         _______ _______ _______ _____ _____    ______ ____
ROOT
ATOM      1  N   UNL     1      32.838 -22.996 -16.928  0.00  0.00    -0.402 NA
ATOM      2  C   UNL     1      34.260 -23.477 -14.600  0.00  0.00    -0.007 C 
ATOM      3  C   UNL     1      34.924 -22.975 -15.720  0.00  0.00    +0.095 C 
ATOM      4  C   UNL     1      32.905 -23.739 -14.632  0.00  0.00    +0.030 C 
ATOM      5  C   UNL     1      34.161 -22.745 -16.884  0.00  0.00    +0.120 C 
ATOM      6  C   UNL     1      32.242 -23.482 -15.815  0.00  0.00    +0.202 C 
ATOM      7  C   UNL     1      36.302 -22.702 -15.710  0.00  0.00    -0.015 C 
ATOM      8  C   UNL     1      34.813 -22.244 -18.007  0.00  0.00    +0.097 C 
ATOM      9  C   UNL     1      36.929 -22.202 -16.848  0.00  0.00    -0.004 C 
ATOM     10  C   UNL     1      36.184 -21.973 -17.997  0.00  0.00    +0.006 C 
ENDROOT
BRANCH   6  14
ATOM     11  F   UNL     1      30.474 -25.052 -16.177  0.00  0.00    -0.164 F 
ATOM     12  F   UNL     1      30.096 -23.454 -14.761  0.00  0.00    -0.164 F 
ATOM     13  F   UNL     1      30.172 -23.021 -16.890  0.00  0.00    -0.164 F 
ATOM     14  C   UNL     1      30.777 -23.748 -15.907  0.00  0.00    +0.446 C 
ENDBRANCH   6  14
BRANCH   8  18
ATOM     15  F   UNL     1      33.602 -23.117 -19.877  0.00  0.00    -0.166 F 
ATOM     16  F   UNL     1      32.946 -21.209 -19.085  0.00  0.00    -0.166 F 
ATOM     17  F   UNL     1      34.805 -21.336 -20.204  0.00  0.00    -0.166 F 
ATOM     18  C   UNL     1      34.053 -21.982 -19.270  0.00  0.00    +0.421 C 
ENDBRANCH   8  18
BRANCH   2  19
ATOM     19  C   UNL     1      34.987 -23.759 -13.308  0.00  0.00    +0.110 C 
BRANCH  19  21
ATOM     20  N   UNL     1      37.223 -23.949 -12.350  0.00  0.00    +0.387 N 
ATOM     21  C   UNL     1      36.422 -24.222 -13.549  0.00  0.00    -0.030 C 
ATOM     22  C   UNL     1      36.454 -25.717 -13.897  0.00  0.00    -0.019 C 
ATOM     23  C   UNL     1      37.888 -26.216 -14.062  0.00  0.00    -0.004 C 
ATOM     24  C   UNL     1      38.727 -25.847 -12.843  0.00  0.00    -0.023 C 
ATOM     25  C   UNL     1      38.617 -24.358 -12.526  0.00  0.00    -0.082 C 
ATOM     26  H   UNL     1      36.826 -24.462 -11.563  0.00  0.00    -0.084 HD
ATOM     27  H   UNL     1      37.205 -22.944 -12.177  0.00  0.00    -0.084 HD
ENDBRANCH  19  21
BRANCH  19  28
ATOM     28  O   UNL     1      34.282 -24.761 -12.579  0.00  0.00    -0.382 OA
ATOM     29  H   UNL     1      34.755 -25.605 -12.647  0.00  0.00    +0.211 HD
ENDBRANCH  19  28
ENDBRANCH   2  19
TORSDOF 5
ENDMDL
MODEL 8
REMARK VINA RESULT:      -9.1      3.448      7.437
REMARK  Name = 4046
REMARK  5 active torsions:
REMARK  status: ('A' for Active; 'I' for Inactive)
REMARK    1  A    between atoms: C_2  and  C_19
REMARK    2  A    between atoms: C_6  and  C_14
REMARK    3  A    between atoms: C_8  and  C_18
REMARK    4  A    between atoms: C_19  and  C_21
REMARK    5  A    between atoms: C_19  and  O_28
REMARK                            x       y       z     vdW  Elec       q    Type
REMARK                         _______ _______ _______ _____ _____    ______ ____
ROOT
ATOM      1  N   UNL     1      32.414 -11.560 -22.516  0.00  0.00    -0.402 NA
ATOM      2  C   UNL     1      33.221  -8.924 -22.792  0.00  0.00    -0.007 C 
ATOM      3  C   UNL     1      33.672  -9.881 -23.702  0.00  0.00    +0.095 C 
ATOM      4  C   UNL     1      32.378  -9.269 -21.754  0.00  0.00    +0.030 C 
ATOM      5  C   UNL     1      33.236 -11.210 -23.523  0.00  0.00    +0.120 C 
ATOM      6  C   UNL     1      32.005 -10.594 -21.660  0.00  0.00    +0.202 C 
ATOM      7  C   UNL     1      34.530  -9.552 -24.765  0.00  0.00    -0.015 C 
ATOM      8  C   UNL     1      33.681 -12.172 -24.426  0.00  0.00    +0.097 C 
ATOM      9  C   UNL     1      34.960 -10.534 -25.652  0.00  0.00    -0.004 C 
ATOM     10  C   UNL     1      34.535 -11.846 -25.483  0.00  0.00    +0.006 C 
ENDROOT
BRANCH   6  14
ATOM     11  F   UNL     1      30.848 -10.043 -19.641  0.00  0.00    -0.164 F 
ATOM     12  F   UNL     1      29.867 -11.429 -20.990  0.00  0.00    -0.164 F 
ATOM     13  F   UNL     1      31.598 -12.074 -19.844  0.00  0.00    -0.164 F 
ATOM     14  C   UNL     1      31.097 -11.024 -20.557  0.00  0.00    +0.446 C 
ENDBRANCH   6  14
BRANCH   8  18
ATOM     15  F   UNL     1      31.959 -13.737 -23.870  0.00  0.00    -0.166 F 
ATOM     16  F   UNL     1      33.335 -14.308 -25.445  0.00  0.00    -0.166 F 
ATOM     17  F   UNL     1      34.005 -14.281 -23.378  0.00  0.00    -0.166 F 
ATOM     18  C   UNL     1      33.251 -13.599 -24.284  0.00  0.00    +0.421 C 
ENDBRANCH   8  18
BRANCH   2  19
ATOM     19  C   UNL     1      33.631  -7.476 -22.895  0.00  0.00    +0.110 C 
BRANCH  19  21
ATOM     20  N   UNL     1      32.013  -5.736 -23.450  0.00  0.00    +0.387 N 
ATOM     21  C   UNL     1      32.901  -6.754 -24.025  0.00  0.00    -0.030 C 
ATOM     22  C   UNL     1      33.905  -6.116 -24.994  0.00  0.00    -0.019 C 
ATOM     23  C   UNL     1      33.193  -5.321 -26.085  0.00  0.00    -0.004 C 
ATOM     24  C   UNL     1      32.211  -4.328 -25.471  0.00  0.00    -0.023 C 
ATOM     25  C   UNL     1      31.270  -5.018 -24.487  0.00  0.00    -0.082 C 
ATOM     26  H   UNL     1      32.575  -5.067 -22.923  0.00  0.00    -0.084 HD
ATOM     27  H   UNL     1      31.341  -6.206 -22.844  0.00  0.00    -0.084 HD
ENDBRANCH  19  21
BRANCH  19  28
ATOM     28  O   UNL     1      35.038  -7.399 -23.115  0.00  0.00    -0.382 OA
ATOM     29  H   UNL     1      35.497  -7.352 -22.262  0.00  0.00    +0.211 HD
ENDBRANCH  19  28
ENDBRANCH   2  19
TORSDOF 5
ENDMDL
MODEL 9
REMARK VINA RESULT:      -9.0      4.077      7.275
REMARK  Name = 4046
REMARK  5 active torsions:
REMARK  status: ('A' for Active; 'I' for Inactive)
REMARK    1  A    between atoms: C_2  and  C_19
REMARK    2  A    between atoms: C_6  and  C_14
REMARK    3  A    between atoms: C_8  and  C_18
REMARK    4  A    between atoms: C_19  and  C_21
REMARK    5  A    between atoms: C_19  and  O_28
REMARK                            x       y       z     vdW  Elec       q    Type
REMARK                         _______ _______ _______ _____ _____    ______ ____
ROOT
ATOM      1  N   UNL     1      33.484 -15.450 -22.864  0.00  0.00    -0.402 NA
ATOM      2  C   UNL     1      32.461 -12.884 -23.080  0.00  0.00    -0.007 C 
ATOM      3  C   UNL     1      32.832 -13.577 -24.234  0.00  0.00    +0.095 C 
ATOM      4  C   UNL     1      32.595 -13.457 -21.831  0.00  0.00    +0.030 C 
ATOM      5  C   UNL     1      33.348 -14.880 -24.077  0.00  0.00    +0.120 C 
ATOM      6  C   UNL     1      33.110 -14.736 -21.776  0.00  0.00    +0.202 C 
ATOM      7  C   UNL     1      32.704 -13.014 -25.515  0.00  0.00    -0.015 C 
ATOM      8  C   UNL     1      33.721 -15.580 -25.221  0.00  0.00    +0.097 C 
ATOM      9  C   UNL     1      33.085 -13.736 -26.642  0.00  0.00    -0.004 C 
ATOM     10  C   UNL     1      33.594 -15.020 -26.495  0.00  0.00    +0.006 C 
ENDROOT
BRANCH   6  14
ATOM     11  F   UNL     1      33.026 -16.745 -20.481  0.00  0.00    -0.164 F 
ATOM     12  F   UNL     1      34.540 -15.289 -19.942  0.00  0.00    -0.164 F 
ATOM     13  F   UNL     1      32.449 -14.893 -19.498  0.00  0.00    -0.164 F 
ATOM     14  C   UNL     1      33.279 -15.403 -20.453  0.00  0.00    +0.446 C 
ENDBRANCH   6  14
BRANCH   8  18
ATOM     15  F   UNL     1      34.548 -17.342 -23.831  0.00  0.00    -0.166 F 
ATOM     16  F   UNL     1      33.438 -17.924 -25.601  0.00  0.00    -0.166 F 
ATOM     17  F   UNL     1      35.445 -17.111 -25.799  0.00  0.00    -0.166 F 
ATOM     18  C   UNL     1      34.276 -16.966 -25.114  0.00  0.00    +0.421 C 
ENDBRANCH   8  18
BRANCH   2  19
ATOM     19  C   UNL     1      31.900 -11.485 -23.142  0.00  0.00    +0.110 C 
BRANCH  19  21
ATOM     20  N   UNL     1      33.643 -10.114 -24.160  0.00  0.00    +0.387 N 
ATOM     21  C   UNL     1      32.974 -10.428 -22.892  0.00  0.00    -0.030 C 
ATOM     22  C   UNL     1      32.354  -9.166 -22.276  0.00  0.00    -0.019 C 
ATOM     23  C   UNL     1      33.399  -8.069 -22.095  0.00  0.00    -0.004 C 
ATOM     24  C   UNL     1      34.143  -7.816 -23.401  0.00  0.00    -0.023 C 
ATOM     25  C   UNL     1      34.697  -9.115 -23.982  0.00  0.00    -0.082 C 
ATOM     26  H   UNL     1      32.952  -9.752 -24.817  0.00  0.00    -0.084 HD
ATOM     27  H   UNL     1      34.071 -10.970 -24.514  0.00  0.00    -0.084 HD
ENDBRANCH  19  21
BRANCH  19  28
ATOM     28  O   UNL     1      30.866 -11.348 -22.170  0.00  0.00    -0.382 OA
ATOM     29  H   UNL     1      30.020 -11.189 -22.618  0.00  0.00    +0.211 HD
ENDBRANCH  19  28
ENDBRANCH   2  19
TORSDOF 5
ENDMDL
