MODEL 1
REMARK VINA RESULT:      -6.9      0.000      0.000
REMARK  Name = 16043
REMARK  3 active torsions:
REMARK  status: ('A' for Active; 'I' for Inactive)
REMARK    1  A    between atoms: C_1  and  C_7
REMARK    2  A    between atoms: C_2  and  O_11
REMARK    3  A    between atoms: C_4  and  O_13
REMARK                            x       y       z     vdW  Elec       q    Type
REMARK                         _______ _______ _______ _____ _____    ______ ____
ROOT
ATOM      1  C   UNL     1      34.802 -20.160 -20.532  0.00  0.00    +0.014 C 
ATOM      2  C   UNL     1      33.541 -20.646 -20.314  0.00  0.00    +0.130 C 
ATOM      3  C   UNL     1      35.921 -20.626 -19.895  0.00  0.00    +0.035 C 
ATOM      4  C   UNL     1      35.766 -21.658 -18.969  0.00  0.00    +0.134 C 
ATOM      5  C   UNL     1      33.387 -21.678 -19.387  0.00  0.00    +0.039 C 
ATOM      6  C   UNL     1      34.499 -22.183 -18.715  0.00  0.00    +0.040 C 
ENDROOT
BRANCH   1   7
ATOM      7  C   UNL     1      34.992 -19.015 -21.555  0.00  0.00    +0.022 C 
ATOM      8  C   UNL     1      36.475 -18.588 -21.593  0.00  0.00    +0.004 C 
ATOM      9  C   UNL     1      34.120 -17.805 -21.156  0.00  0.00    +0.004 C 
ATOM     10  C   UNL     1      34.594 -19.409 -22.994  0.00  0.00    +0.004 C 
ENDBRANCH   1   7
BRANCH   2  11
ATOM     11  O   UNL     1      32.444 -20.162 -20.961  0.00  0.00    -0.506 OA
ATOM     12  H   UNL     1      32.538 -19.741 -21.793  0.00  0.00    +0.292 HD
ENDBRANCH   2  11
BRANCH   4  13
ATOM     13  O   UNL     1      36.852 -22.153 -18.314  0.00  0.00    -0.506 OA
ATOM     14  H   UNL     1      37.588 -21.599 -18.144  0.00  0.00    +0.292 HD
ENDBRANCH   4  13
TORSDOF 3
ENDMDL
MODEL 2
REMARK VINA RESULT:      -6.7     10.204     12.097
REMARK  Name = 16043
REMARK  3 active torsions:
REMARK  status: ('A' for Active; 'I' for Inactive)
REMARK    1  A    between atoms: C_1  and  C_7
REMARK    2  A    between atoms: C_2  and  O_11
REMARK    3  A    between atoms: C_4  and  O_13
REMARK                            x       y       z     vdW  Elec       q    Type
REMARK                         _______ _______ _______ _____ _____    ______ ____
ROOT
ATOM      1  C   UNL     1      32.150  -8.678 -21.591  0.00  0.00    +0.014 C 
ATOM      2  C   UNL     1      32.412  -8.583 -20.252  0.00  0.00    +0.130 C 
ATOM      3  C   UNL     1      31.589  -9.776 -22.185  0.00  0.00    +0.035 C 
ATOM      4  C   UNL     1      31.264 -10.865 -21.374  0.00  0.00    +0.134 C 
ATOM      5  C   UNL     1      32.087  -9.671 -19.441  0.00  0.00    +0.039 C 
ATOM      6  C   UNL     1      31.514 -10.811 -20.003  0.00  0.00    +0.040 C 
ENDROOT
BRANCH   1   7
ATOM      7  C   UNL     1      32.504  -7.481 -22.506  0.00  0.00    +0.022 C 
ATOM      8  C   UNL     1      31.724  -7.587 -23.834  0.00  0.00    +0.004 C 
ATOM      9  C   UNL     1      34.020  -7.476 -22.801  0.00  0.00    +0.004 C 
ATOM     10  C   UNL     1      32.158  -6.111 -21.882  0.00  0.00    +0.004 C 
ENDBRANCH   1   7
BRANCH   2  11
ATOM     11  O   UNL     1      32.972  -7.476 -19.688  0.00  0.00    -0.506 OA
ATOM     12  H   UNL     1      33.734  -7.559 -19.148  0.00  0.00    +0.292 HD
ENDBRANCH   2  11
BRANCH   4  13
ATOM     13  O   UNL     1      30.703 -11.977 -21.921  0.00  0.00    -0.506 OA
ATOM     14  H   UNL     1      30.227 -11.914 -22.725  0.00  0.00    +0.292 HD
ENDBRANCH   4  13
TORSDOF 3
ENDMDL
MODEL 3
REMARK VINA RESULT:      -6.7      3.501      6.222
REMARK  Name = 16043
REMARK  3 active torsions:
REMARK  status: ('A' for Active; 'I' for Inactive)
REMARK    1  A    between atoms: C_1  and  C_7
REMARK    2  A    between atoms: C_2  and  O_11
REMARK    3  A    between atoms: C_4  and  O_13
REMARK                            x       y       z     vdW  Elec       q    Type
REMARK                         _______ _______ _______ _____ _____    ______ ____
ROOT
ATOM      1  C   UNL     1      34.636 -17.067 -23.286  0.00  0.00    +0.014 C 
ATOM      2  C   UNL     1      34.591 -16.027 -22.400  0.00  0.00    +0.130 C 
ATOM      3  C   UNL     1      34.320 -16.955 -24.613  0.00  0.00    +0.035 C 
ATOM      4  C   UNL     1      33.928 -15.703 -25.090  0.00  0.00    +0.134 C 
ATOM      5  C   UNL     1      34.200 -14.775 -22.876  0.00  0.00    +0.039 C 
ATOM      6  C   UNL     1      33.869 -14.614 -24.221  0.00  0.00    +0.040 C 
ENDROOT
BRANCH   1   7
ATOM      7  C   UNL     1      35.067 -18.463 -22.776  0.00  0.00    +0.022 C 
ATOM      8  C   UNL     1      36.510 -18.399 -22.230  0.00  0.00    +0.004 C 
ATOM      9  C   UNL     1      35.000 -19.487 -23.929  0.00  0.00    +0.004 C 
ATOM     10  C   UNL     1      34.172 -19.000 -21.637  0.00  0.00    +0.004 C 
ENDBRANCH   1   7
BRANCH   2  11
ATOM     11  O   UNL     1      34.911 -16.167 -21.082  0.00  0.00    -0.506 OA
ATOM     12  H   UNL     1      34.307 -16.576 -20.494  0.00  0.00    +0.292 HD
ENDBRANCH   2  11
BRANCH   4  13
ATOM     13  O   UNL     1      33.606 -15.545 -26.403  0.00  0.00    -0.506 OA
ATOM     14  H   UNL     1      33.089 -14.812 -26.672  0.00  0.00    +0.292 HD
ENDBRANCH   4  13
TORSDOF 3
ENDMDL
MODEL 4
REMARK VINA RESULT:      -6.6      4.481      6.436
REMARK  Name = 16043
REMARK  3 active torsions:
REMARK  status: ('A' for Active; 'I' for Inactive)
REMARK    1  A    between atoms: C_1  and  C_7
REMARK    2  A    between atoms: C_2  and  O_11
REMARK    3  A    between atoms: C_4  and  O_13
REMARK                            x       y       z     vdW  Elec       q    Type
REMARK                         _______ _______ _______ _____ _____    ______ ____
ROOT
ATOM      1  C   UNL     1      33.906 -15.829 -22.859  0.00  0.00    +0.014 C 
ATOM      2  C   UNL     1      34.626 -16.978 -22.677  0.00  0.00    +0.130 C 
ATOM      3  C   UNL     1      33.591 -15.311 -24.087  0.00  0.00    +0.035 C 
ATOM      4  C   UNL     1      34.029 -15.997 -25.220  0.00  0.00    +0.134 C 
ATOM      5  C   UNL     1      35.064 -17.664 -23.811  0.00  0.00    +0.039 C 
ATOM      6  C   UNL     1      34.766 -17.173 -25.081  0.00  0.00    +0.040 C 
ENDROOT
BRANCH   1   7
ATOM      7  C   UNL     1      33.413 -15.054 -21.614  0.00  0.00    +0.022 C 
ATOM      8  C   UNL     1      32.695 -13.760 -22.053  0.00  0.00    +0.004 C 
ATOM      9  C   UNL     1      34.612 -14.694 -20.711  0.00  0.00    +0.004 C 
ATOM     10  C   UNL     1      32.417 -15.858 -20.750  0.00  0.00    +0.004 C 
ENDBRANCH   1   7
BRANCH   2  11
ATOM     11  O   UNL     1      34.927 -17.471 -21.443  0.00  0.00    -0.506 OA
ATOM     12  H   UNL     1      34.256 -17.854 -20.915  0.00  0.00    +0.292 HD
ENDBRANCH   2  11
BRANCH   4  13
ATOM     13  O   UNL     1      33.736 -15.519 -26.460  0.00  0.00    -0.506 OA
ATOM     14  H   UNL     1      32.930 -15.065 -26.608  0.00  0.00    +0.292 HD
ENDBRANCH   4  13
TORSDOF 3
ENDMDL
MODEL 5
REMARK VINA RESULT:      -6.6      4.503      6.461
REMARK  Name = 16043
REMARK  3 active torsions:
REMARK  status: ('A' for Active; 'I' for Inactive)
REMARK    1  A    between atoms: C_1  and  C_7
REMARK    2  A    between atoms: C_2  and  O_11
REMARK    3  A    between atoms: C_4  and  O_13
REMARK                            x       y       z     vdW  Elec       q    Type
REMARK                         _______ _______ _______ _____ _____    ______ ____
ROOT
ATOM      1  C   UNL     1      33.912 -15.819 -22.877  0.00  0.00    +0.014 C 
ATOM      2  C   UNL     1      34.634 -16.968 -22.707  0.00  0.00    +0.130 C 
ATOM      3  C   UNL     1      33.575 -15.301 -24.099  0.00  0.00    +0.035 C 
ATOM      4  C   UNL     1      33.993 -15.988 -25.239  0.00  0.00    +0.134 C 
ATOM      5  C   UNL     1      35.052 -17.655 -23.848  0.00  0.00    +0.039 C 
ATOM      6  C   UNL     1      34.731 -17.164 -25.113  0.00  0.00    +0.040 C 
ENDROOT
BRANCH   1   7
ATOM      7  C   UNL     1      33.440 -15.044 -21.624  0.00  0.00    +0.022 C 
ATOM      8  C   UNL     1      32.403 -15.883 -20.847  0.00  0.00    +0.004 C 
ATOM      9  C   UNL     1      32.801 -13.703 -22.046  0.00  0.00    +0.004 C 
ATOM     10  C   UNL     1      34.586 -14.713 -20.643  0.00  0.00    +0.004 C 
ENDBRANCH   1   7
BRANCH   2  11
ATOM     11  O   UNL     1      34.956 -17.461 -21.478  0.00  0.00    -0.506 OA
ATOM     12  H   UNL     1      35.626 -18.110 -21.395  0.00  0.00    +0.292 HD
ENDBRANCH   2  11
BRANCH   4  13
ATOM     13  O   UNL     1      33.679 -15.511 -26.475  0.00  0.00    -0.506 OA
ATOM     14  H   UNL     1      33.485 -14.601 -26.589  0.00  0.00    +0.292 HD
ENDBRANCH   4  13
TORSDOF 3
ENDMDL
MODEL 6
REMARK VINA RESULT:      -6.5      1.517      2.706
REMARK  Name = 16043
REMARK  3 active torsions:
REMARK  status: ('A' for Active; 'I' for Inactive)
REMARK    1  A    between atoms: C_1  and  C_7
REMARK    2  A    between atoms: C_2  and  O_11
REMARK    3  A    between atoms: C_4  and  O_13
REMARK                            x       y       z     vdW  Elec       q    Type
REMARK                         _______ _______ _______ _____ _____    ______ ____
ROOT
ATOM      1  C   UNL     1      34.718 -20.068 -20.478  0.00  0.00    +0.014 C 
ATOM      2  C   UNL     1      36.006 -20.391 -20.153  0.00  0.00    +0.130 C 
ATOM      3  C   UNL     1      33.621 -20.746 -20.020  0.00  0.00    +0.035 C 
ATOM      4  C   UNL     1      33.830 -21.833 -19.170  0.00  0.00    +0.134 C 
ATOM      5  C   UNL     1      36.216 -21.478 -19.304  0.00  0.00    +0.039 C 
ATOM      6  C   UNL     1      35.128 -22.199 -18.813  0.00  0.00    +0.040 C 
ENDROOT
BRANCH   1   7
ATOM      7  C   UNL     1      34.466 -18.866 -21.419  0.00  0.00    +0.022 C 
ATOM      8  C   UNL     1      33.003 -18.392 -21.286  0.00  0.00    +0.004 C 
ATOM      9  C   UNL     1      34.740 -19.279 -22.882  0.00  0.00    +0.004 C 
ATOM     10  C   UNL     1      35.369 -17.650 -21.113  0.00  0.00    +0.004 C 
ENDBRANCH   1   7
BRANCH   2  11
ATOM     11  O   UNL     1      37.081 -19.698 -20.625  0.00  0.00    -0.506 OA
ATOM     12  H   UNL     1      37.811 -19.527 -20.063  0.00  0.00    +0.292 HD
ENDBRANCH   2  11
BRANCH   4  13
ATOM     13  O   UNL     1      32.768 -22.536 -18.689  0.00  0.00    -0.506 OA
ATOM     14  H   UNL     1      32.600 -23.402 -19.004  0.00  0.00    +0.292 HD
ENDBRANCH   4  13
TORSDOF 3
ENDMDL
MODEL 7
REMARK VINA RESULT:      -6.5      3.509      5.568
REMARK  Name = 16043
REMARK  3 active torsions:
REMARK  status: ('A' for Active; 'I' for Inactive)
REMARK    1  A    between atoms: C_1  and  C_7
REMARK    2  A    between atoms: C_2  and  O_11
REMARK    3  A    between atoms: C_4  and  O_13
REMARK                            x       y       z     vdW  Elec       q    Type
REMARK                         _______ _______ _______ _____ _____    ______ ____
ROOT
ATOM      1  C   UNL     1      34.436 -16.928 -22.014  0.00  0.00    +0.014 C 
ATOM      2  C   UNL     1      34.877 -16.024 -22.941  0.00  0.00    +0.130 C 
ATOM      3  C   UNL     1      33.611 -16.609 -20.969  0.00  0.00    +0.035 C 
ATOM      4  C   UNL     1      33.194 -15.283 -20.843  0.00  0.00    +0.134 C 
ATOM      5  C   UNL     1      34.460 -14.698 -22.816  0.00  0.00    +0.039 C 
ATOM      6  C   UNL     1      33.619 -14.329 -21.767  0.00  0.00    +0.040 C 
ENDROOT
BRANCH   1   7
ATOM      7  C   UNL     1      34.888 -18.402 -22.136  0.00  0.00    +0.022 C 
ATOM      8  C   UNL     1      34.046 -19.289 -21.194  0.00  0.00    +0.004 C 
ATOM      9  C   UNL     1      36.380 -18.526 -21.759  0.00  0.00    +0.004 C 
ATOM     10  C   UNL     1      34.730 -18.973 -23.562  0.00  0.00    +0.004 C 
ENDBRANCH   1   7
BRANCH   2  11
ATOM     11  O   UNL     1      35.699 -16.369 -23.972  0.00  0.00    -0.506 OA
ATOM     12  H   UNL     1      35.648 -17.226 -24.346  0.00  0.00    +0.292 HD
ENDBRANCH   2  11
BRANCH   4  13
ATOM     13  O   UNL     1      32.372 -14.922 -19.821  0.00  0.00    -0.506 OA
ATOM     14  H   UNL     1      31.998 -15.579 -19.267  0.00  0.00    +0.292 HD
ENDBRANCH   4  13
TORSDOF 3
ENDMDL
MODEL 8
REMARK VINA RESULT:      -6.4      2.584      4.324
REMARK  Name = 16043
REMARK  3 active torsions:
REMARK  status: ('A' for Active; 'I' for Inactive)
REMARK    1  A    between atoms: C_1  and  C_7
REMARK    2  A    between atoms: C_2  and  O_11
REMARK    3  A    between atoms: C_4  and  O_13
REMARK                            x       y       z     vdW  Elec       q    Type
REMARK                         _______ _______ _______ _____ _____    ______ ____
ROOT
ATOM      1  C   UNL     1      34.192 -16.984 -21.809  0.00  0.00    +0.014 C 
ATOM      2  C   UNL     1      35.150 -17.115 -22.776  0.00  0.00    +0.130 C 
ATOM      3  C   UNL     1      33.704 -18.028 -21.069  0.00  0.00    +0.035 C 
ATOM      4  C   UNL     1      34.218 -19.302 -21.316  0.00  0.00    +0.134 C 
ATOM      5  C   UNL     1      35.663 -18.389 -23.022  0.00  0.00    +0.039 C 
ATOM      6  C   UNL     1      35.196 -19.482 -22.293  0.00  0.00    +0.040 C 
ENDROOT
BRANCH   1   7
ATOM      7  C   UNL     1      33.610 -15.579 -21.522  0.00  0.00    +0.022 C 
ATOM      8  C   UNL     1      34.655 -14.722 -20.776  0.00  0.00    +0.004 C 
ATOM      9  C   UNL     1      32.338 -15.705 -20.656  0.00  0.00    +0.004 C 
ATOM     10  C   UNL     1      33.216 -14.808 -22.801  0.00  0.00    +0.004 C 
ENDBRANCH   1   7
BRANCH   2  11
ATOM     11  O   UNL     1      35.617 -16.058 -23.499  0.00  0.00    -0.506 OA
ATOM     12  H   UNL     1      35.964 -15.307 -23.060  0.00  0.00    +0.292 HD
ENDBRANCH   2  11
BRANCH   4  13
ATOM     13  O   UNL     1      33.764 -20.368 -20.602  0.00  0.00    -0.506 OA
ATOM     14  H   UNL     1      34.265 -21.159 -20.574  0.00  0.00    +0.292 HD
ENDBRANCH   4  13
TORSDOF 3
ENDMDL
MODEL 9
REMARK VINA RESULT:      -6.3      4.780      6.811
REMARK  Name = 16043
REMARK  3 active torsions:
REMARK  status: ('A' for Active; 'I' for Inactive)
REMARK    1  A    between atoms: C_1  and  C_7
REMARK    2  A    between atoms: C_2  and  O_11
REMARK    3  A    between atoms: C_4  and  O_13
REMARK                            x       y       z     vdW  Elec       q    Type
REMARK                         _______ _______ _______ _____ _____    ______ ____
ROOT
ATOM      1  C   UNL     1      33.705 -15.496 -22.905  0.00  0.00    +0.014 C 
ATOM      2  C   UNL     1      33.016 -14.400 -23.343  0.00  0.00    +0.130 C 
ATOM      3  C   UNL     1      34.300 -16.408 -23.736  0.00  0.00    +0.035 C 
ATOM      4  C   UNL     1      34.197 -16.205 -25.112  0.00  0.00    +0.134 C 
ATOM      5  C   UNL     1      32.913 -14.197 -24.720  0.00  0.00    +0.039 C 
ATOM      6  C   UNL     1      33.503 -15.099 -25.604  0.00  0.00    +0.040 C 
ENDROOT
BRANCH   1   7
ATOM      7  C   UNL     1      33.830 -15.738 -21.382  0.00  0.00    +0.022 C 
ATOM      8  C   UNL     1      34.605 -14.574 -20.728  0.00  0.00    +0.004 C 
ATOM      9  C   UNL     1      34.578 -17.063 -21.120  0.00  0.00    +0.004 C 
ATOM     10  C   UNL     1      32.465 -15.837 -20.665  0.00  0.00    +0.004 C 
ENDBRANCH   1   7
BRANCH   2  11
ATOM     11  O   UNL     1      32.432 -13.508 -22.493  0.00  0.00    -0.506 OA
ATOM     12  H   UNL     1      32.566 -12.589 -22.614  0.00  0.00    +0.292 HD
ENDBRANCH   2  11
BRANCH   4  13
ATOM     13  O   UNL     1      34.774 -17.085 -25.975  0.00  0.00    -0.506 OA
ATOM     14  H   UNL     1      35.366 -16.775 -26.633  0.00  0.00    +0.292 HD
ENDBRANCH   4  13
TORSDOF 3
ENDMDL
