MODEL 1
REMARK VINA RESULT:      -7.0      0.000      0.000
REMARK  Name = 4054
REMARK  1 active torsions:
REMARK  status: ('A' for Active; 'I' for Inactive)
REMARK    1  A    between atoms: C_3  and  N_13
REMARK                            x       y       z     vdW  Elec       q    Type
REMARK                         _______ _______ _______ _____ _____    ______ ____
ROOT
ATOM      1  C   UNL     1      31.713  -6.481 -23.282  0.00  0.00    -0.002 C 
ATOM      2  C   UNL     1      33.712  -8.042 -23.504  0.00  0.00    -0.002 C 
ATOM      3  C   UNL     1      32.689  -7.601 -21.223  0.00  0.00    -0.049 C 
ATOM      4  C   UNL     1      31.430  -8.972 -22.927  0.00  0.00    -0.002 C 
ATOM      5  C   UNL     1      33.034  -6.759 -24.037  0.00  0.00    -0.000 C 
ATOM      6  C   UNL     1      32.025  -6.321 -21.775  0.00  0.00    -0.020 C 
ATOM      7  C   UNL     1      34.000  -7.862 -21.996  0.00  0.00    -0.020 C 
ATOM      8  C   UNL     1      30.771  -7.692 -23.468  0.00  0.00    -0.000 C 
ATOM      9  C   UNL     1      32.741  -9.230 -23.687  0.00  0.00    -0.000 C 
ATOM     10  C   UNL     1      31.734  -8.794 -21.430  0.00  0.00    -0.020 C 
ATOM     11  C   UNL     1      31.051  -5.209 -23.824  0.00  0.00    -0.000 C 
ATOM     12  C   UNL     1      35.017  -8.305 -24.264  0.00  0.00    -0.000 C 
ENDROOT
BRANCH   3  13
ATOM     13  N   UNL     1      32.980  -7.447 -19.799  0.00  0.00    +0.383 N 
ATOM     14  H   UNL     1      33.906  -7.034 -19.683  0.00  0.00    -0.089 HD
ATOM     15  H   UNL     1      32.957  -8.361 -19.346  0.00  0.00    -0.089 HD
ATOM     16  H   UNL     1      32.281  -6.840 -19.372  0.00  0.00    -0.089 HD
ENDBRANCH   3  13
TORSDOF 1
ENDMDL
MODEL 2
REMARK VINA RESULT:      -6.6      0.767      2.769
REMARK  Name = 4054
REMARK  1 active torsions:
REMARK  status: ('A' for Active; 'I' for Inactive)
REMARK    1  A    between atoms: C_3  and  N_13
REMARK                            x       y       z     vdW  Elec       q    Type
REMARK                         _______ _______ _______ _____ _____    ______ ____
ROOT
ATOM      1  C   UNL     1      33.614  -8.051 -23.258  0.00  0.00    -0.002 C 
ATOM      2  C   UNL     1      31.676  -9.469 -22.413  0.00  0.00    -0.002 C 
ATOM      3  C   UNL     1      32.610  -7.600 -20.971  0.00  0.00    -0.049 C 
ATOM      4  C   UNL     1      31.299  -7.049 -23.055  0.00  0.00    -0.002 C 
ATOM      5  C   UNL     1      32.984  -9.463 -23.235  0.00  0.00    -0.000 C 
ATOM      6  C   UNL     1      33.910  -7.616 -21.803  0.00  0.00    -0.020 C 
ATOM      7  C   UNL     1      31.994  -9.017 -20.969  0.00  0.00    -0.020 C 
ATOM      8  C   UNL     1      32.598  -7.064 -23.875  0.00  0.00    -0.000 C 
ATOM      9  C   UNL     1      30.689  -8.460 -23.042  0.00  0.00    -0.000 C 
ATOM     10  C   UNL     1      31.611  -6.616 -21.613  0.00  0.00    -0.020 C 
ATOM     11  C   UNL     1      34.908  -8.061 -24.080  0.00  0.00    -0.000 C 
ATOM     12  C   UNL     1      31.062 -10.873 -22.404  0.00  0.00    -0.000 C 
ENDROOT
BRANCH   3  13
ATOM     13  N   UNL     1      32.891  -7.185 -19.597  0.00  0.00    +0.383 N 
ATOM     14  H   UNL     1      32.923  -6.167 -19.548  0.00  0.00    -0.089 HD
ATOM     15  H   UNL     1      33.790  -7.568 -19.303  0.00  0.00    -0.089 HD
ATOM     16  H   UNL     1      32.157  -7.532 -18.980  0.00  0.00    -0.089 HD
ENDBRANCH   3  13
TORSDOF 1
ENDMDL
MODEL 3
REMARK VINA RESULT:      -6.5      0.647      2.982
REMARK  Name = 4054
REMARK  1 active torsions:
REMARK  status: ('A' for Active; 'I' for Inactive)
REMARK    1  A    between atoms: C_3  and  N_13
REMARK                            x       y       z     vdW  Elec       q    Type
REMARK                         _______ _______ _______ _____ _____    ______ ____
ROOT
ATOM      1  C   UNL     1      31.822  -9.286 -22.573  0.00  0.00    -0.002 C 
ATOM      2  C   UNL     1      31.771  -6.846 -23.297  0.00  0.00    -0.002 C 
ATOM      3  C   UNL     1      32.787  -7.489 -21.062  0.00  0.00    -0.049 C 
ATOM      4  C   UNL     1      33.967  -8.101 -23.206  0.00  0.00    -0.002 C 
ATOM      5  C   UNL     1      31.021  -8.198 -23.325  0.00  0.00    -0.000 C 
ATOM      6  C   UNL     1      32.025  -8.831 -21.108  0.00  0.00    -0.020 C 
ATOM      7  C   UNL     1      31.974  -6.421 -21.824  0.00  0.00    -0.020 C 
ATOM      8  C   UNL     1      33.207  -9.436 -23.243  0.00  0.00    -0.000 C 
ATOM      9  C   UNL     1      33.156  -7.032 -23.956  0.00  0.00    -0.000 C 
ATOM     10  C   UNL     1      34.159  -7.664 -21.745  0.00  0.00    -0.020 C 
ATOM     11  C   UNL     1      31.069 -10.621 -22.613  0.00  0.00    -0.000 C 
ATOM     12  C   UNL     1      30.967  -5.780 -24.049  0.00  0.00    -0.000 C 
ENDROOT
BRANCH   3  13
ATOM     13  N   UNL     1      32.980  -7.063 -19.676  0.00  0.00    +0.383 N 
ATOM     14  H   UNL     1      32.235  -6.419 -19.411  0.00  0.00    -0.089 HD
ATOM     15  H   UNL     1      33.882  -6.595 -19.586  0.00  0.00    -0.089 HD
ATOM     16  H   UNL     1      32.959  -7.879 -19.064  0.00  0.00    -0.089 HD
ENDBRANCH   3  13
TORSDOF 1
ENDMDL
MODEL 4
REMARK VINA RESULT:      -6.4      1.456      3.075
REMARK  Name = 4054
REMARK  1 active torsions:
REMARK  status: ('A' for Active; 'I' for Inactive)
REMARK    1  A    between atoms: C_3  and  N_13
REMARK                            x       y       z     vdW  Elec       q    Type
REMARK                         _______ _______ _______ _____ _____    ______ ____
ROOT
ATOM      1  C   UNL     1      32.549  -7.402 -21.438  0.00  0.00    -0.002 C 
ATOM      2  C   UNL     1      31.788  -6.463 -23.679  0.00  0.00    -0.002 C 
ATOM      3  C   UNL     1      33.754  -8.066 -23.571  0.00  0.00    -0.049 C 
ATOM      4  C   UNL     1      31.416  -8.906 -23.130  0.00  0.00    -0.002 C 
ATOM      5  C   UNL     1      31.967  -6.171 -22.171  0.00  0.00    -0.000 C 
ATOM      6  C   UNL     1      33.917  -7.756 -22.068  0.00  0.00    -0.020 C 
ATOM      7  C   UNL     1      33.165  -6.828 -24.281  0.00  0.00    -0.020 C 
ATOM      8  C   UNL     1      31.588  -8.597 -21.634  0.00  0.00    -0.000 C 
ATOM      9  C   UNL     1      30.839  -7.672 -23.842  0.00  0.00    -0.000 C 
ATOM     10  C   UNL     1      32.784  -9.253 -23.739  0.00  0.00    -0.020 C 
ATOM     11  C   UNL     1      32.716  -7.099 -19.945  0.00  0.00    -0.000 C 
ATOM     12  C   UNL     1      31.208  -5.236 -24.390  0.00  0.00    -0.000 C 
ENDROOT
BRANCH   3  13
ATOM     13  N   UNL     1      35.047  -8.403 -24.164  0.00  0.00    +0.383 N 
ATOM     14  H   UNL     1      35.683  -7.611 -24.066  0.00  0.00    -0.089 HD
ATOM     15  H   UNL     1      34.923  -8.619 -25.153  0.00  0.00    -0.089 HD
ATOM     16  H   UNL     1      35.439  -9.215 -23.686  0.00  0.00    -0.089 HD
ENDBRANCH   3  13
TORSDOF 1
ENDMDL
MODEL 5
REMARK VINA RESULT:      -6.4     18.595     19.835
REMARK  Name = 4054
REMARK  1 active torsions:
REMARK  status: ('A' for Active; 'I' for Inactive)
REMARK    1  A    between atoms: C_3  and  N_13
REMARK                            x       y       z     vdW  Elec       q    Type
REMARK                         _______ _______ _______ _____ _____    ______ ____
ROOT
ATOM      1  C   UNL     1      37.063 -23.698 -14.981  0.00  0.00    -0.002 C 
ATOM      2  C   UNL     1      38.926 -25.308 -14.332  0.00  0.00    -0.002 C 
ATOM      3  C   UNL     1      37.464 -24.264 -12.539  0.00  0.00    -0.049 C 
ATOM      4  C   UNL     1      36.503 -26.002 -14.095  0.00  0.00    -0.002 C 
ATOM      5  C   UNL     1      38.491 -24.193 -15.311  0.00  0.00    -0.000 C 
ATOM      6  C   UNL     1      37.047 -23.157 -13.532  0.00  0.00    -0.020 C 
ATOM      7  C   UNL     1      38.887 -24.748 -12.892  0.00  0.00    -0.020 C 
ATOM      8  C   UNL     1      36.089 -24.894 -15.077  0.00  0.00    -0.000 C 
ATOM      9  C   UNL     1      37.924 -26.480 -14.437  0.00  0.00    -0.000 C 
ATOM     10  C   UNL     1      36.483 -25.447 -12.662  0.00  0.00    -0.020 C 
ATOM     11  C   UNL     1      36.645 -22.597 -15.962  0.00  0.00    -0.000 C 
ATOM     12  C   UNL     1      40.340 -25.790 -14.674  0.00  0.00    -0.000 C 
ENDROOT
BRANCH   3  13
ATOM     13  N   UNL     1      37.445 -23.751 -11.170  0.00  0.00    +0.383 N 
ATOM     14  H   UNL     1      36.696 -24.204 -10.647  0.00  0.00    -0.089 HD
ATOM     15  H   UNL     1      37.286 -22.743 -11.186  0.00  0.00    -0.089 HD
ATOM     16  H   UNL     1      38.340 -23.945 -10.722  0.00  0.00    -0.089 HD
ENDBRANCH   3  13
TORSDOF 1
ENDMDL
MODEL 6
REMARK VINA RESULT:      -6.3      1.562      3.208
REMARK  Name = 4054
REMARK  1 active torsions:
REMARK  status: ('A' for Active; 'I' for Inactive)
REMARK    1  A    between atoms: C_3  and  N_13
REMARK                            x       y       z     vdW  Elec       q    Type
REMARK                         _______ _______ _______ _____ _____    ______ ____
ROOT
ATOM      1  C   UNL     1      33.591  -7.605 -23.653  0.00  0.00    -0.002 C 
ATOM      2  C   UNL     1      32.433  -7.381 -21.396  0.00  0.00    -0.002 C 
ATOM      3  C   UNL     1      31.452  -6.253 -23.448  0.00  0.00    -0.049 C 
ATOM      4  C   UNL     1      31.380  -8.766 -23.235  0.00  0.00    -0.002 C 
ATOM      5  C   UNL     1      33.793  -7.482 -22.124  0.00  0.00    -0.000 C 
ATOM      6  C   UNL     1      32.821  -6.360 -24.154  0.00  0.00    -0.020 C 
ATOM      7  C   UNL     1      31.678  -6.139 -21.924  0.00  0.00    -0.020 C 
ATOM      8  C   UNL     1      32.742  -8.864 -23.942  0.00  0.00    -0.000 C 
ATOM      9  C   UNL     1      31.601  -8.643 -21.719  0.00  0.00    -0.000 C 
ATOM     10  C   UNL     1      30.631  -7.523 -23.744  0.00  0.00    -0.020 C 
ATOM     11  C   UNL     1      34.947  -7.709 -24.359  0.00  0.00    -0.000 C 
ATOM     12  C   UNL     1      32.650  -7.264 -19.883  0.00  0.00    -0.000 C 
ENDROOT
BRANCH   3  13
ATOM     13  N   UNL     1      30.726  -5.077 -23.925  0.00  0.00    +0.383 N 
ATOM     14  H   UNL     1      29.816  -5.029 -23.467  0.00  0.00    -0.089 HD
ATOM     15  H   UNL     1      30.595  -5.144 -24.935  0.00  0.00    -0.089 HD
ATOM     16  H   UNL     1      31.261  -4.235 -23.708  0.00  0.00    -0.089 HD
ENDBRANCH   3  13
TORSDOF 1
ENDMDL
MODEL 7
REMARK VINA RESULT:      -6.2     18.245     19.777
REMARK  Name = 4054
REMARK  1 active torsions:
REMARK  status: ('A' for Active; 'I' for Inactive)
REMARK    1  A    between atoms: C_3  and  N_13
REMARK                            x       y       z     vdW  Elec       q    Type
REMARK                         _______ _______ _______ _____ _____    ______ ____
ROOT
ATOM      1  C   UNL     1      35.215 -24.136 -14.658  0.00  0.00    -0.002 C 
ATOM      2  C   UNL     1      36.146 -24.302 -12.294  0.00  0.00    -0.002 C 
ATOM      3  C   UNL     1      37.132 -25.721 -14.153  0.00  0.00    -0.049 C 
ATOM      4  C   UNL     1      37.519 -23.228 -14.130  0.00  0.00    -0.002 C 
ATOM      5  C   UNL     1      34.875 -24.097 -13.150  0.00  0.00    -0.000 C 
ATOM      6  C   UNL     1      35.852 -25.507 -14.988  0.00  0.00    -0.020 C 
ATOM      7  C   UNL     1      36.771 -25.670 -12.653  0.00  0.00    -0.020 C 
ATOM      8  C   UNL     1      36.243 -23.024 -14.964  0.00  0.00    -0.000 C 
ATOM      9  C   UNL     1      37.161 -23.188 -12.636  0.00  0.00    -0.000 C 
ATOM     10  C   UNL     1      38.136 -24.594 -14.470  0.00  0.00    -0.020 C 
ATOM     11  C   UNL     1      33.947 -23.927 -15.492  0.00  0.00    -0.000 C 
ATOM     12  C   UNL     1      35.793 -24.256 -10.803  0.00  0.00    -0.000 C 
ENDROOT
BRANCH   3  13
ATOM     13  N   UNL     1      37.733 -27.016 -14.470  0.00  0.00    +0.383 N 
ATOM     14  H   UNL     1      38.707 -26.883 -14.744  0.00  0.00    -0.089 HD
ATOM     15  H   UNL     1      37.221 -27.451 -15.237  0.00  0.00    -0.089 HD
ATOM     16  H   UNL     1      37.691 -27.620 -13.649  0.00  0.00    -0.089 HD
ENDBRANCH   3  13
TORSDOF 1
ENDMDL
MODEL 8
REMARK VINA RESULT:      -6.2      1.291      3.371
REMARK  Name = 4054
REMARK  1 active torsions:
REMARK  status: ('A' for Active; 'I' for Inactive)
REMARK    1  A    between atoms: C_3  and  N_13
REMARK                            x       y       z     vdW  Elec       q    Type
REMARK                         _______ _______ _______ _____ _____    ______ ____
ROOT
ATOM      1  C   UNL     1      33.787  -8.198 -23.532  0.00  0.00    -0.002 C 
ATOM      2  C   UNL     1      31.738  -6.687 -23.500  0.00  0.00    -0.002 C 
ATOM      3  C   UNL     1      31.581  -9.064 -22.623  0.00  0.00    -0.049 C 
ATOM      4  C   UNL     1      32.881  -7.328 -21.334  0.00  0.00    -0.002 C 
ATOM      5  C   UNL     1      33.021  -7.076 -24.270  0.00  0.00    -0.000 C 
ATOM      6  C   UNL     1      32.861  -9.431 -23.404  0.00  0.00    -0.020 C 
ATOM      7  C   UNL     1      30.837  -7.937 -23.373  0.00  0.00    -0.020 C 
ATOM      8  C   UNL     1      34.152  -7.701 -22.115  0.00  0.00    -0.000 C 
ATOM      9  C   UNL     1      32.133  -6.213 -22.083  0.00  0.00    -0.000 C 
ATOM     10  C   UNL     1      31.973  -8.563 -21.218  0.00  0.00    -0.020 C 
ATOM     11  C   UNL     1      35.057  -8.569 -24.305  0.00  0.00    -0.000 C 
ATOM     12  C   UNL     1      30.993  -5.572 -24.242  0.00  0.00    -0.000 C 
ENDROOT
BRANCH   3  13
ATOM     13  N   UNL     1      30.709 -10.231 -22.501  0.00  0.00    +0.383 N 
ATOM     14  H   UNL     1      29.734  -9.930 -22.501  0.00  0.00    -0.089 HD
ATOM     15  H   UNL     1      30.913 -10.720 -21.629  0.00  0.00    -0.089 HD
ATOM     16  H   UNL     1      30.870 -10.860 -23.287  0.00  0.00    -0.089 HD
ENDBRANCH   3  13
TORSDOF 1
ENDMDL
MODEL 9
REMARK VINA RESULT:      -6.1     18.509     19.882
REMARK  Name = 4054
REMARK  1 active torsions:
REMARK  status: ('A' for Active; 'I' for Inactive)
REMARK    1  A    between atoms: C_3  and  N_13
REMARK                            x       y       z     vdW  Elec       q    Type
REMARK                         _______ _______ _______ _____ _____    ______ ____
ROOT
ATOM      1  C   UNL     1      37.138 -24.002 -12.629  0.00  0.00    -0.002 C 
ATOM      2  C   UNL     1      37.433 -23.620 -15.129  0.00  0.00    -0.002 C 
ATOM      3  C   UNL     1      38.741 -25.453 -13.959  0.00  0.00    -0.049 C 
ATOM      4  C   UNL     1      36.252 -25.695 -14.289  0.00  0.00    -0.002 C 
ATOM      5  C   UNL     1      37.185 -22.947 -13.759  0.00  0.00    -0.000 C 
ATOM      6  C   UNL     1      38.486 -24.762 -12.602  0.00  0.00    -0.020 C 
ATOM      7  C   UNL     1      38.776 -24.383 -15.072  0.00  0.00    -0.020 C 
ATOM      8  C   UNL     1      36.006 -25.008 -12.935  0.00  0.00    -0.000 C 
ATOM      9  C   UNL     1      36.296 -24.632 -15.398  0.00  0.00    -0.000 C 
ATOM     10  C   UNL     1      37.594 -26.443 -14.244  0.00  0.00    -0.020 C 
ATOM     11  C   UNL     1      36.888 -23.320 -11.279  0.00  0.00    -0.000 C 
ATOM     12  C   UNL     1      37.472 -22.563 -16.238  0.00  0.00    -0.000 C 
ENDROOT
BRANCH   3  13
ATOM     13  N   UNL     1      40.014 -26.173 -13.930  0.00  0.00    +0.383 N 
ATOM     14  H   UNL     1      39.839 -27.169 -13.800  0.00  0.00    -0.089 HD
ATOM     15  H   UNL     1      40.584 -25.825 -13.159  0.00  0.00    -0.089 HD
ATOM     16  H   UNL     1      40.507 -26.026 -14.810  0.00  0.00    -0.089 HD
ENDBRANCH   3  13
TORSDOF 1
ENDMDL
