MODEL 1
REMARK VINA RESULT:     -10.7      0.000      0.000
REMARK  Name = 5489638
REMARK  7 active torsions:
REMARK  status: ('A' for Active; 'I' for Inactive)
REMARK    1  A    between atoms: C_1  and  N_2
REMARK    2  A    between atoms: C_1  and  C_16
REMARK    3  A    between atoms: N_2  and  C_5
REMARK    4  A    between atoms: C_5  and  C_7
REMARK    5  A    between atoms: C_7  and  C_8
REMARK    6  A    between atoms: C_7  and  O_14
REMARK    7  A    between atoms: C_16  and  N_19
REMARK                            x       y       z     vdW  Elec       q    Type
REMARK                         _______ _______ _______ _____ _____    ______ ____
ROOT
ATOM      1  C   UNL     1      35.907 -21.628 -19.573  0.00  0.00    -0.064 C 
ENDROOT
BRANCH   1   2
ATOM      2  N   UNL     1      36.096 -20.209 -19.849  0.00  0.00    +0.388 N 
ATOM      3  H   UNL     1      35.796 -19.667 -19.039  0.00  0.00    -0.084 HD
ATOM      4  H   UNL     1      37.084 -20.044 -20.043  0.00  0.00    -0.084 HD
BRANCH   2   5
ATOM      5  C   UNL     1      35.319 -19.798 -21.011  0.00  0.00    -0.030 C 
ATOM      6  C   UNL     1      33.841 -19.810 -20.619  0.00  0.00    -0.021 C 
BRANCH   5   7
ATOM      7  C   UNL     1      35.797 -18.408 -21.488  0.00  0.00    +0.113 C 
BRANCH   7   8
ATOM      8  C   UNL     1      35.251 -18.010 -22.843  0.00  0.00    +0.002 C 
ATOM      9  C   UNL     1      35.036 -16.669 -23.116  0.00  0.00    -0.002 C 
ATOM     10  C   UNL     1      34.980 -18.993 -23.778  0.00  0.00    -0.002 C 
ATOM     11  C   UNL     1      34.532 -16.302 -24.364  0.00  0.00    -0.000 C 
ATOM     12  C   UNL     1      34.476 -18.625 -25.026  0.00  0.00    -0.000 C 
ATOM     13  C   UNL     1      34.253 -17.280 -25.319  0.00  0.00    -0.000 C 
ENDBRANCH   7   8
BRANCH   7  14
ATOM     14  O   UNL     1      35.377 -17.402 -20.563  0.00  0.00    -0.382 OA
ATOM     15  H   UNL     1      34.620 -17.729 -20.050  0.00  0.00    +0.211 HD
ENDBRANCH   7  14
ENDBRANCH   5   7
ENDBRANCH   2   5
ENDBRANCH   1   2
BRANCH   1  16
ATOM     16  C   UNL     1      36.357 -21.950 -18.151  0.00  0.00    +0.051 C 
BRANCH  16  19
ATOM     17  O   UNL     1      37.534 -22.457 -15.390  0.00  0.00    -0.272 OA
ATOM     18  O   UNL     1      34.496 -24.405 -12.390  0.00  0.00    -0.252 OA
ATOM     19  N   UNL     1      35.296 -22.543 -17.371  0.00  0.00    -0.242 NA
ATOM     20  N   UNL     1      33.764 -23.946 -14.551  0.00  0.00    -0.228 N 
ATOM     21  N   UNL     1      36.031 -23.432 -13.869  0.00  0.00    -0.211 N 
ATOM     22  N   UNL     1      33.275 -23.352 -16.889  0.00  0.00    -0.240 NA
ATOM     23  C   UNL     1      35.347 -22.944 -16.068  0.00  0.00    +0.192 C 
ATOM     24  C   UNL     1      34.098 -23.436 -15.798  0.00  0.00    +0.136 C 
ATOM     25  C   UNL     1      34.028 -22.808 -17.822  0.00  0.00    +0.203 C 
ATOM     26  C   UNL     1      36.420 -22.900 -15.128  0.00  0.00    +0.254 C 
ATOM     27  C   UNL     1      34.736 -23.963 -13.520  0.00  0.00    +0.318 C 
ATOM     28  C   UNL     1      32.421 -24.458 -14.312  0.00  0.00    +0.123 C 
ATOM     29  C   UNL     1      37.046 -23.441 -12.822  0.00  0.00    +0.124 C 
ENDBRANCH  16  19
ENDBRANCH   1  16
TORSDOF 7
ENDMDL
MODEL 2
REMARK VINA RESULT:     -10.5      1.109      2.414
REMARK  Name = 5489638
REMARK  7 active torsions:
REMARK  status: ('A' for Active; 'I' for Inactive)
REMARK    1  A    between atoms: C_1  and  N_2
REMARK    2  A    between atoms: C_1  and  C_16
REMARK    3  A    between atoms: N_2  and  C_5
REMARK    4  A    between atoms: C_5  and  C_7
REMARK    5  A    between atoms: C_7  and  C_8
REMARK    6  A    between atoms: C_7  and  O_14
REMARK    7  A    between atoms: C_16  and  N_19
REMARK                            x       y       z     vdW  Elec       q    Type
REMARK                         _______ _______ _______ _____ _____    ______ ____
ROOT
ATOM      1  C   UNL     1      35.764 -21.798 -19.649  0.00  0.00    -0.064 C 
ENDROOT
BRANCH   1   2
ATOM      2  N   UNL     1      35.723 -20.344 -19.744  0.00  0.00    +0.388 N 
ATOM      3  H   UNL     1      35.187 -19.972 -18.960  0.00  0.00    -0.084 HD
ATOM      4  H   UNL     1      36.679 -19.989 -19.722  0.00  0.00    -0.084 HD
BRANCH   2   5
ATOM      5  C   UNL     1      35.099 -19.920 -20.990  0.00  0.00    -0.030 C 
ATOM      6  C   UNL     1      33.600 -19.757 -20.735  0.00  0.00    -0.021 C 
BRANCH   5   7
ATOM      7  C   UNL     1      35.764 -18.617 -21.485  0.00  0.00    +0.113 C 
BRANCH   7   8
ATOM      8  C   UNL     1      35.245 -18.141 -22.826  0.00  0.00    +0.002 C 
ATOM      9  C   UNL     1      34.915 -19.077 -23.792  0.00  0.00    -0.002 C 
ATOM     10  C   UNL     1      35.110 -16.784 -23.056  0.00  0.00    -0.002 C 
ATOM     11  C   UNL     1      34.437 -18.640 -25.028  0.00  0.00    -0.000 C 
ATOM     12  C   UNL     1      34.632 -16.346 -24.291  0.00  0.00    -0.000 C 
ATOM     13  C   UNL     1      34.295 -17.274 -25.277  0.00  0.00    -0.000 C 
ENDBRANCH   7   8
BRANCH   7  14
ATOM     14  O   UNL     1      35.524 -17.560 -20.552  0.00  0.00    -0.382 OA
ATOM     15  H   UNL     1      35.590 -16.705 -21.007  0.00  0.00    +0.211 HD
ENDBRANCH   7  14
ENDBRANCH   5   7
ENDBRANCH   2   5
ENDBRANCH   1   2
BRANCH   1  16
ATOM     16  C   UNL     1      34.826 -22.279 -18.545  0.00  0.00    +0.051 C 
BRANCH  16  19
ATOM     17  O   UNL     1      32.801 -23.533 -16.651  0.00  0.00    -0.272 OA
ATOM     18  O   UNL     1      34.527 -24.403 -12.376  0.00  0.00    -0.252 OA
ATOM     19  N   UNL     1      35.523 -22.474 -17.295  0.00  0.00    -0.242 NA
ATOM     20  N   UNL     1      35.940 -23.444 -13.956  0.00  0.00    -0.228 N 
ATOM     21  N   UNL     1      33.642 -23.979 -14.503  0.00  0.00    -0.211 N 
ATOM     22  N   UNL     1      37.194 -22.440 -15.821  0.00  0.00    -0.240 NA
ATOM     23  C   UNL     1      35.026 -23.010 -16.143  0.00  0.00    +0.192 C 
ATOM     24  C   UNL     1      36.068 -22.976 -15.256  0.00  0.00    +0.136 C 
ATOM     25  C   UNL     1      36.831 -22.147 -17.052  0.00  0.00    +0.203 C 
ATOM     26  C   UNL     1      33.724 -23.513 -15.843  0.00  0.00    +0.254 C 
ATOM     27  C   UNL     1      34.699 -23.973 -13.522  0.00  0.00    +0.318 C 
ATOM     28  C   UNL     1      37.080 -23.387 -13.049  0.00  0.00    +0.123 C 
ATOM     29  C   UNL     1      32.356 -24.518 -14.076  0.00  0.00    +0.124 C 
ENDBRANCH  16  19
ENDBRANCH   1  16
TORSDOF 7
ENDMDL
MODEL 3
REMARK VINA RESULT:     -10.4      6.143     11.220
REMARK  Name = 5489638
REMARK  7 active torsions:
REMARK  status: ('A' for Active; 'I' for Inactive)
REMARK    1  A    between atoms: C_1  and  N_2
REMARK    2  A    between atoms: C_1  and  C_16
REMARK    3  A    between atoms: N_2  and  C_5
REMARK    4  A    between atoms: C_5  and  C_7
REMARK    5  A    between atoms: C_7  and  C_8
REMARK    6  A    between atoms: C_7  and  O_14
REMARK    7  A    between atoms: C_16  and  N_19
REMARK                            x       y       z     vdW  Elec       q    Type
REMARK                         _______ _______ _______ _____ _____    ______ ____
ROOT
ATOM      1  C   UNL     1      34.578 -15.179 -23.274  0.00  0.00    -0.064 C 
ENDROOT
BRANCH   1   2
ATOM      2  N   UNL     1      35.144 -16.333 -23.963  0.00  0.00    +0.388 N 
ATOM      3  H   UNL     1      34.862 -16.308 -24.943  0.00  0.00    -0.084 HD
ATOM      4  H   UNL     1      36.160 -16.294 -23.882  0.00  0.00    -0.084 HD
BRANCH   2   5
ATOM      5  C   UNL     1      34.677 -17.576 -23.364  0.00  0.00    -0.030 C 
ATOM      6  C   UNL     1      34.768 -18.673 -24.426  0.00  0.00    -0.021 C 
BRANCH   5   7
ATOM      7  C   UNL     1      35.519 -17.893 -22.108  0.00  0.00    +0.113 C 
BRANCH   7   8
ATOM      8  C   UNL     1      34.971 -19.039 -21.284  0.00  0.00    +0.002 C 
ATOM      9  C   UNL     1      35.853 -19.945 -20.718  0.00  0.00    -0.002 C 
ATOM     10  C   UNL     1      33.603 -19.157 -21.114  0.00  0.00    -0.002 C 
ATOM     11  C   UNL     1      35.349 -21.001 -19.959  0.00  0.00    -0.000 C 
ATOM     12  C   UNL     1      33.099 -20.213 -20.355  0.00  0.00    -0.000 C 
ATOM     13  C   UNL     1      33.973 -21.135 -19.777  0.00  0.00    -0.000 C 
ENDBRANCH   7   8
BRANCH   7  14
ATOM     14  O   UNL     1      36.848 -18.257 -22.488  0.00  0.00    -0.382 OA
ATOM     15  H   UNL     1      37.455 -18.081 -21.751  0.00  0.00    +0.211 HD
ENDBRANCH   7  14
ENDBRANCH   5   7
ENDBRANCH   2   5
ENDBRANCH   1   2
BRANCH   1  16
ATOM     16  C   UNL     1      33.414 -14.607 -24.077  0.00  0.00    +0.051 C 
BRANCH  16  19
ATOM     17  O   UNL     1      31.922 -13.583 -21.630  0.00  0.00    -0.272 OA
ATOM     18  O   UNL     1      31.775  -8.902 -21.351  0.00  0.00    -0.252 OA
ATOM     19  N   UNL     1      33.470 -13.165 -24.154  0.00  0.00    -0.242 NA
ATOM     20  N   UNL     1      32.880  -9.859 -23.161  0.00  0.00    -0.228 N 
ATOM     21  N   UNL     1      31.835 -11.241 -21.468  0.00  0.00    -0.211 N 
ATOM     22  N   UNL     1      33.971 -11.145 -24.954  0.00  0.00    -0.240 NA
ATOM     23  C   UNL     1      32.939 -12.265 -23.276  0.00  0.00    +0.192 C 
ATOM     24  C   UNL     1      33.258 -11.037 -23.789  0.00  0.00    +0.136 C 
ATOM     25  C   UNL     1      34.081 -12.444 -25.147  0.00  0.00    +0.203 C 
ATOM     26  C   UNL     1      32.200 -12.473 -22.073  0.00  0.00    +0.254 C 
ATOM     27  C   UNL     1      32.140  -9.918 -21.954  0.00  0.00    +0.318 C 
ATOM     28  C   UNL     1      33.244  -8.575 -23.746  0.00  0.00    +0.123 C 
ATOM     29  C   UNL     1      31.073 -11.322 -20.227  0.00  0.00    +0.124 C 
ENDBRANCH  16  19
ENDBRANCH   1  16
TORSDOF 7
ENDMDL
MODEL 4
REMARK VINA RESULT:     -10.2      6.028     10.886
REMARK  Name = 5489638
REMARK  7 active torsions:
REMARK  status: ('A' for Active; 'I' for Inactive)
REMARK    1  A    between atoms: C_1  and  N_2
REMARK    2  A    between atoms: C_1  and  C_16
REMARK    3  A    between atoms: N_2  and  C_5
REMARK    4  A    between atoms: C_5  and  C_7
REMARK    5  A    between atoms: C_7  and  C_8
REMARK    6  A    between atoms: C_7  and  O_14
REMARK    7  A    between atoms: C_16  and  N_19
REMARK                            x       y       z     vdW  Elec       q    Type
REMARK                         _______ _______ _______ _____ _____    ______ ____
ROOT
ATOM      1  C   UNL     1      34.953 -15.727 -23.356  0.00  0.00    -0.064 C 
ENDROOT
BRANCH   1   2
ATOM      2  N   UNL     1      35.036 -16.890 -24.231  0.00  0.00    +0.388 N 
ATOM      3  H   UNL     1      34.412 -16.756 -25.025  0.00  0.00    -0.084 HD
ATOM      4  H   UNL     1      36.001 -16.990 -24.548  0.00  0.00    -0.084 HD
BRANCH   2   5
ATOM      5  C   UNL     1      34.652 -18.103 -23.522  0.00  0.00    -0.030 C 
ATOM      6  C   UNL     1      34.945 -19.295 -24.434  0.00  0.00    -0.021 C 
BRANCH   5   7
ATOM      7  C   UNL     1      35.412 -18.181 -22.179  0.00  0.00    +0.113 C 
BRANCH   7   8
ATOM      8  C   UNL     1      34.923 -19.286 -21.267  0.00  0.00    +0.002 C 
ATOM      9  C   UNL     1      33.563 -19.421 -21.041  0.00  0.00    -0.002 C 
ATOM     10  C   UNL     1      35.844 -20.136 -20.681  0.00  0.00    -0.002 C 
ATOM     11  C   UNL     1      33.112 -20.439 -20.200  0.00  0.00    -0.000 C 
ATOM     12  C   UNL     1      35.392 -21.154 -19.840  0.00  0.00    -0.000 C 
ATOM     13  C   UNL     1      34.026 -21.306 -19.600  0.00  0.00    -0.000 C 
ENDBRANCH   7   8
BRANCH   7  14
ATOM     14  O   UNL     1      36.801 -18.426 -22.415  0.00  0.00    -0.382 OA
ATOM     15  H   UNL     1      36.961 -19.383 -22.437  0.00  0.00    +0.211 HD
ENDBRANCH   7  14
ENDBRANCH   5   7
ENDBRANCH   2   5
ENDBRANCH   1   2
BRANCH   1  16
ATOM     16  C   UNL     1      34.109 -14.637 -24.010  0.00  0.00    +0.051 C 
BRANCH  16  19
ATOM     17  O   UNL     1      34.242 -11.686 -24.745  0.00  0.00    -0.272 OA
ATOM     18  O   UNL     1      31.687  -8.940 -21.927  0.00  0.00    -0.252 OA
ATOM     19  N   UNL     1      33.274 -13.953 -23.051  0.00  0.00    -0.242 NA
ATOM     20  N   UNL     1      31.700 -11.229 -21.511  0.00  0.00    -0.228 N 
ATOM     21  N   UNL     1      32.970 -10.290 -23.348  0.00  0.00    -0.211 N 
ATOM     22  N   UNL     1      31.904 -13.674 -21.314  0.00  0.00    -0.240 NA
ATOM     23  C   UNL     1      33.021 -12.614 -22.976  0.00  0.00    +0.192 C 
ATOM     24  C   UNL     1      32.181 -12.471 -21.905  0.00  0.00    +0.136 C 
ATOM     25  C   UNL     1      32.580 -14.549 -22.030  0.00  0.00    +0.203 C 
ATOM     26  C   UNL     1      33.487 -11.538 -23.789  0.00  0.00    +0.254 C 
ATOM     27  C   UNL     1      32.083 -10.071 -22.232  0.00  0.00    +0.318 C 
ATOM     28  C   UNL     1      30.807 -11.128 -20.363  0.00  0.00    +0.123 C 
ATOM     29  C   UNL     1      33.377  -9.110 -24.102  0.00  0.00    +0.124 C 
ENDBRANCH  16  19
ENDBRANCH   1  16
TORSDOF 7
ENDMDL
MODEL 5
REMARK VINA RESULT:     -10.2      3.554      9.727
REMARK  Name = 5489638
REMARK  7 active torsions:
REMARK  status: ('A' for Active; 'I' for Inactive)
REMARK    1  A    between atoms: C_1  and  N_2
REMARK    2  A    between atoms: C_1  and  C_16
REMARK    3  A    between atoms: N_2  and  C_5
REMARK    4  A    between atoms: C_5  and  C_7
REMARK    5  A    between atoms: C_7  and  C_8
REMARK    6  A    between atoms: C_7  and  O_14
REMARK    7  A    between atoms: C_16  and  N_19
REMARK                            x       y       z     vdW  Elec       q    Type
REMARK                         _______ _______ _______ _____ _____    ______ ____
ROOT
ATOM      1  C   UNL     1      34.666 -19.486 -22.367  0.00  0.00    -0.064 C 
ENDROOT
BRANCH   1   2
ATOM      2  N   UNL     1      35.261 -20.223 -21.258  0.00  0.00    +0.388 N 
ATOM      3  H   UNL     1      35.572 -21.135 -21.591  0.00  0.00    -0.084 HD
ATOM      4  H   UNL     1      36.050 -19.687 -20.897  0.00  0.00    -0.084 HD
BRANCH   2   5
ATOM      5  C   UNL     1      34.297 -20.412 -20.183  0.00  0.00    -0.030 C 
ATOM      6  C   UNL     1      32.933 -19.931 -20.682  0.00  0.00    -0.021 C 
BRANCH   5   7
ATOM      7  C   UNL     1      34.284 -21.896 -19.754  0.00  0.00    +0.113 C 
BRANCH   7   8
ATOM      8  C   UNL     1      34.987 -22.154 -18.438  0.00  0.00    +0.002 C 
ATOM      9  C   UNL     1      34.312 -22.828 -17.434  0.00  0.00    -0.002 C 
ATOM     10  C   UNL     1      36.286 -21.711 -18.268  0.00  0.00    -0.002 C 
ATOM     11  C   UNL     1      34.959 -23.066 -16.221  0.00  0.00    -0.000 C 
ATOM     12  C   UNL     1      36.933 -21.949 -17.055  0.00  0.00    -0.000 C 
ATOM     13  C   UNL     1      36.270 -22.627 -16.032  0.00  0.00    -0.000 C 
ENDBRANCH   7   8
BRANCH   7  14
ATOM     14  O   UNL     1      32.936 -22.348 -19.597  0.00  0.00    -0.382 OA
ATOM     15  H   UNL     1      32.757 -22.510 -18.657  0.00  0.00    +0.211 HD
ENDBRANCH   7  14
ENDBRANCH   5   7
ENDBRANCH   2   5
ENDBRANCH   1   2
BRANCH   1  16
ATOM     16  C   UNL     1      35.655 -18.452 -22.900  0.00  0.00    +0.051 C 
BRANCH  16  19
ATOM     17  O   UNL     1      34.454 -16.364 -21.040  0.00  0.00    -0.272 OA
ATOM     18  O   UNL     1      32.205 -12.920 -23.298  0.00  0.00    -0.252 OA
ATOM     19  N   UNL     1      35.012 -17.483 -23.756  0.00  0.00    -0.242 NA
ATOM     20  N   UNL     1      33.187 -14.606 -24.566  0.00  0.00    -0.228 N 
ATOM     21  N   UNL     1      33.322 -14.628 -22.147  0.00  0.00    -0.211 N 
ATOM     22  N   UNL     1      34.315 -16.512 -25.638  0.00  0.00    -0.240 NA
ATOM     23  C   UNL     1      34.336 -16.360 -23.378  0.00  0.00    +0.192 C 
ATOM     24  C   UNL     1      33.919 -15.785 -24.548  0.00  0.00    +0.136 C 
ATOM     25  C   UNL     1      34.972 -17.532 -25.126  0.00  0.00    +0.203 C 
ATOM     26  C   UNL     1      34.073 -15.832 -22.078  0.00  0.00    +0.254 C 
ATOM     27  C   UNL     1      32.855 -13.971 -23.343  0.00  0.00    +0.318 C 
ATOM     28  C   UNL     1      32.766 -14.032 -25.838  0.00  0.00    +0.123 C 
ATOM     29  C   UNL     1      32.990 -13.991 -20.878  0.00  0.00    +0.124 C 
ENDBRANCH  16  19
ENDBRANCH   1  16
TORSDOF 7
ENDMDL
MODEL 6
REMARK VINA RESULT:      -9.9      3.600      9.721
REMARK  Name = 5489638
REMARK  7 active torsions:
REMARK  status: ('A' for Active; 'I' for Inactive)
REMARK    1  A    between atoms: C_1  and  N_2
REMARK    2  A    between atoms: C_1  and  C_16
REMARK    3  A    between atoms: N_2  and  C_5
REMARK    4  A    between atoms: C_5  and  C_7
REMARK    5  A    between atoms: C_7  and  C_8
REMARK    6  A    between atoms: C_7  and  O_14
REMARK    7  A    between atoms: C_16  and  N_19
REMARK                            x       y       z     vdW  Elec       q    Type
REMARK                         _______ _______ _______ _____ _____    ______ ____
ROOT
ATOM      1  C   UNL     1      36.118 -19.141 -21.004  0.00  0.00    -0.064 C 
ENDROOT
BRANCH   1   2
ATOM      2  N   UNL     1      35.335 -20.361 -21.155  0.00  0.00    +0.388 N 
ATOM      3  H   UNL     1      34.847 -20.338 -22.049  0.00  0.00    -0.084 HD
ATOM      4  H   UNL     1      35.967 -21.161 -21.114  0.00  0.00    -0.084 HD
BRANCH   2   5
ATOM      5  C   UNL     1      34.358 -20.487 -20.082  0.00  0.00    -0.030 C 
ATOM      6  C   UNL     1      33.013 -19.982 -20.607  0.00  0.00    -0.021 C 
BRANCH   5   7
ATOM      7  C   UNL     1      34.297 -21.956 -19.606  0.00  0.00    +0.113 C 
BRANCH   7   8
ATOM      8  C   UNL     1      35.018 -22.202 -18.298  0.00  0.00    +0.002 C 
ATOM      9  C   UNL     1      34.359 -22.869 -17.279  0.00  0.00    -0.002 C 
ATOM     10  C   UNL     1      36.319 -21.755 -18.149  0.00  0.00    -0.002 C 
ATOM     11  C   UNL     1      35.022 -23.095 -16.073  0.00  0.00    -0.000 C 
ATOM     12  C   UNL     1      36.983 -21.981 -16.943  0.00  0.00    -0.000 C 
ATOM     13  C   UNL     1      36.335 -22.651 -15.906  0.00  0.00    -0.000 C 
ENDBRANCH   7   8
BRANCH   7  14
ATOM     14  O   UNL     1      32.936 -22.350 -19.407  0.00  0.00    -0.382 OA
ATOM     15  H   UNL     1      32.909 -23.261 -19.075  0.00  0.00    +0.211 HD
ENDBRANCH   7  14
ENDBRANCH   5   7
ENDBRANCH   2   5
ENDBRANCH   1   2
BRANCH   1  16
ATOM     16  C   UNL     1      35.925 -18.241 -22.221  0.00  0.00    +0.051 C 
BRANCH  16  19
ATOM     17  O   UNL     1      34.926 -17.177 -24.892  0.00  0.00    -0.272 OA
ATOM     18  O   UNL     1      32.242 -13.349 -24.495  0.00  0.00    -0.252 OA
ATOM     19  N   UNL     1      35.127 -17.078 -21.910  0.00  0.00    -0.242 NA
ATOM     20  N   UNL     1      33.093 -14.299 -22.550  0.00  0.00    -0.228 N 
ATOM     21  N   UNL     1      33.579 -15.260 -24.720  0.00  0.00    -0.211 N 
ATOM     22  N   UNL     1      34.127 -15.514 -20.675  0.00  0.00    -0.240 NA
ATOM     23  C   UNL     1      34.467 -16.265 -22.786  0.00  0.00    +0.192 C 
ATOM     24  C   UNL     1      33.865 -15.316 -22.004  0.00  0.00    +0.136 C 
ATOM     25  C   UNL     1      34.892 -16.586 -20.652  0.00  0.00    +0.203 C 
ATOM     26  C   UNL     1      34.377 -16.318 -24.209  0.00  0.00    +0.254 C 
ATOM     27  C   UNL     1      32.917 -14.232 -23.954  0.00  0.00    +0.318 C 
ATOM     28  C   UNL     1      32.472 -13.312 -21.676  0.00  0.00    +0.123 C 
ATOM     29  C   UNL     1      33.411 -15.207 -26.167  0.00  0.00    +0.124 C 
ENDBRANCH  16  19
ENDBRANCH   1  16
TORSDOF 7
ENDMDL
MODEL 7
REMARK VINA RESULT:      -9.8      7.061     10.805
REMARK  Name = 5489638
REMARK  7 active torsions:
REMARK  status: ('A' for Active; 'I' for Inactive)
REMARK    1  A    between atoms: C_1  and  N_2
REMARK    2  A    between atoms: C_1  and  C_16
REMARK    3  A    between atoms: N_2  and  C_5
REMARK    4  A    between atoms: C_5  and  C_7
REMARK    5  A    between atoms: C_7  and  C_8
REMARK    6  A    between atoms: C_7  and  O_14
REMARK    7  A    between atoms: C_16  and  N_19
REMARK                            x       y       z     vdW  Elec       q    Type
REMARK                         _______ _______ _______ _____ _____    ______ ____
ROOT
ATOM      1  C   UNL     1      34.194 -11.906 -24.537  0.00  0.00    -0.064 C 
ENDROOT
BRANCH   1   2
ATOM      2  N   UNL     1      33.770 -10.550 -24.863  0.00  0.00    +0.388 N 
ATOM      3  H   UNL     1      34.409 -10.156 -25.554  0.00  0.00    -0.084 HD
ATOM      4  H   UNL     1      32.821 -10.585 -25.234  0.00  0.00    -0.084 HD
BRANCH   2   5
ATOM      5  C   UNL     1      33.774  -9.705 -23.676  0.00  0.00    -0.030 C 
ATOM      6  C   UNL     1      34.570  -8.440 -24.000  0.00  0.00    -0.021 C 
BRANCH   5   7
ATOM      7  C   UNL     1      32.319  -9.400 -23.253  0.00  0.00    +0.113 C 
BRANCH   7   8
ATOM      8  C   UNL     1      31.999  -9.817 -21.834  0.00  0.00    +0.002 C 
ATOM      9  C   UNL     1      31.490 -11.084 -21.601  0.00  0.00    -0.002 C 
ATOM     10  C   UNL     1      32.224  -8.925 -20.800  0.00  0.00    -0.002 C 
ATOM     11  C   UNL     1      31.194 -11.469 -20.293  0.00  0.00    -0.000 C 
ATOM     12  C   UNL     1      31.928  -9.310 -19.492  0.00  0.00    -0.000 C 
ATOM     13  C   UNL     1      31.414 -10.582 -19.239  0.00  0.00    -0.000 C 
ENDBRANCH   7   8
BRANCH   7  14
ATOM     14  O   UNL     1      32.070  -7.994 -23.336  0.00  0.00    -0.382 OA
ATOM     15  H   UNL     1      32.461  -7.644 -24.152  0.00  0.00    +0.211 HD
ENDBRANCH   7  14
ENDBRANCH   5   7
ENDBRANCH   2   5
ENDBRANCH   1   2
BRANCH   1  16
ATOM     16  C   UNL     1      32.982 -12.829 -24.456  0.00  0.00    +0.051 C 
BRANCH  16  19
ATOM     17  O   UNL     1      33.962 -14.107 -21.873  0.00  0.00    -0.272 OA
ATOM     18  O   UNL     1      35.217 -18.601 -22.368  0.00  0.00    -0.252 OA
ATOM     19  N   UNL     1      33.319 -14.192 -24.793  0.00  0.00    -0.242 NA
ATOM     20  N   UNL     1      34.441 -17.465 -24.244  0.00  0.00    -0.228 N 
ATOM     21  N   UNL     1      34.596 -16.358 -22.095  0.00  0.00    -0.211 N 
ATOM     22  N   UNL     1      33.588 -16.018 -26.044  0.00  0.00    -0.240 NA
ATOM     23  C   UNL     1      33.803 -15.159 -23.959  0.00  0.00    +0.192 C 
ATOM     24  C   UNL     1      33.959 -16.265 -24.749  0.00  0.00    +0.136 C 
ATOM     25  C   UNL     1      33.207 -14.757 -26.037  0.00  0.00    +0.203 C 
ATOM     26  C   UNL     1      34.108 -15.110 -22.565  0.00  0.00    +0.254 C 
ATOM     27  C   UNL     1      34.783 -17.559 -22.873  0.00  0.00    +0.318 C 
ATOM     28  C   UNL     1      34.590 -18.616 -25.127  0.00  0.00    +0.123 C 
ATOM     29  C   UNL     1      34.944 -16.433 -20.681  0.00  0.00    +0.124 C 
ENDBRANCH  16  19
ENDBRANCH   1  16
TORSDOF 7
ENDMDL
MODEL 8
REMARK VINA RESULT:      -9.8      6.339     11.787
REMARK  Name = 5489638
REMARK  7 active torsions:
REMARK  status: ('A' for Active; 'I' for Inactive)
REMARK    1  A    between atoms: C_1  and  N_2
REMARK    2  A    between atoms: C_1  and  C_16
REMARK    3  A    between atoms: N_2  and  C_5
REMARK    4  A    between atoms: C_5  and  C_7
REMARK    5  A    between atoms: C_7  and  C_8
REMARK    6  A    between atoms: C_7  and  O_14
REMARK    7  A    between atoms: C_16  and  N_19
REMARK                            x       y       z     vdW  Elec       q    Type
REMARK                         _______ _______ _______ _____ _____    ______ ____
ROOT
ATOM      1  C   UNL     1      33.361 -14.570 -21.631  0.00  0.00    -0.064 C 
ENDROOT
BRANCH   1   2
ATOM      2  N   UNL     1      34.457 -15.050 -22.463  0.00  0.00    +0.388 N 
ATOM      3  H   UNL     1      34.486 -14.507 -23.325  0.00  0.00    -0.084 HD
ATOM      4  H   UNL     1      35.330 -14.944 -21.945  0.00  0.00    -0.084 HD
BRANCH   2   5
ATOM      5  C   UNL     1      34.281 -16.458 -22.793  0.00  0.00    -0.030 C 
ATOM      6  C   UNL     1      34.375 -16.601 -24.313  0.00  0.00    -0.021 C 
BRANCH   5   7
ATOM      7  C   UNL     1      35.341 -17.301 -22.050  0.00  0.00    +0.113 C 
BRANCH   7   8
ATOM      8  C   UNL     1      34.771 -18.520 -21.357  0.00  0.00    +0.002 C 
ATOM      9  C   UNL     1      33.401 -18.618 -21.183  0.00  0.00    -0.002 C 
ATOM     10  C   UNL     1      35.631 -19.509 -20.912  0.00  0.00    -0.002 C 
ATOM     11  C   UNL     1      32.874 -19.741 -20.544  0.00  0.00    -0.000 C 
ATOM     12  C   UNL     1      35.105 -20.631 -20.273  0.00  0.00    -0.000 C 
ATOM     13  C   UNL     1      33.727 -20.748 -20.089  0.00  0.00    -0.000 C 
ENDBRANCH   7   8
BRANCH   7  14
ATOM     14  O   UNL     1      36.325 -17.775 -22.974  0.00  0.00    -0.382 OA
ATOM     15  H   UNL     1      36.565 -18.688 -22.751  0.00  0.00    +0.211 HD
ENDBRANCH   7  14
ENDBRANCH   5   7
ENDBRANCH   2   5
ENDBRANCH   1   2
BRANCH   1  16
ATOM     16  C   UNL     1      32.272 -13.951 -22.503  0.00  0.00    +0.051 C 
BRANCH  16  19
ATOM     17  O   UNL     1      34.210 -12.699 -24.489  0.00  0.00    -0.272 OA
ATOM     18  O   UNL     1      34.312  -8.012 -24.302  0.00  0.00    -0.252 OA
ATOM     19  N   UNL     1      32.172 -12.523 -22.307  0.00  0.00    -0.242 NA
ATOM     20  N   UNL     1      32.883  -9.137 -22.851  0.00  0.00    -0.228 N 
ATOM     21  N   UNL     1      34.279 -10.352 -24.415  0.00  0.00    -0.211 N 
ATOM     22  N   UNL     1      31.477 -10.588 -21.445  0.00  0.00    -0.240 NA
ATOM     23  C   UNL     1      32.852 -11.544 -22.971  0.00  0.00    +0.192 C 
ATOM     24  C   UNL     1      32.409 -10.370 -22.424  0.00  0.00    +0.136 C 
ATOM     25  C   UNL     1      31.357 -11.899 -21.398  0.00  0.00    +0.203 C 
ATOM     26  C   UNL     1      33.824 -11.636 -24.012  0.00  0.00    +0.254 C 
ATOM     27  C   UNL     1      33.853  -9.081 -23.882  0.00  0.00    +0.318 C 
ATOM     28  C   UNL     1      32.380  -7.914 -22.238  0.00  0.00    +0.123 C 
ATOM     29  C   UNL     1      35.278 -10.315 -25.476  0.00  0.00    +0.124 C 
ENDBRANCH  16  19
ENDBRANCH   1  16
TORSDOF 7
ENDMDL
MODEL 9
REMARK VINA RESULT:      -9.7      6.981     11.067
REMARK  Name = 5489638
REMARK  7 active torsions:
REMARK  status: ('A' for Active; 'I' for Inactive)
REMARK    1  A    between atoms: C_1  and  N_2
REMARK    2  A    between atoms: C_1  and  C_16
REMARK    3  A    between atoms: N_2  and  C_5
REMARK    4  A    between atoms: C_5  and  C_7
REMARK    5  A    between atoms: C_7  and  C_8
REMARK    6  A    between atoms: C_7  and  O_14
REMARK    7  A    between atoms: C_16  and  N_19
REMARK                            x       y       z     vdW  Elec       q    Type
REMARK                         _______ _______ _______ _____ _____    ______ ____
ROOT
ATOM      1  C   UNL     1      31.587 -11.821 -21.449  0.00  0.00    -0.064 C 
ENDROOT
BRANCH   1   2
ATOM      2  N   UNL     1      31.722 -10.437 -21.888  0.00  0.00    +0.388 N 
ATOM      3  H   UNL     1      32.606 -10.329 -22.385  0.00  0.00    -0.084 HD
ATOM      4  H   UNL     1      30.938 -10.212 -22.500  0.00  0.00    -0.084 HD
BRANCH   2   5
ATOM      5  C   UNL     1      31.701  -9.527 -20.751  0.00  0.00    -0.030 C 
ATOM      6  C   UNL     1      31.725 -10.367 -19.474  0.00  0.00    -0.021 C 
BRANCH   5   7
ATOM      7  C   UNL     1      32.896  -8.553 -20.845  0.00  0.00    +0.113 C 
BRANCH   7   8
ATOM      8  C   UNL     1      32.881  -7.690 -22.089  0.00  0.00    +0.002 C 
ATOM      9  C   UNL     1      31.787  -6.878 -22.333  0.00  0.00    -0.002 C 
ATOM     10  C   UNL     1      33.960  -7.732 -22.954  0.00  0.00    -0.002 C 
ATOM     11  C   UNL     1      31.771  -6.083 -23.479  0.00  0.00    -0.000 C 
ATOM     12  C   UNL     1      33.945  -6.937 -24.100  0.00  0.00    -0.000 C 
ATOM     13  C   UNL     1      32.851  -6.112 -24.363  0.00  0.00    -0.000 C 
ENDBRANCH   7   8
BRANCH   7  14
ATOM     14  O   UNL     1      32.892  -7.662 -19.726  0.00  0.00    -0.382 OA
ATOM     15  H   UNL     1      32.567  -6.792 -20.006  0.00  0.00    +0.211 HD
ENDBRANCH   7  14
ENDBRANCH   5   7
ENDBRANCH   2   5
ENDBRANCH   1   2
BRANCH   1  16
ATOM     16  C   UNL     1      32.118 -12.766 -22.523  0.00  0.00    +0.051 C 
BRANCH  16  19
ATOM     17  O   UNL     1      33.104 -14.419 -24.881  0.00  0.00    -0.272 OA
ATOM     18  O   UNL     1      35.519 -18.236 -23.611  0.00  0.00    -0.252 OA
ATOM     19  N   UNL     1      32.831 -13.885 -21.952  0.00  0.00    -0.242 NA
ATOM     20  N   UNL     1      34.689 -16.854 -21.933  0.00  0.00    -0.228 N 
ATOM     21  N   UNL     1      34.317 -16.336 -24.270  0.00  0.00    -0.211 N 
ATOM     22  N   UNL     1      33.696 -15.216 -20.387  0.00  0.00    -0.240 NA
ATOM     23  C   UNL     1      33.454 -14.900 -22.617  0.00  0.00    +0.192 C 
ATOM     24  C   UNL     1      33.974 -15.701 -21.636  0.00  0.00    +0.136 C 
ATOM     25  C   UNL     1      33.004 -14.118 -20.612  0.00  0.00    +0.203 C 
ATOM     26  C   UNL     1      33.580 -15.149 -24.017  0.00  0.00    +0.254 C 
ATOM     27  C   UNL     1      34.891 -17.221 -23.287  0.00  0.00    +0.318 C 
ATOM     28  C   UNL     1      35.224 -17.674 -20.854  0.00  0.00    +0.123 C 
ATOM     29  C   UNL     1      34.513 -16.698 -25.669  0.00  0.00    +0.124 C 
ENDBRANCH  16  19
ENDBRANCH   1  16
TORSDOF 7
ENDMDL
