MODEL 1
REMARK VINA RESULT:      -7.4      0.000      0.000
REMARK  Name = 23729157
REMARK  4 active torsions:
REMARK  status: ('A' for Active; 'I' for Inactive)
REMARK    1  A    between atoms: N_2  and  C_14
REMARK    2  A    between atoms: C_9  and  C_12
REMARK    3  A    between atoms: C_14  and  C_15
REMARK    4  A    between atoms: C_14  and  C_17
REMARK                            x       y       z     vdW  Elec       q    Type
REMARK                         _______ _______ _______ _____ _____    ______ ____
ROOT
ATOM      1  O   UNL     1      35.451 -19.118 -24.151  0.00  0.00    -0.246 OA
ATOM      2  N   UNL     1      34.497 -17.574 -22.619  0.00  0.00    -0.256 N 
ATOM      3  N   UNL     1      34.627 -16.997 -24.795  0.00  0.00    -0.289 N 
ATOM      4  N   UNL     1      33.433 -15.489 -21.823  0.00  0.00    -0.375 NA
ATOM      5  N   UNL     1      33.604 -14.773 -24.580  0.00  0.00    -0.242 NA
ATOM      6  C   UNL     1      33.954 -16.291 -22.759  0.00  0.00    +0.233 A 
ATOM      7  C   UNL     1      34.929 -18.045 -23.882  0.00  0.00    +0.331 A 
ATOM      8  C   UNL     1      34.035 -15.941 -24.095  0.00  0.00    +0.187 A 
ATOM      9  C   UNL     1      32.991 -14.303 -22.300  0.00  0.00    +0.178 C 
ATOM     10  C   UNL     1      33.074 -13.954 -23.644  0.00  0.00    +0.194 C 
ATOM     11  H   UNL     1      34.805 -17.013 -25.763  0.00  0.00    +0.172 HD
ENDROOT
BRANCH   9  12
ATOM     12  C   UNL     1      32.430 -13.424 -21.330  0.00  0.00    -0.022 C 
ATOM     13  C   UNL     1      31.957 -12.683 -20.513  0.00  0.00    -0.007 C 
ENDBRANCH   9  12
BRANCH   2  14
ATOM     14  C   UNL     1      34.601 -18.306 -21.375  0.00  0.00    +0.092 C 
BRANCH  14  15
ATOM     15  C   UNL     1      36.074 -18.508 -20.989  0.00  0.00    +0.023 C 
ATOM     16  C   UNL     1      36.380 -19.933 -20.545  0.00  0.00    +0.002 C 
ENDBRANCH  14  15
BRANCH  14  17
ATOM     17  C   UNL     1      33.885 -19.661 -21.482  0.00  0.00    +0.023 C 
ATOM     18  C   UNL     1      32.710 -19.784 -20.519  0.00  0.00    +0.002 C 
ENDBRANCH  14  17
ENDBRANCH   2  14
TORSDOF 4
ENDMDL
MODEL 2
REMARK VINA RESULT:      -7.3      2.210      5.468
REMARK  Name = 23729157
REMARK  4 active torsions:
REMARK  status: ('A' for Active; 'I' for Inactive)
REMARK    1  A    between atoms: N_2  and  C_14
REMARK    2  A    between atoms: C_9  and  C_12
REMARK    3  A    between atoms: C_14  and  C_15
REMARK    4  A    between atoms: C_14  and  C_17
REMARK                            x       y       z     vdW  Elec       q    Type
REMARK                         _______ _______ _______ _____ _____    ______ ____
ROOT
ATOM      1  O   UNL     1      32.619 -13.379 -26.272  0.00  0.00    -0.246 OA
ATOM      2  N   UNL     1      33.640 -14.463 -24.422  0.00  0.00    -0.256 N 
ATOM      3  N   UNL     1      33.298 -15.644 -26.313  0.00  0.00    -0.289 N 
ATOM      4  N   UNL     1      34.685 -16.286 -23.120  0.00  0.00    -0.375 NA
ATOM      5  N   UNL     1      34.246 -17.767 -25.519  0.00  0.00    -0.242 NA
ATOM      6  C   UNL     1      34.117 -15.763 -24.213  0.00  0.00    +0.233 A 
ATOM      7  C   UNL     1      33.119 -14.357 -25.734  0.00  0.00    +0.331 A 
ATOM      8  C   UNL     1      33.906 -16.483 -25.374  0.00  0.00    +0.187 A 
ATOM      9  C   UNL     1      35.036 -17.586 -23.251  0.00  0.00    +0.178 C 
ATOM     10  C   UNL     1      34.822 -18.308 -24.421  0.00  0.00    +0.194 C 
ATOM     11  H   UNL     1      33.036 -15.902 -27.226  0.00  0.00    +0.172 HD
ENDROOT
BRANCH   9  12
ATOM     12  C   UNL     1      35.644 -18.175 -22.106  0.00  0.00    -0.022 C 
ATOM     13  C   UNL     1      36.155 -18.672 -21.141  0.00  0.00    -0.007 C 
ENDBRANCH   9  12
BRANCH   2  14
ATOM     14  C   UNL     1      33.674 -13.393 -23.449  0.00  0.00    +0.092 C 
BRANCH  14  15
ATOM     15  C   UNL     1      32.352 -13.330 -22.669  0.00  0.00    +0.023 C 
ATOM     16  C   UNL     1      32.476 -13.870 -21.250  0.00  0.00    +0.002 C 
ENDBRANCH  14  15
BRANCH  14  17
ATOM     17  C   UNL     1      33.957 -12.046 -24.133  0.00  0.00    +0.023 C 
ATOM     18  C   UNL     1      33.102 -10.913 -23.579  0.00  0.00    +0.002 C 
ENDBRANCH  14  17
ENDBRANCH   2  14
TORSDOF 4
ENDMDL
MODEL 3
REMARK VINA RESULT:      -7.2      1.958      2.339
REMARK  Name = 23729157
REMARK  4 active torsions:
REMARK  status: ('A' for Active; 'I' for Inactive)
REMARK    1  A    between atoms: N_2  and  C_14
REMARK    2  A    between atoms: C_9  and  C_12
REMARK    3  A    between atoms: C_14  and  C_15
REMARK    4  A    between atoms: C_14  and  C_17
REMARK                            x       y       z     vdW  Elec       q    Type
REMARK                         _______ _______ _______ _____ _____    ______ ____
ROOT
ATOM      1  O   UNL     1      34.909 -19.337 -24.139  0.00  0.00    -0.246 OA
ATOM      2  N   UNL     1      34.801 -17.028 -23.596  0.00  0.00    -0.256 N 
ATOM      3  N   UNL     1      33.946 -17.717 -25.567  0.00  0.00    -0.289 N 
ATOM      4  N   UNL     1      34.277 -14.627 -23.869  0.00  0.00    -0.375 NA
ATOM      5  N   UNL     1      33.200 -15.513 -26.359  0.00  0.00    -0.242 NA
ATOM      6  C   UNL     1      34.292 -15.906 -24.263  0.00  0.00    +0.233 A 
ATOM      7  C   UNL     1      34.598 -18.181 -24.391  0.00  0.00    +0.331 A 
ATOM      8  C   UNL     1      33.769 -16.333 -25.470  0.00  0.00    +0.187 A 
ATOM      9  C   UNL     1      33.703 -13.785 -24.759  0.00  0.00    +0.178 C 
ATOM     10  C   UNL     1      33.178 -14.217 -25.973  0.00  0.00    +0.194 C 
ATOM     11  H   UNL     1      33.665 -18.278 -26.325  0.00  0.00    +0.172 HD
ENDROOT
BRANCH   9  12
ATOM     12  C   UNL     1      33.670 -12.415 -24.373  0.00  0.00    -0.022 C 
ATOM     13  C   UNL     1      33.643 -11.260 -24.048  0.00  0.00    -0.007 C 
ENDBRANCH   9  12
BRANCH   2  14
ATOM     14  C   UNL     1      35.435 -17.011 -22.297  0.00  0.00    +0.092 C 
BRANCH  14  15
ATOM     15  C   UNL     1      36.327 -18.249 -22.114  0.00  0.00    +0.023 C 
ATOM     16  C   UNL     1      35.964 -19.063 -20.878  0.00  0.00    +0.002 C 
ENDBRANCH  14  15
BRANCH  14  17
ATOM     17  C   UNL     1      34.383 -16.941 -21.179  0.00  0.00    +0.023 C 
ATOM     18  C   UNL     1      34.417 -15.621 -20.419  0.00  0.00    +0.002 C 
ENDBRANCH  14  17
ENDBRANCH   2  14
TORSDOF 4
ENDMDL
MODEL 4
REMARK VINA RESULT:      -7.1      5.522      8.364
REMARK  Name = 23729157
REMARK  4 active torsions:
REMARK  status: ('A' for Active; 'I' for Inactive)
REMARK    1  A    between atoms: N_2  and  C_14
REMARK    2  A    between atoms: C_9  and  C_12
REMARK    3  A    between atoms: C_14  and  C_15
REMARK    4  A    between atoms: C_14  and  C_17
REMARK                            x       y       z     vdW  Elec       q    Type
REMARK                         _______ _______ _______ _____ _____    ______ ____
ROOT
ATOM      1  O   UNL     1      30.233 -10.946 -20.431  0.00  0.00    -0.246 OA
ATOM      2  N   UNL     1      31.733 -10.208 -22.117  0.00  0.00    -0.256 N 
ATOM      3  N   UNL     1      31.514 -12.424 -21.759  0.00  0.00    -0.289 N 
ATOM      4  N   UNL     1      33.398 -10.367 -23.938  0.00  0.00    -0.375 NA
ATOM      5  N   UNL     1      33.110 -13.167 -23.473  0.00  0.00    -0.242 NA
ATOM      6  C   UNL     1      32.579 -10.877 -23.011  0.00  0.00    +0.233 A 
ATOM      7  C   UNL     1      31.050 -11.155 -21.317  0.00  0.00    +0.331 A 
ATOM      8  C   UNL     1      32.441 -12.235 -22.788  0.00  0.00    +0.187 A 
ATOM      9  C   UNL     1      34.082 -11.299 -24.641  0.00  0.00    +0.178 C 
ATOM     10  C   UNL     1      33.941 -12.664 -24.414  0.00  0.00    +0.194 C 
ATOM     11  H   UNL     1      31.228 -13.295 -21.399  0.00  0.00    +0.172 HD
ENDROOT
BRANCH   9  12
ATOM     12  C   UNL     1      34.964 -10.791 -25.636  0.00  0.00    -0.022 C 
ATOM     13  C   UNL     1      35.707 -10.361 -26.475  0.00  0.00    -0.007 C 
ENDBRANCH   9  12
BRANCH   2  14
ATOM     14  C   UNL     1      31.581  -8.773 -22.026  0.00  0.00    +0.092 C 
BRANCH  14  15
ATOM     15  C   UNL     1      31.209  -8.181 -23.394  0.00  0.00    +0.023 C 
ATOM     16  C   UNL     1      32.040  -6.955 -23.754  0.00  0.00    +0.002 C 
ENDBRANCH  14  15
BRANCH  14  17
ATOM     17  C   UNL     1      32.867  -8.124 -21.493  0.00  0.00    +0.023 C 
ATOM     18  C   UNL     1      32.670  -7.444 -20.144  0.00  0.00    +0.002 C 
ENDBRANCH  14  17
ENDBRANCH   2  14
TORSDOF 4
ENDMDL
MODEL 5
REMARK VINA RESULT:      -7.0      8.544     11.147
REMARK  Name = 23729157
REMARK  4 active torsions:
REMARK  status: ('A' for Active; 'I' for Inactive)
REMARK    1  A    between atoms: N_2  and  C_14
REMARK    2  A    between atoms: C_9  and  C_12
REMARK    3  A    between atoms: C_14  and  C_15
REMARK    4  A    between atoms: C_14  and  C_17
REMARK                            x       y       z     vdW  Elec       q    Type
REMARK                         _______ _______ _______ _____ _____    ______ ____
ROOT
ATOM      1  O   UNL     1      34.926 -24.945 -11.807  0.00  0.00    -0.246 OA
ATOM      2  N   UNL     1      35.297 -24.192 -14.028  0.00  0.00    -0.256 N 
ATOM      3  N   UNL     1      33.173 -24.427 -13.307  0.00  0.00    -0.289 N 
ATOM      4  N   UNL     1      34.751 -23.414 -16.311  0.00  0.00    -0.375 NA
ATOM      5  N   UNL     1      32.069 -23.715 -15.384  0.00  0.00    -0.242 NA
ATOM      6  C   UNL     1      34.442 -23.832 -15.077  0.00  0.00    +0.233 A 
ATOM      7  C   UNL     1      34.529 -24.571 -12.902  0.00  0.00    +0.331 A 
ATOM      8  C   UNL     1      33.141 -23.977 -14.631  0.00  0.00    +0.187 A 
ATOM      9  C   UNL     1      33.674 -23.145 -17.085  0.00  0.00    +0.178 C 
ATOM     10  C   UNL     1      32.367 -23.292 -16.633  0.00  0.00    +0.194 C 
ATOM     11  H   UNL     1      32.385 -24.613 -12.747  0.00  0.00    +0.172 HD
ENDROOT
BRANCH   9  12
ATOM     12  C   UNL     1      33.967 -22.698 -18.405  0.00  0.00    -0.022 C 
ATOM     13  C   UNL     1      34.214 -22.322 -19.518  0.00  0.00    -0.007 C 
ENDBRANCH   9  12
BRANCH   2  14
ATOM     14  C   UNL     1      36.742 -24.180 -14.087  0.00  0.00    +0.092 C 
BRANCH  14  15
ATOM     15  C   UNL     1      37.300 -25.606 -13.962  0.00  0.00    +0.023 C 
ATOM     16  C   UNL     1      36.943 -26.488 -15.152  0.00  0.00    +0.002 C 
ENDBRANCH  14  15
BRANCH  14  17
ATOM     17  C   UNL     1      37.322 -23.280 -12.985  0.00  0.00    +0.023 C 
ATOM     18  C   UNL     1      38.260 -24.029 -12.045  0.00  0.00    +0.002 C 
ENDBRANCH  14  17
ENDBRANCH   2  14
TORSDOF 4
ENDMDL
MODEL 6
REMARK VINA RESULT:      -7.0      6.182      9.624
REMARK  Name = 23729157
REMARK  4 active torsions:
REMARK  status: ('A' for Active; 'I' for Inactive)
REMARK    1  A    between atoms: N_2  and  C_14
REMARK    2  A    between atoms: C_9  and  C_12
REMARK    3  A    between atoms: C_14  and  C_15
REMARK    4  A    between atoms: C_14  and  C_17
REMARK                            x       y       z     vdW  Elec       q    Type
REMARK                         _______ _______ _______ _____ _____    ______ ____
ROOT
ATOM      1  O   UNL     1      31.959  -5.987 -21.008  0.00  0.00    -0.246 OA
ATOM      2  N   UNL     1      32.103  -8.192 -21.877  0.00  0.00    -0.256 N 
ATOM      3  N   UNL     1      31.807  -7.922 -19.658  0.00  0.00    -0.289 N 
ATOM      4  N   UNL     1      32.134 -10.664 -21.873  0.00  0.00    -0.375 NA
ATOM      5  N   UNL     1      31.761 -10.306 -19.067  0.00  0.00    -0.242 NA
ATOM      6  C   UNL     1      32.042  -9.463 -21.291  0.00  0.00    +0.233 A 
ATOM      7  C   UNL     1      31.958  -7.203 -20.876  0.00  0.00    +0.331 A 
ATOM      8  C   UNL     1      31.861  -9.292 -19.930  0.00  0.00    +0.187 A 
ATOM      9  C   UNL     1      32.034 -11.701 -21.010  0.00  0.00    +0.178 C 
ATOM     10  C   UNL     1      31.851 -11.527 -19.642  0.00  0.00    +0.194 C 
ATOM     11  H   UNL     1      31.685  -7.520 -18.767  0.00  0.00    +0.172 HD
ENDROOT
BRANCH   9  12
ATOM     12  C   UNL     1      32.128 -12.996 -21.596  0.00  0.00    -0.022 C 
ATOM     13  C   UNL     1      32.207 -14.087 -22.090  0.00  0.00    -0.007 C 
ENDBRANCH   9  12
BRANCH   2  14
ATOM     14  C   UNL     1      32.285  -7.931 -23.288  0.00  0.00    +0.092 C 
BRANCH  14  15
ATOM     15  C   UNL     1      33.497  -7.014 -23.516  0.00  0.00    +0.023 C 
ATOM     16  C   UNL     1      34.810  -7.782 -23.615  0.00  0.00    +0.002 C 
ENDBRANCH  14  15
BRANCH  14  17
ATOM     17  C   UNL     1      31.019  -7.303 -23.892  0.00  0.00    +0.023 C 
ATOM     18  C   UNL     1      31.246  -5.882 -24.393  0.00  0.00    +0.002 C 
ENDBRANCH  14  17
ENDBRANCH   2  14
TORSDOF 4
ENDMDL
MODEL 7
REMARK VINA RESULT:      -6.9      7.641     10.093
REMARK  Name = 23729157
REMARK  4 active torsions:
REMARK  status: ('A' for Active; 'I' for Inactive)
REMARK    1  A    between atoms: N_2  and  C_14
REMARK    2  A    between atoms: C_9  and  C_12
REMARK    3  A    between atoms: C_14  and  C_15
REMARK    4  A    between atoms: C_14  and  C_17
REMARK                            x       y       z     vdW  Elec       q    Type
REMARK                         _______ _______ _______ _____ _____    ______ ____
ROOT
ATOM      1  O   UNL     1      32.834 -24.699 -13.341  0.00  0.00    -0.246 OA
ATOM      2  N   UNL     1      34.373 -23.831 -14.928  0.00  0.00    -0.256 N 
ATOM      3  N   UNL     1      32.177 -23.842 -15.445  0.00  0.00    -0.289 N 
ATOM      4  N   UNL     1      35.168 -22.813 -17.036  0.00  0.00    -0.375 NA
ATOM      5  N   UNL     1      32.387 -22.834 -17.676  0.00  0.00    -0.242 NA
ATOM      6  C   UNL     1      34.227 -23.281 -16.208  0.00  0.00    +0.233 A 
ATOM      7  C   UNL     1      33.101 -24.192 -14.422  0.00  0.00    +0.331 A 
ATOM      8  C   UNL     1      32.879 -23.290 -16.521  0.00  0.00    +0.187 A 
ATOM      9  C   UNL     1      34.684 -22.347 -18.210  0.00  0.00    +0.178 C 
ATOM     10  C   UNL     1      33.328 -22.357 -18.522  0.00  0.00    +0.194 C 
ATOM     11  H   UNL     1      31.202 -23.967 -15.402  0.00  0.00    +0.172 HD
ENDROOT
BRANCH   9  12
ATOM     12  C   UNL     1      35.658 -21.840 -19.117  0.00  0.00    -0.022 C 
ATOM     13  C   UNL     1      36.480 -21.413 -19.880  0.00  0.00    -0.007 C 
ENDBRANCH   9  12
BRANCH   2  14
ATOM     14  C   UNL     1      35.628 -24.002 -14.231  0.00  0.00    +0.092 C 
BRANCH  14  15
ATOM     15  C   UNL     1      36.119 -25.453 -14.351  0.00  0.00    +0.023 C 
ATOM     16  C   UNL     1      37.471 -25.564 -15.046  0.00  0.00    +0.002 C 
ENDBRANCH  14  15
BRANCH  14  17
ATOM     17  C   UNL     1      35.486 -23.606 -12.753  0.00  0.00    +0.023 C 
ATOM     18  C   UNL     1      35.938 -24.707 -11.801  0.00  0.00    +0.002 C 
ENDBRANCH  14  17
ENDBRANCH   2  14
TORSDOF 4
ENDMDL
MODEL 8
REMARK VINA RESULT:      -6.8      7.863     10.421
REMARK  Name = 23729157
REMARK  4 active torsions:
REMARK  status: ('A' for Active; 'I' for Inactive)
REMARK    1  A    between atoms: N_2  and  C_14
REMARK    2  A    between atoms: C_9  and  C_12
REMARK    3  A    between atoms: C_14  and  C_15
REMARK    4  A    between atoms: C_14  and  C_17
REMARK                            x       y       z     vdW  Elec       q    Type
REMARK                         _______ _______ _______ _____ _____    ______ ____
ROOT
ATOM      1  O   UNL     1      34.127 -24.570 -12.392  0.00  0.00    -0.246 OA
ATOM      2  N   UNL     1      34.224 -23.680 -14.591  0.00  0.00    -0.256 N 
ATOM      3  N   UNL     1      36.118 -23.751 -13.368  0.00  0.00    -0.289 N 
ATOM      4  N   UNL     1      35.217 -22.666 -16.616  0.00  0.00    -0.375 NA
ATOM      5  N   UNL     1      37.605 -22.762 -15.056  0.00  0.00    -0.242 NA
ATOM      6  C   UNL     1      35.261 -23.148 -15.368  0.00  0.00    +0.233 A 
ATOM      7  C   UNL     1      34.733 -24.068 -13.329  0.00  0.00    +0.331 A 
ATOM      8  C   UNL     1      36.420 -23.194 -14.615  0.00  0.00    +0.187 A 
ATOM      9  C   UNL     1      36.410 -22.226 -17.077  0.00  0.00    +0.178 C 
ATOM     10  C   UNL     1      37.574 -22.272 -16.317  0.00  0.00    +0.194 C 
ATOM     11  H   UNL     1      36.761 -23.899 -12.637  0.00  0.00    +0.172 HD
ENDROOT
BRANCH   9  12
ATOM     12  C   UNL     1      36.400 -21.705 -18.403  0.00  0.00    -0.022 C 
ATOM     13  C   UNL     1      36.391 -21.267 -19.520  0.00  0.00    -0.007 C 
ENDBRANCH   9  12
BRANCH   2  14
ATOM     14  C   UNL     1      32.848 -23.813 -15.014  0.00  0.00    +0.092 C 
BRANCH  14  15
ATOM     15  C   UNL     1      32.710 -23.508 -16.513  0.00  0.00    +0.023 C 
ATOM     16  C   UNL     1      31.415 -22.781 -16.853  0.00  0.00    +0.002 C 
ENDBRANCH  14  15
BRANCH  14  17
ATOM     17  C   UNL     1      31.937 -22.886 -14.193  0.00  0.00    +0.023 C 
ATOM     18  C   UNL     1      30.862 -23.644 -13.425  0.00  0.00    +0.002 C 
ENDBRANCH  14  17
ENDBRANCH   2  14
TORSDOF 4
ENDMDL
MODEL 9
REMARK VINA RESULT:      -6.7      7.010      9.636
REMARK  Name = 23729157
REMARK  4 active torsions:
REMARK  status: ('A' for Active; 'I' for Inactive)
REMARK    1  A    between atoms: N_2  and  C_14
REMARK    2  A    between atoms: C_9  and  C_12
REMARK    3  A    between atoms: C_14  and  C_15
REMARK    4  A    between atoms: C_14  and  C_17
REMARK                            x       y       z     vdW  Elec       q    Type
REMARK                         _______ _______ _______ _____ _____    ______ ____
ROOT
ATOM      1  O   UNL     1      32.342 -24.991 -14.052  0.00  0.00    -0.246 OA
ATOM      2  N   UNL     1      31.931 -23.689 -15.995  0.00  0.00    -0.256 N 
ATOM      3  N   UNL     1      34.068 -24.097 -15.400  0.00  0.00    -0.289 N 
ATOM      4  N   UNL     1      32.436 -22.344 -18.007  0.00  0.00    -0.375 NA
ATOM      5  N   UNL     1      35.134 -22.870 -17.242  0.00  0.00    -0.242 NA
ATOM      6  C   UNL     1      32.767 -23.067 -16.931  0.00  0.00    +0.233 A 
ATOM      7  C   UNL     1      32.720 -24.345 -15.020  0.00  0.00    +0.331 A 
ATOM      8  C   UNL     1      34.076 -23.320 -16.562  0.00  0.00    +0.187 A 
ATOM      9  C   UNL     1      33.498 -21.883 -18.707  0.00  0.00    +0.178 C 
ATOM     10  C   UNL     1      34.813 -22.139 -18.334  0.00  0.00    +0.194 C 
ATOM     11  H   UNL     1      34.865 -24.421 -14.922  0.00  0.00    +0.172 HD
ENDROOT
BRANCH   9  12
ATOM     12  C   UNL     1      33.182 -21.109 -19.860  0.00  0.00    -0.022 C 
ATOM     13  C   UNL     1      32.915 -20.458 -20.832  0.00  0.00    -0.007 C 
ENDBRANCH   9  12
BRANCH   2  14
ATOM     14  C   UNL     1      30.485 -23.664 -16.020  0.00  0.00    +0.092 C 
BRANCH  14  15
ATOM     15  C   UNL     1      29.939 -22.780 -14.888  0.00  0.00    +0.023 C 
ATOM     16  C   UNL     1      28.659 -22.049 -15.273  0.00  0.00    +0.002 C 
ENDBRANCH  14  15
BRANCH  14  17
ATOM     17  C   UNL     1      29.916 -25.087 -15.909  0.00  0.00    +0.023 C 
ATOM     18  C   UNL     1      29.045 -25.279 -14.673  0.00  0.00    +0.002 C 
ENDBRANCH  14  17
ENDBRANCH   2  14
TORSDOF 4
ENDMDL
