MODEL 1
REMARK VINA RESULT:      -7.5      0.000      0.000
REMARK  Name = 49866988
REMARK  8 active torsions:
REMARK  status: ('A' for Active; 'I' for Inactive)
REMARK    1  A    between atoms: C_1  and  C_9
REMARK    2  A    between atoms: C_2  and  C_25
REMARK    3  A    between atoms: C_5  and  N_28
REMARK    4  A    between atoms: C_19  and  O_22
REMARK    5  A    between atoms: C_25  and  O_26
REMARK    6  A    between atoms: N_28  and  C_31
REMARK    7  A    between atoms: C_31  and  N_32
REMARK    8  A    between atoms: N_32  and  C_34
REMARK                            x       y       z     vdW  Elec       q    Type
REMARK                         _______ _______ _______ _____ _____    ______ ____
ROOT
ATOM      1  C   UNL     1      32.297  -8.723 -23.682  0.00  0.00    +0.006 C 
ATOM      2  C   UNL     1      33.432  -7.925 -23.831  0.00  0.00    +0.077 C 
ATOM      3  C   UNL     1      31.042  -8.220 -24.027  0.00  0.00    +0.001 C 
ATOM      4  C   UNL     1      33.312  -6.626 -24.323  0.00  0.00    +0.021 C 
ATOM      5  C   UNL     1      32.058  -6.123 -24.668  0.00  0.00    +0.050 C 
ATOM      6  C   UNL     1      30.923  -6.920 -24.521  0.00  0.00    +0.015 C 
ENDROOT
BRANCH   1   9
ATOM      7  O   UNL     1      32.549 -12.764 -22.140  0.00  0.00    -0.474 OA
ATOM      8  O   UNL     1      31.281 -11.123 -17.917  0.00  0.00    -0.291 OA
ATOM      9  C   UNL     1      32.385 -10.093 -23.166  0.00  0.00    +0.003 C 
ATOM     10  C   UNL     1      32.768 -11.249 -24.017  0.00  0.00    +0.022 C 
ATOM     11  C   UNL     1      32.108 -10.339 -21.856  0.00  0.00    +0.030 C 
ATOM     12  C   UNL     1      32.830 -12.526 -23.459  0.00  0.00    +0.213 C 
ATOM     13  C   UNL     1      32.189 -11.706 -21.318  0.00  0.00    +0.124 C 
ATOM     14  C   UNL     1      33.074 -11.108 -25.381  0.00  0.00    +0.003 C 
ATOM     15  C   UNL     1      31.718  -9.271 -20.923  0.00  0.00    +0.006 C 
ATOM     16  C   UNL     1      33.186 -13.638 -24.229  0.00  0.00    +0.058 C 
ATOM     17  C   UNL     1      31.920 -11.967 -20.030  0.00  0.00    +0.133 C 
ATOM     18  C   UNL     1      33.431 -12.217 -26.154  0.00  0.00    +0.036 C 
ATOM     19  C   UNL     1      33.487 -13.482 -25.578  0.00  0.00    +0.133 C 
ATOM     20  C   UNL     1      31.446  -9.512 -19.635  0.00  0.00    +0.038 C 
ATOM     21  C   UNL     1      31.528 -10.886 -19.094  0.00  0.00    +0.181 C 
BRANCH  19  22
ATOM     22  O   UNL     1      33.833 -14.561 -26.330  0.00  0.00    -0.506 OA
ATOM     23  H   UNL     1      33.328 -15.349 -26.280  0.00  0.00    +0.292 HD
ENDBRANCH  19  22
ENDBRANCH   1   9
BRANCH   2  25
ATOM     24  O   UNL     1      35.352  -9.338 -24.042  0.00  0.00    -0.245 OA
ATOM     25  C   UNL     1      34.762  -8.412 -23.480  0.00  0.00    +0.338 C 
BRANCH  25  26
ATOM     26  O   UNL     1      35.308  -7.724 -22.443  0.00  0.00    -0.477 OA
ATOM     27  H   UNL     1      35.421  -8.142 -21.611  0.00  0.00    +0.295 HD
ENDBRANCH  25  26
ENDBRANCH   2  25
BRANCH   5  28
ATOM     28  N   UNL     1      31.937  -4.824 -25.160  0.00  0.00    -0.296 N 
ATOM     29  H   UNL     1      32.179  -4.737 -26.111  0.00  0.00    +0.154 HD
BRANCH  28  31
ATOM     30  S   UNL     1      30.993  -2.222 -25.332  0.00  0.00    -0.019 S 
ATOM     31  C   UNL     1      31.537  -3.614 -24.566  0.00  0.00    +0.135 C 
BRANCH  31  32
ATOM     32  N   UNL     1      31.564  -3.597 -23.177  0.00  0.00    -0.316 N 
ATOM     33  H   UNL     1      32.444  -3.463 -22.757  0.00  0.00    +0.148 HD
BRANCH  32  34
ATOM     34  C   UNL     1      30.437  -3.756 -22.278  0.00  0.00    +0.088 C 
ATOM     35  C   UNL     1      30.448  -5.115 -21.609  0.00  0.00    +0.023 C 
ENDBRANCH  32  34
ENDBRANCH  31  32
ENDBRANCH  28  31
ENDBRANCH   5  28
TORSDOF 8
ENDMDL
MODEL 2
REMARK VINA RESULT:      -7.2      1.022      1.686
REMARK  Name = 49866988
REMARK  8 active torsions:
REMARK  status: ('A' for Active; 'I' for Inactive)
REMARK    1  A    between atoms: C_1  and  C_9
REMARK    2  A    between atoms: C_2  and  C_25
REMARK    3  A    between atoms: C_5  and  N_28
REMARK    4  A    between atoms: C_19  and  O_22
REMARK    5  A    between atoms: C_25  and  O_26
REMARK    6  A    between atoms: N_28  and  C_31
REMARK    7  A    between atoms: C_31  and  N_32
REMARK    8  A    between atoms: N_32  and  C_34
REMARK                            x       y       z     vdW  Elec       q    Type
REMARK                         _______ _______ _______ _____ _____    ______ ____
ROOT
ATOM      1  C   UNL     1      32.321  -8.673 -23.683  0.00  0.00    +0.006 C 
ATOM      2  C   UNL     1      33.467  -7.898 -23.864  0.00  0.00    +0.077 C 
ATOM      3  C   UNL     1      31.071  -8.159 -24.026  0.00  0.00    +0.001 C 
ATOM      4  C   UNL     1      33.362  -6.610 -24.386  0.00  0.00    +0.021 C 
ATOM      5  C   UNL     1      32.112  -6.096 -24.730  0.00  0.00    +0.050 C 
ATOM      6  C   UNL     1      30.966  -6.870 -24.550  0.00  0.00    +0.015 C 
ENDROOT
BRANCH   1   9
ATOM      7  O   UNL     1      32.527 -12.679 -22.044  0.00  0.00    -0.474 OA
ATOM      8  O   UNL     1      31.306 -10.919 -17.855  0.00  0.00    -0.291 OA
ATOM      9  C   UNL     1      32.393 -10.032 -23.134  0.00  0.00    +0.003 C 
ATOM     10  C   UNL     1      32.755 -11.213 -23.959  0.00  0.00    +0.022 C 
ATOM     11  C   UNL     1      32.120 -10.242 -21.817  0.00  0.00    +0.030 C 
ATOM     12  C   UNL     1      32.802 -12.477 -23.370  0.00  0.00    +0.213 C 
ATOM     13  C   UNL     1      32.186 -11.597 -21.246  0.00  0.00    +0.124 C 
ATOM     14  C   UNL     1      33.055 -11.110 -25.327  0.00  0.00    +0.003 C 
ATOM     15  C   UNL     1      31.751  -9.147 -20.908  0.00  0.00    +0.006 C 
ATOM     16  C   UNL     1      33.138 -13.612 -24.115  0.00  0.00    +0.058 C 
ATOM     17  C   UNL     1      31.921 -11.823 -19.951  0.00  0.00    +0.133 C 
ATOM     18  C   UNL     1      33.391 -12.243 -26.075  0.00  0.00    +0.036 C 
ATOM     19  C   UNL     1      33.433 -13.494 -25.469  0.00  0.00    +0.133 C 
ATOM     20  C   UNL     1      31.483  -9.352 -19.613  0.00  0.00    +0.038 C 
ATOM     21  C   UNL     1      31.549 -10.714 -19.039  0.00  0.00    +0.181 C 
BRANCH  19  22
ATOM     22  O   UNL     1      33.760 -14.595 -26.196  0.00  0.00    -0.506 OA
ATOM     23  H   UNL     1      33.567 -14.626 -27.113  0.00  0.00    +0.292 HD
ENDBRANCH  19  22
ENDBRANCH   1   9
BRANCH   2  25
ATOM     24  O   UNL     1      35.371  -9.332 -24.077  0.00  0.00    -0.245 OA
ATOM     25  C   UNL     1      34.793  -8.398 -23.516  0.00  0.00    +0.338 C 
BRANCH  25  26
ATOM     26  O   UNL     1      35.350  -7.712 -22.483  0.00  0.00    -0.477 OA
ATOM     27  H   UNL     1      35.871  -8.163 -21.847  0.00  0.00    +0.295 HD
ENDBRANCH  25  26
ENDBRANCH   2  25
BRANCH   5  28
ATOM     28  N   UNL     1      32.006  -4.807 -25.253  0.00  0.00    -0.296 N 
ATOM     29  H   UNL     1      32.397  -4.711 -26.152  0.00  0.00    +0.154 HD
BRANCH  28  31
ATOM     30  S   UNL     1      31.247  -3.180 -23.140  0.00  0.00    -0.019 S 
ATOM     31  C   UNL     1      31.451  -3.618 -24.748  0.00  0.00    +0.135 C 
BRANCH  31  32
ATOM     32  N   UNL     1      31.066  -2.688 -25.706  0.00  0.00    -0.316 N 
ATOM     33  H   UNL     1      30.111  -2.451 -25.728  0.00  0.00    +0.148 HD
BRANCH  32  34
ATOM     34  C   UNL     1      31.918  -2.030 -26.679  0.00  0.00    +0.088 C 
ATOM     35  C   UNL     1      31.662  -2.548 -28.079  0.00  0.00    +0.023 C 
ENDBRANCH  32  34
ENDBRANCH  31  32
ENDBRANCH  28  31
ENDBRANCH   5  28
TORSDOF 8
ENDMDL
MODEL 3
REMARK VINA RESULT:      -7.1     12.921     15.861
REMARK  Name = 49866988
REMARK  8 active torsions:
REMARK  status: ('A' for Active; 'I' for Inactive)
REMARK    1  A    between atoms: C_1  and  C_9
REMARK    2  A    between atoms: C_2  and  C_25
REMARK    3  A    between atoms: C_5  and  N_28
REMARK    4  A    between atoms: C_19  and  O_22
REMARK    5  A    between atoms: C_25  and  O_26
REMARK    6  A    between atoms: N_28  and  C_31
REMARK    7  A    between atoms: C_31  and  N_32
REMARK    8  A    between atoms: N_32  and  C_34
REMARK                            x       y       z     vdW  Elec       q    Type
REMARK                         _______ _______ _______ _____ _____    ______ ____
ROOT
ATOM      1  C   UNL     1      35.729 -22.397 -16.911  0.00  0.00    +0.006 C 
ATOM      2  C   UNL     1      34.925 -22.479 -18.048  0.00  0.00    +0.077 C 
ATOM      3  C   UNL     1      36.802 -21.506 -16.879  0.00  0.00    +0.001 C 
ATOM      4  C   UNL     1      35.195 -21.673 -19.153  0.00  0.00    +0.021 C 
ATOM      5  C   UNL     1      36.269 -20.783 -19.122  0.00  0.00    +0.050 C 
ATOM      6  C   UNL     1      37.072 -20.699 -17.985  0.00  0.00    +0.015 C 
ENDROOT
BRANCH   1   9
ATOM      7  O   UNL     1      34.999 -24.863 -13.424  0.00  0.00    -0.474 OA
ATOM      8  O   UNL     1      39.529 -26.133 -13.500  0.00  0.00    -0.291 OA
ATOM      9  C   UNL     1      35.475 -23.231 -15.731  0.00  0.00    +0.003 C 
ATOM     10  C   UNL     1      34.139 -23.331 -15.090  0.00  0.00    +0.022 C 
ATOM     11  C   UNL     1      36.493 -23.950 -15.182  0.00  0.00    +0.030 C 
ATOM     12  C   UNL     1      33.970 -24.143 -13.968  0.00  0.00    +0.213 C 
ATOM     13  C   UNL     1      36.261 -24.792 -13.998  0.00  0.00    +0.124 C 
ATOM     14  C   UNL     1      33.020 -22.631 -15.573  0.00  0.00    +0.003 C 
ATOM     15  C   UNL     1      37.856 -23.926 -15.733  0.00  0.00    +0.006 C 
ATOM     16  C   UNL     1      32.728 -24.262 -13.339  0.00  0.00    +0.058 C 
ATOM     17  C   UNL     1      37.251 -25.508 -13.445  0.00  0.00    +0.133 C 
ATOM     18  C   UNL     1      31.776 -22.748 -14.947  0.00  0.00    +0.036 C 
ATOM     19  C   UNL     1      31.630 -23.563 -13.829  0.00  0.00    +0.133 C 
ATOM     20  C   UNL     1      38.857 -24.633 -15.195  0.00  0.00    +0.038 C 
ATOM     21  C   UNL     1      38.623 -25.480 -14.005  0.00  0.00    +0.181 C 
BRANCH  19  22
ATOM     22  O   UNL     1      30.419 -23.676 -13.219  0.00  0.00    -0.506 OA
ATOM     23  H   UNL     1      30.319 -24.238 -12.477  0.00  0.00    +0.292 HD
ENDBRANCH  19  22
ENDBRANCH   1   9
BRANCH   2  25
ATOM     24  O   UNL     1      33.863 -24.623 -18.004  0.00  0.00    -0.245 OA
ATOM     25  C   UNL     1      33.794 -23.398 -18.122  0.00  0.00    +0.338 C 
BRANCH  25  26
ATOM     26  O   UNL     1      32.617 -22.752 -18.339  0.00  0.00    -0.477 OA
ATOM     27  H   UNL     1      31.888 -23.216 -18.703  0.00  0.00    +0.295 HD
ENDBRANCH  25  26
ENDBRANCH   2  25
BRANCH   5  28
ATOM     28  N   UNL     1      36.540 -19.976 -20.227  0.00  0.00    -0.296 N 
ATOM     29  H   UNL     1      37.489 -19.971 -20.490  0.00  0.00    +0.154 HD
BRANCH  28  31
ATOM     30  S   UNL     1      34.851 -19.629 -22.399  0.00  0.00    -0.019 S 
ATOM     31  C   UNL     1      35.724 -19.169 -21.039  0.00  0.00    +0.135 C 
BRANCH  31  32
ATOM     32  N   UNL     1      35.605 -17.846 -20.634  0.00  0.00    -0.316 N 
ATOM     33  H   UNL     1      36.020 -17.612 -19.773  0.00  0.00    +0.148 HD
BRANCH  32  34
ATOM     34  C   UNL     1      34.933 -16.772 -21.341  0.00  0.00    +0.088 C 
ATOM     35  C   UNL     1      34.598 -15.622 -20.413  0.00  0.00    +0.023 C 
ENDBRANCH  32  34
ENDBRANCH  31  32
ENDBRANCH  28  31
ENDBRANCH   5  28
TORSDOF 8
ENDMDL
MODEL 4
REMARK VINA RESULT:      -7.1      0.362      4.065
REMARK  Name = 49866988
REMARK  8 active torsions:
REMARK  status: ('A' for Active; 'I' for Inactive)
REMARK    1  A    between atoms: C_1  and  C_9
REMARK    2  A    between atoms: C_2  and  C_25
REMARK    3  A    between atoms: C_5  and  N_28
REMARK    4  A    between atoms: C_19  and  O_22
REMARK    5  A    between atoms: C_25  and  O_26
REMARK    6  A    between atoms: N_28  and  C_31
REMARK    7  A    between atoms: C_31  and  N_32
REMARK    8  A    between atoms: N_32  and  C_34
REMARK                            x       y       z     vdW  Elec       q    Type
REMARK                         _______ _______ _______ _____ _____    ______ ____
ROOT
ATOM      1  C   UNL     1      32.288  -8.692 -23.675  0.00  0.00    +0.006 C 
ATOM      2  C   UNL     1      33.433  -7.913 -23.844  0.00  0.00    +0.077 C 
ATOM      3  C   UNL     1      31.046  -8.204 -24.082  0.00  0.00    +0.001 C 
ATOM      4  C   UNL     1      33.335  -6.646 -24.419  0.00  0.00    +0.021 C 
ATOM      5  C   UNL     1      32.094  -6.158 -24.826  0.00  0.00    +0.050 C 
ATOM      6  C   UNL     1      30.949  -6.938 -24.658  0.00  0.00    +0.015 C 
ENDROOT
BRANCH   1   9
ATOM      7  O   UNL     1      32.486 -12.645 -21.911  0.00  0.00    -0.474 OA
ATOM      8  O   UNL     1      33.746 -14.346 -26.113  0.00  0.00    -0.291 OA
ATOM      9  C   UNL     1      32.353 -10.028 -23.072  0.00  0.00    +0.003 C 
ATOM     10  C   UNL     1      32.052 -10.278 -21.638  0.00  0.00    +0.022 C 
ATOM     11  C   UNL     1      32.701 -11.098 -23.838  0.00  0.00    +0.030 C 
ATOM     12  C   UNL     1      32.135 -11.575 -21.132  0.00  0.00    +0.213 C 
ATOM     13  C   UNL     1      32.773 -12.446 -23.254  0.00  0.00    +0.124 C 
ATOM     14  C   UNL     1      31.684  -9.247 -20.758  0.00  0.00    +0.003 C 
ATOM     15  C   UNL     1      33.019 -10.967 -25.268  0.00  0.00    +0.006 C 
ATOM     16  C   UNL     1      31.860 -11.849 -19.789  0.00  0.00    +0.058 C 
ATOM     17  C   UNL     1      33.114 -13.512 -23.994  0.00  0.00    +0.133 C 
ATOM     18  C   UNL     1      31.408  -9.517 -19.414  0.00  0.00    +0.036 C 
ATOM     19  C   UNL     1      31.496 -10.817 -18.930  0.00  0.00    +0.133 C 
ATOM     20  C   UNL     1      33.362 -12.018 -26.024  0.00  0.00    +0.038 C 
ATOM     21  C   UNL     1      33.434 -13.374 -25.435  0.00  0.00    +0.181 C 
BRANCH  19  22
ATOM     22  O   UNL     1      31.228 -11.079 -17.622  0.00  0.00    -0.506 OA
ATOM     23  H   UNL     1      31.921 -11.330 -17.043  0.00  0.00    +0.292 HD
ENDBRANCH  19  22
ENDBRANCH   1   9
BRANCH   2  25
ATOM     24  O   UNL     1      35.405  -9.259 -24.004  0.00  0.00    -0.245 OA
ATOM     25  C   UNL     1      34.750  -8.385 -23.431  0.00  0.00    +0.338 C 
BRANCH  25  26
ATOM     26  O   UNL     1      35.202  -7.748 -22.318  0.00  0.00    -0.477 OA
ATOM     27  H   UNL     1      35.139  -6.814 -22.254  0.00  0.00    +0.295 HD
ENDBRANCH  25  26
ENDBRANCH   2  25
BRANCH   5  28
ATOM     28  N   UNL     1      31.995  -4.891 -25.401  0.00  0.00    -0.296 N 
ATOM     29  H   UNL     1      32.257  -4.866 -26.351  0.00  0.00    +0.154 HD
BRANCH  28  31
ATOM     30  S   UNL     1      32.101  -2.120 -25.389  0.00  0.00    -0.019 S 
ATOM     31  C   UNL     1      31.596  -3.643 -24.892  0.00  0.00    +0.135 C 
BRANCH  31  32
ATOM     32  N   UNL     1      30.640  -3.690 -23.884  0.00  0.00    -0.316 N 
ATOM     33  H   UNL     1      29.700  -3.717 -24.173  0.00  0.00    +0.148 HD
BRANCH  32  34
ATOM     34  C   UNL     1      30.878  -3.704 -22.453  0.00  0.00    +0.088 C 
ATOM     35  C   UNL     1      30.406  -4.999 -21.825  0.00  0.00    +0.023 C 
ENDBRANCH  32  34
ENDBRANCH  31  32
ENDBRANCH  28  31
ENDBRANCH   5  28
TORSDOF 8
ENDMDL
MODEL 5
REMARK VINA RESULT:      -6.7      1.044      4.385
REMARK  Name = 49866988
REMARK  8 active torsions:
REMARK  status: ('A' for Active; 'I' for Inactive)
REMARK    1  A    between atoms: C_1  and  C_9
REMARK    2  A    between atoms: C_2  and  C_25
REMARK    3  A    between atoms: C_5  and  N_28
REMARK    4  A    between atoms: C_19  and  O_22
REMARK    5  A    between atoms: C_25  and  O_26
REMARK    6  A    between atoms: N_28  and  C_31
REMARK    7  A    between atoms: C_31  and  N_32
REMARK    8  A    between atoms: N_32  and  C_34
REMARK                            x       y       z     vdW  Elec       q    Type
REMARK                         _______ _______ _______ _____ _____    ______ ____
ROOT
ATOM      1  C   UNL     1      32.264  -8.630 -23.666  0.00  0.00    +0.006 C 
ATOM      2  C   UNL     1      33.409  -7.853 -23.845  0.00  0.00    +0.077 C 
ATOM      3  C   UNL     1      31.020  -8.138 -24.062  0.00  0.00    +0.001 C 
ATOM      4  C   UNL     1      33.311  -6.586 -24.419  0.00  0.00    +0.021 C 
ATOM      5  C   UNL     1      32.067  -6.095 -24.815  0.00  0.00    +0.050 C 
ATOM      6  C   UNL     1      30.922  -6.870 -24.637  0.00  0.00    +0.015 C 
ENDROOT
BRANCH   1   9
ATOM      7  O   UNL     1      32.466 -12.583 -21.905  0.00  0.00    -0.474 OA
ATOM      8  O   UNL     1      33.706 -14.283 -26.114  0.00  0.00    -0.291 OA
ATOM      9  C   UNL     1      32.330  -9.966 -23.064  0.00  0.00    +0.003 C 
ATOM     10  C   UNL     1      32.036 -10.216 -21.630  0.00  0.00    +0.022 C 
ATOM     11  C   UNL     1      32.674 -11.035 -23.833  0.00  0.00    +0.030 C 
ATOM     12  C   UNL     1      32.120 -11.514 -21.124  0.00  0.00    +0.213 C 
ATOM     13  C   UNL     1      32.747 -12.384 -23.249  0.00  0.00    +0.124 C 
ATOM     14  C   UNL     1      31.672  -9.186 -20.747  0.00  0.00    +0.003 C 
ATOM     15  C   UNL     1      32.986 -10.904 -25.264  0.00  0.00    +0.006 C 
ATOM     16  C   UNL     1      31.850 -11.788 -19.780  0.00  0.00    +0.058 C 
ATOM     17  C   UNL     1      33.084 -13.449 -23.992  0.00  0.00    +0.133 C 
ATOM     18  C   UNL     1      31.402  -9.455 -19.402  0.00  0.00    +0.036 C 
ATOM     19  C   UNL     1      31.491 -10.756 -18.918  0.00  0.00    +0.133 C 
ATOM     20  C   UNL     1      33.324 -11.955 -26.021  0.00  0.00    +0.038 C 
ATOM     21  C   UNL     1      33.397 -13.311 -25.434  0.00  0.00    +0.181 C 
BRANCH  19  22
ATOM     22  O   UNL     1      31.229 -11.019 -17.610  0.00  0.00    -0.506 OA
ATOM     23  H   UNL     1      31.018 -10.318 -17.024  0.00  0.00    +0.292 HD
ENDBRANCH  19  22
ENDBRANCH   1   9
BRANCH   2  25
ATOM     24  O   UNL     1      35.386  -9.190 -24.036  0.00  0.00    -0.245 OA
ATOM     25  C   UNL     1      34.729  -8.330 -23.444  0.00  0.00    +0.338 C 
BRANCH  25  26
ATOM     26  O   UNL     1      35.181  -7.714 -22.319  0.00  0.00    -0.477 OA
ATOM     27  H   UNL     1      35.378  -6.798 -22.333  0.00  0.00    +0.295 HD
ENDBRANCH  25  26
ENDBRANCH   2  25
BRANCH   5  28
ATOM     28  N   UNL     1      31.968  -4.827 -25.389  0.00  0.00    -0.296 N 
ATOM     29  H   UNL     1      32.253  -4.796 -26.331  0.00  0.00    +0.154 HD
BRANCH  28  31
ATOM     30  S   UNL     1      31.311  -3.150 -23.280  0.00  0.00    -0.019 S 
ATOM     31  C   UNL     1      31.539  -3.586 -24.886  0.00  0.00    +0.135 C 
BRANCH  31  32
ATOM     32  N   UNL     1      31.320  -2.601 -25.841  0.00  0.00    -0.316 N 
ATOM     33  H   UNL     1      30.537  -2.022 -25.702  0.00  0.00    +0.148 HD
BRANCH  32  34
ATOM     34  C   UNL     1      32.119  -2.335 -27.023  0.00  0.00    +0.088 C 
ATOM     35  C   UNL     1      33.489  -1.800 -26.656  0.00  0.00    +0.023 C 
ENDBRANCH  32  34
ENDBRANCH  31  32
ENDBRANCH  28  31
ENDBRANCH   5  28
TORSDOF 8
ENDMDL
MODEL 6
REMARK VINA RESULT:      -6.3     12.938     15.665
REMARK  Name = 49866988
REMARK  8 active torsions:
REMARK  status: ('A' for Active; 'I' for Inactive)
REMARK    1  A    between atoms: C_1  and  C_9
REMARK    2  A    between atoms: C_2  and  C_25
REMARK    3  A    between atoms: C_5  and  N_28
REMARK    4  A    between atoms: C_19  and  O_22
REMARK    5  A    between atoms: C_25  and  O_26
REMARK    6  A    between atoms: N_28  and  C_31
REMARK    7  A    between atoms: C_31  and  N_32
REMARK    8  A    between atoms: N_32  and  C_34
REMARK                            x       y       z     vdW  Elec       q    Type
REMARK                         _______ _______ _______ _____ _____    ______ ____
ROOT
ATOM      1  C   UNL     1      35.825 -22.368 -16.925  0.00  0.00    +0.006 C 
ATOM      2  C   UNL     1      35.004 -22.486 -18.047  0.00  0.00    +0.077 C 
ATOM      3  C   UNL     1      36.858 -21.432 -16.914  0.00  0.00    +0.001 C 
ATOM      4  C   UNL     1      35.217 -21.669 -19.157  0.00  0.00    +0.021 C 
ATOM      5  C   UNL     1      36.251 -20.733 -19.145  0.00  0.00    +0.050 C 
ATOM      6  C   UNL     1      37.071 -20.614 -18.023  0.00  0.00    +0.015 C 
ENDROOT
BRANCH   1   9
ATOM      7  O   UNL     1      35.232 -24.858 -13.429  0.00  0.00    -0.474 OA
ATOM      8  O   UNL     1      30.734 -23.481 -13.336  0.00  0.00    -0.291 OA
ATOM      9  C   UNL     1      35.630 -23.212 -15.741  0.00  0.00    +0.003 C 
ATOM     10  C   UNL     1      36.724 -24.022 -15.145  0.00  0.00    +0.022 C 
ATOM     11  C   UNL     1      34.406 -23.273 -15.150  0.00  0.00    +0.030 C 
ATOM     12  C   UNL     1      36.467 -24.804 -14.018  0.00  0.00    +0.213 C 
ATOM     13  C   UNL     1      34.189 -24.114 -13.962  0.00  0.00    +0.124 C 
ATOM     14  C   UNL     1      38.025 -24.035 -15.675  0.00  0.00    +0.003 C 
ATOM     15  C   UNL     1      33.253 -22.514 -15.655  0.00  0.00    +0.006 C 
ATOM     16  C   UNL     1      37.471 -25.580 -13.429  0.00  0.00    +0.058 C 
ATOM     17  C   UNL     1      32.990 -24.185 -13.365  0.00  0.00    +0.133 C 
ATOM     18  C   UNL     1      39.031 -24.808 -15.089  0.00  0.00    +0.036 C 
ATOM     19  C   UNL     1      38.754 -25.581 -13.966  0.00  0.00    +0.133 C 
ATOM     20  C   UNL     1      32.048 -22.571 -15.074  0.00  0.00    +0.038 C 
ATOM     21  C   UNL     1      31.831 -23.417 -13.880  0.00  0.00    +0.181 C 
BRANCH  19  22
ATOM     22  O   UNL     1      39.732 -26.334 -13.396  0.00  0.00    -0.506 OA
ATOM     23  H   UNL     1      40.519 -26.517 -13.870  0.00  0.00    +0.292 HD
ENDBRANCH  19  22
ENDBRANCH   1   9
BRANCH   2  25
ATOM     24  O   UNL     1      34.018 -24.660 -17.867  0.00  0.00    -0.245 OA
ATOM     25  C   UNL     1      33.912 -23.453 -18.100  0.00  0.00    +0.338 C 
BRANCH  25  26
ATOM     26  O   UNL     1      32.728 -22.878 -18.441  0.00  0.00    -0.477 OA
ATOM     27  H   UNL     1      32.138 -22.590 -17.772  0.00  0.00    +0.295 HD
ENDBRANCH  25  26
ENDBRANCH   2  25
BRANCH   5  28
ATOM     28  N   UNL     1      36.465 -19.915 -20.255  0.00  0.00    -0.296 N 
ATOM     29  H   UNL     1      37.404 -19.889 -20.552  0.00  0.00    +0.154 HD
BRANCH  28  31
ATOM     30  S   UNL     1      34.714 -19.583 -22.379  0.00  0.00    -0.019 S 
ATOM     31  C   UNL     1      35.604 -19.120 -21.032  0.00  0.00    +0.135 C 
BRANCH  31  32
ATOM     32  N   UNL     1      35.452 -17.809 -20.599  0.00  0.00    -0.316 N 
ATOM     33  H   UNL     1      35.675 -17.630 -19.657  0.00  0.00    +0.148 HD
BRANCH  32  34
ATOM     34  C   UNL     1      34.999 -16.676 -21.383  0.00  0.00    +0.088 C 
ATOM     35  C   UNL     1      34.571 -15.524 -20.496  0.00  0.00    +0.023 C 
ENDBRANCH  32  34
ENDBRANCH  31  32
ENDBRANCH  28  31
ENDBRANCH   5  28
TORSDOF 8
ENDMDL
MODEL 7
REMARK VINA RESULT:      -5.8      2.213      4.924
REMARK  Name = 49866988
REMARK  8 active torsions:
REMARK  status: ('A' for Active; 'I' for Inactive)
REMARK    1  A    between atoms: C_1  and  C_9
REMARK    2  A    between atoms: C_2  and  C_25
REMARK    3  A    between atoms: C_5  and  N_28
REMARK    4  A    between atoms: C_19  and  O_22
REMARK    5  A    between atoms: C_25  and  O_26
REMARK    6  A    between atoms: N_28  and  C_31
REMARK    7  A    between atoms: C_31  and  N_32
REMARK    8  A    between atoms: N_32  and  C_34
REMARK                            x       y       z     vdW  Elec       q    Type
REMARK                         _______ _______ _______ _____ _____    ______ ____
ROOT
ATOM      1  C   UNL     1      33.279  -8.947 -23.711  0.00  0.00    +0.006 C 
ATOM      2  C   UNL     1      32.345  -7.925 -23.880  0.00  0.00    +0.077 C 
ATOM      3  C   UNL     1      34.594  -8.768 -24.140  0.00  0.00    +0.001 C 
ATOM      4  C   UNL     1      32.725  -6.725 -24.479  0.00  0.00    +0.021 C 
ATOM      5  C   UNL     1      34.040  -6.546 -24.909  0.00  0.00    +0.050 C 
ATOM      6  C   UNL     1      34.975  -7.567 -24.739  0.00  0.00    +0.015 C 
ENDROOT
BRANCH   1   9
ATOM      7  O   UNL     1      32.207 -12.726 -21.882  0.00  0.00    -0.474 OA
ATOM      8  O   UNL     1      33.272 -14.872 -25.932  0.00  0.00    -0.291 OA
ATOM      9  C   UNL     1      32.913 -10.224 -23.086  0.00  0.00    +0.003 C 
ATOM     10  C   UNL     1      32.439 -10.324 -21.682  0.00  0.00    +0.022 C 
ATOM     11  C   UNL     1      33.007 -11.376 -23.804  0.00  0.00    +0.030 C 
ATOM     12  C   UNL     1      32.110 -11.572 -21.152  0.00  0.00    +0.213 C 
ATOM     13  C   UNL     1      32.646 -12.668 -23.197  0.00  0.00    +0.124 C 
ATOM     14  C   UNL     1      32.306  -9.199 -20.852  0.00  0.00    +0.003 C 
ATOM     15  C   UNL     1      33.464 -11.395 -25.201  0.00  0.00    +0.006 C 
ATOM     16  C   UNL     1      31.661 -11.706 -19.835  0.00  0.00    +0.058 C 
ATOM     17  C   UNL     1      32.731 -13.813 -23.889  0.00  0.00    +0.133 C 
ATOM     18  C   UNL     1      31.857  -9.328 -19.534  0.00  0.00    +0.036 C 
ATOM     19  C   UNL     1      31.534 -10.582 -19.026  0.00  0.00    +0.133 C 
ATOM     20  C   UNL     1      33.556 -12.528 -25.909  0.00  0.00    +0.038 C 
ATOM     21  C   UNL     1      33.193 -13.826 -25.298  0.00  0.00    +0.181 C 
BRANCH  19  22
ATOM     22  O   UNL     1      31.098 -10.708 -17.744  0.00  0.00    -0.506 OA
ATOM     23  H   UNL     1      31.406 -10.119 -17.084  0.00  0.00    +0.292 HD
ENDBRANCH  19  22
ENDBRANCH   1   9
BRANCH   2  25
ATOM     24  O   UNL     1      30.247  -9.055 -23.662  0.00  0.00    -0.245 OA
ATOM     25  C   UNL     1      30.960  -8.072 -23.446  0.00  0.00    +0.338 C 
BRANCH  25  26
ATOM     26  O   UNL     1      30.516  -6.988 -22.756  0.00  0.00    -0.477 OA
ATOM     27  H   UNL     1      30.990  -6.683 -22.007  0.00  0.00    +0.295 HD
ENDBRANCH  25  26
ENDBRANCH   2  25
BRANCH   5  28
ATOM     28  N   UNL     1      34.422  -5.345 -25.508  0.00  0.00    -0.296 N 
ATOM     29  H   UNL     1      34.736  -4.665 -24.868  0.00  0.00    +0.154 HD
BRANCH  28  31
ATOM     30  S   UNL     1      35.787  -4.484 -27.763  0.00  0.00    -0.019 S 
ATOM     31  C   UNL     1      34.447  -4.916 -26.847  0.00  0.00    +0.135 C 
BRANCH  31  32
ATOM     32  N   UNL     1      33.214  -4.888 -27.485  0.00  0.00    -0.316 N 
ATOM     33  H   UNL     1      32.877  -5.747 -27.827  0.00  0.00    +0.148 HD
BRANCH  32  34
ATOM     34  C   UNL     1      32.369  -3.729 -27.705  0.00  0.00    +0.088 C 
ATOM     35  C   UNL     1      31.833  -3.178 -26.400  0.00  0.00    +0.023 C 
ENDBRANCH  32  34
ENDBRANCH  31  32
ENDBRANCH  28  31
ENDBRANCH   5  28
TORSDOF 8
ENDMDL
MODEL 8
REMARK VINA RESULT:      -5.7     13.155     15.965
REMARK  Name = 49866988
REMARK  8 active torsions:
REMARK  status: ('A' for Active; 'I' for Inactive)
REMARK    1  A    between atoms: C_1  and  C_9
REMARK    2  A    between atoms: C_2  and  C_25
REMARK    3  A    between atoms: C_5  and  N_28
REMARK    4  A    between atoms: C_19  and  O_22
REMARK    5  A    between atoms: C_25  and  O_26
REMARK    6  A    between atoms: N_28  and  C_31
REMARK    7  A    between atoms: C_31  and  N_32
REMARK    8  A    between atoms: N_32  and  C_34
REMARK                            x       y       z     vdW  Elec       q    Type
REMARK                         _______ _______ _______ _____ _____    ______ ____
ROOT
ATOM      1  C   UNL     1      35.033 -22.985 -16.986  0.00  0.00    +0.006 C 
ATOM      2  C   UNL     1      35.978 -21.979 -17.188  0.00  0.00    +0.077 C 
ATOM      3  C   UNL     1      34.189 -23.367 -18.030  0.00  0.00    +0.001 C 
ATOM      4  C   UNL     1      36.079 -21.355 -18.430  0.00  0.00    +0.021 C 
ATOM      5  C   UNL     1      35.236 -21.737 -19.474  0.00  0.00    +0.050 C 
ATOM      6  C   UNL     1      34.291 -22.744 -19.273  0.00  0.00    +0.015 C 
ENDROOT
BRANCH   1   9
ATOM      7  O   UNL     1      34.612 -24.980 -13.163  0.00  0.00    -0.474 OA
ATOM      8  O   UNL     1      30.078 -23.725 -13.121  0.00  0.00    -0.291 OA
ATOM      9  C   UNL     1      34.897 -23.661 -15.692  0.00  0.00    +0.003 C 
ATOM     10  C   UNL     1      36.030 -24.351 -15.023  0.00  0.00    +0.022 C 
ATOM     11  C   UNL     1      33.691 -23.672 -15.060  0.00  0.00    +0.030 C 
ATOM     12  C   UNL     1      35.828 -24.975 -13.792  0.00  0.00    +0.213 C 
ATOM     13  C   UNL     1      33.533 -24.345 -13.761  0.00  0.00    +0.124 C 
ATOM     14  C   UNL     1      37.316 -24.402 -15.587  0.00  0.00    +0.003 C 
ATOM     15  C   UNL     1      32.502 -23.021 -15.629  0.00  0.00    +0.006 C 
ATOM     16  C   UNL     1      36.871 -25.634 -13.133  0.00  0.00    +0.058 C 
ATOM     17  C   UNL     1      32.353 -24.365 -13.123  0.00  0.00    +0.133 C 
ATOM     18  C   UNL     1      38.361 -25.059 -14.931  0.00  0.00    +0.036 C 
ATOM     19  C   UNL     1      38.138 -25.676 -13.704  0.00  0.00    +0.133 C 
ATOM     20  C   UNL     1      31.316 -23.030 -15.008  0.00  0.00    +0.038 C 
ATOM     21  C   UNL     1      31.157 -23.707 -13.702  0.00  0.00    +0.181 C 
BRANCH  19  22
ATOM     22  O   UNL     1      39.155 -26.316 -13.066  0.00  0.00    -0.506 OA
ATOM     23  H   UNL     1      39.735 -26.871 -13.549  0.00  0.00    +0.292 HD
ENDBRANCH  19  22
ENDBRANCH   1   9
BRANCH   2  25
ATOM     24  O   UNL     1      36.675 -21.697 -14.916  0.00  0.00    -0.245 OA
ATOM     25  C   UNL     1      36.878 -21.549 -16.123  0.00  0.00    +0.338 C 
BRANCH  25  26
ATOM     26  O   UNL     1      38.000 -20.951 -16.605  0.00  0.00    -0.477 OA
ATOM     27  H   UNL     1      38.807 -21.427 -16.640  0.00  0.00    +0.295 HD
ENDBRANCH  25  26
ENDBRANCH   2  25
BRANCH   5  28
ATOM     28  N   UNL     1      35.336 -21.114 -20.718  0.00  0.00    -0.296 N 
ATOM     29  H   UNL     1      35.968 -21.555 -21.331  0.00  0.00    +0.154 HD
BRANCH  28  31
ATOM     30  S   UNL     1      33.146 -19.436 -20.997  0.00  0.00    -0.019 S 
ATOM     31  C   UNL     1      34.712 -19.980 -21.267  0.00  0.00    +0.135 C 
BRANCH  31  32
ATOM     32  N   UNL     1      35.511 -19.207 -22.100  0.00  0.00    -0.316 N 
ATOM     33  H   UNL     1      36.482 -19.266 -21.955  0.00  0.00    +0.148 HD
BRANCH  32  34
ATOM     34  C   UNL     1      35.069 -18.319 -23.159  0.00  0.00    +0.088 C 
ATOM     35  C   UNL     1      34.690 -19.091 -24.406  0.00  0.00    +0.023 C 
ENDBRANCH  32  34
ENDBRANCH  31  32
ENDBRANCH  28  31
ENDBRANCH   5  28
TORSDOF 8
ENDMDL
MODEL 9
REMARK VINA RESULT:      -5.4      2.331      3.148
REMARK  Name = 49866988
REMARK  8 active torsions:
REMARK  status: ('A' for Active; 'I' for Inactive)
REMARK    1  A    between atoms: C_1  and  C_9
REMARK    2  A    between atoms: C_2  and  C_25
REMARK    3  A    between atoms: C_5  and  N_28
REMARK    4  A    between atoms: C_19  and  O_22
REMARK    5  A    between atoms: C_25  and  O_26
REMARK    6  A    between atoms: N_28  and  C_31
REMARK    7  A    between atoms: C_31  and  N_32
REMARK    8  A    between atoms: N_32  and  C_34
REMARK                            x       y       z     vdW  Elec       q    Type
REMARK                         _______ _______ _______ _____ _____    ______ ____
ROOT
ATOM      1  C   UNL     1      33.228  -8.709 -23.802  0.00  0.00    +0.006 C 
ATOM      2  C   UNL     1      32.243  -7.738 -23.990  0.00  0.00    +0.077 C 
ATOM      3  C   UNL     1      34.534  -8.468 -24.230  0.00  0.00    +0.001 C 
ATOM      4  C   UNL     1      32.564  -6.529 -24.606  0.00  0.00    +0.021 C 
ATOM      5  C   UNL     1      33.869  -6.289 -25.034  0.00  0.00    +0.050 C 
ATOM      6  C   UNL     1      34.854  -7.258 -24.846  0.00  0.00    +0.015 C 
ENDROOT
BRANCH   1   9
ATOM      7  O   UNL     1      32.332 -12.491 -21.888  0.00  0.00    -0.474 OA
ATOM      8  O   UNL     1      31.384 -10.144 -17.922  0.00  0.00    -0.291 OA
ATOM      9  C   UNL     1      32.927  -9.993 -23.159  0.00  0.00    +0.003 C 
ATOM     10  C   UNL     1      33.020 -11.290 -23.876  0.00  0.00    +0.022 C 
ATOM     11  C   UNL     1      32.543 -10.019 -21.854  0.00  0.00    +0.030 C 
ATOM     12  C   UNL     1      32.716 -12.474 -23.202  0.00  0.00    +0.213 C 
ATOM     13  C   UNL     1      32.235 -11.296 -21.190  0.00  0.00    +0.124 C 
ATOM     14  C   UNL     1      33.405 -11.378 -25.224  0.00  0.00    +0.003 C 
ATOM     15  C   UNL     1      32.417  -8.795 -21.048  0.00  0.00    +0.006 C 
ATOM     16  C   UNL     1      32.792 -13.714 -23.843  0.00  0.00    +0.058 C 
ATOM     17  C   UNL     1      31.856 -11.342 -19.904  0.00  0.00    +0.133 C 
ATOM     18  C   UNL     1      33.482 -12.616 -25.869  0.00  0.00    +0.036 C 
ATOM     19  C   UNL     1      33.176 -13.784 -25.178  0.00  0.00    +0.133 C 
ATOM     20  C   UNL     1      32.041  -8.820 -19.764  0.00  0.00    +0.038 C 
ATOM     21  C   UNL     1      31.731 -10.104 -19.097  0.00  0.00    +0.181 C 
BRANCH  19  22
ATOM     22  O   UNL     1      33.250 -14.989 -25.806  0.00  0.00    -0.506 OA
ATOM     23  H   UNL     1      33.770 -15.083 -26.579  0.00  0.00    +0.292 HD
ENDBRANCH  19  22
ENDBRANCH   1   9
BRANCH   2  25
ATOM     24  O   UNL     1      30.187  -8.949 -23.808  0.00  0.00    -0.245 OA
ATOM     25  C   UNL     1      30.866  -7.950 -23.557  0.00  0.00    +0.338 C 
BRANCH  25  26
ATOM     26  O   UNL     1      30.387  -6.908 -22.827  0.00  0.00    -0.477 OA
ATOM     27  H   UNL     1      30.698  -6.039 -22.992  0.00  0.00    +0.295 HD
ENDBRANCH  25  26
ENDBRANCH   2  25
BRANCH   5  28
ATOM     28  N   UNL     1      34.191  -5.080 -25.651  0.00  0.00    -0.296 N 
ATOM     29  H   UNL     1      34.341  -4.340 -25.018  0.00  0.00    +0.154 HD
BRANCH  28  31
ATOM     30  S   UNL     1      35.765  -4.330 -27.806  0.00  0.00    -0.019 S 
ATOM     31  C   UNL     1      34.342  -4.710 -26.999  0.00  0.00    +0.135 C 
BRANCH  31  32
ATOM     32  N   UNL     1      33.173  -4.699 -27.748  0.00  0.00    -0.316 N 
ATOM     33  H   UNL     1      32.341  -4.907 -27.264  0.00  0.00    +0.148 HD
BRANCH  32  34
ATOM     34  C   UNL     1      33.043  -4.415 -29.165  0.00  0.00    +0.088 C 
ATOM     35  C   UNL     1      31.845  -3.533 -29.446  0.00  0.00    +0.023 C 
ENDBRANCH  32  34
ENDBRANCH  31  32
ENDBRANCH  28  31
ENDBRANCH   5  28
TORSDOF 8
ENDMDL
