MODEL 1
REMARK VINA RESULT:      -7.7      0.000      0.000
REMARK  Name = 2446
REMARK  8 active torsions:
REMARK  status: ('A' for Active; 'I' for Inactive)
REMARK    1  A    between atoms: N_2  and  C_17
REMARK    2  A    between atoms: C_3  and  C_6
REMARK    3  A    between atoms: C_7  and  O_15
REMARK    4  A    between atoms: C_10  and  N_12
REMARK    5  A    between atoms: C_17  and  C_18
REMARK    6  A    between atoms: C_18  and  N_19
REMARK    7  A    between atoms: N_19  and  C_21
REMARK    8  A    between atoms: N_19  and  C_23
REMARK                            x       y       z     vdW  Elec       q    Type
REMARK                         _______ _______ _______ _____ _____    ______ ____
ROOT
ATOM      1  O   UNL     1      34.008 -23.515 -19.665  0.00  0.00    -0.270 OA
ATOM      2  N   UNL     1      35.364 -21.785 -18.925  0.00  0.00    -0.303 N 
ATOM      3  C   UNL     1      34.420 -22.791 -18.762  0.00  0.00    +0.249 C 
ATOM      4  H   UNL     1      35.631 -21.256 -18.139  0.00  0.00    +0.150 HD
ENDROOT
BRANCH   3   6
ATOM      5 BR   UNL     1      30.079 -23.143 -15.764  0.00  0.00    -0.048 Br
ATOM      6  C   UNL     1      33.873 -22.959 -17.391  0.00  0.00    +0.088 C 
ATOM      7  C   UNL     1      34.734 -23.094 -16.321  0.00  0.00    +0.144 C 
ATOM      8  C   UNL     1      32.501 -22.972 -17.235  0.00  0.00    +0.015 C 
ATOM      9  C   UNL     1      34.201 -23.249 -15.041  0.00  0.00    +0.052 C 
ATOM     10  C   UNL     1      32.818 -23.266 -14.858  0.00  0.00    +0.051 C 
ATOM     11  C   UNL     1      31.968 -23.128 -15.956  0.00  0.00    +0.048 C 
BRANCH  10  12
ATOM     12  N   UNL     1      32.312 -23.426 -13.549  0.00  0.00    -0.357 N 
ATOM     13  H   UNL     1      32.903 -23.289 -12.773  0.00  0.00    +0.142 HD
ATOM     14  H   UNL     1      31.369 -23.674 -13.412  0.00  0.00    +0.142 HD
ENDBRANCH  10  12
BRANCH   7  15
ATOM     15  O   UNL     1      36.087 -23.079 -16.478  0.00  0.00    -0.471 OA
ATOM     16  C   UNL     1      36.871 -23.548 -15.383  0.00  0.00    +0.252 C 
ENDBRANCH   7  15
ENDBRANCH   3   6
BRANCH   2  17
ATOM     17  C   UNL     1      35.967 -21.484 -20.195  0.00  0.00    +0.067 C 
BRANCH  17  18
ATOM     18  C   UNL     1      35.923 -19.991 -20.486  0.00  0.00    -0.056 C 
BRANCH  18  19
ATOM     19  N   UNL     1      34.947 -19.707 -21.538  0.00  0.00    +0.388 N 
ATOM     20  H   UNL     1      34.643 -20.592 -21.943  0.00  0.00    -0.080 HD
BRANCH  19  21
ATOM     21  C   UNL     1      33.779 -19.026 -20.981  0.00  0.00    -0.077 C 
ATOM     22  C   UNL     1      32.711 -20.038 -20.615  0.00  0.00    -0.025 C 
ENDBRANCH  19  21
BRANCH  19  23
ATOM     23  C   UNL     1      35.556 -18.899 -22.594  0.00  0.00    -0.077 C 
ATOM     24  C   UNL     1      34.857 -19.153 -23.916  0.00  0.00    -0.025 C 
ENDBRANCH  19  23
ENDBRANCH  18  19
ENDBRANCH  17  18
ENDBRANCH   2  17
TORSDOF 8
ENDMDL
MODEL 2
REMARK VINA RESULT:      -7.5      6.274      9.741
REMARK  Name = 2446
REMARK  8 active torsions:
REMARK  status: ('A' for Active; 'I' for Inactive)
REMARK    1  A    between atoms: N_2  and  C_17
REMARK    2  A    between atoms: C_3  and  C_6
REMARK    3  A    between atoms: C_7  and  O_15
REMARK    4  A    between atoms: C_10  and  N_12
REMARK    5  A    between atoms: C_17  and  C_18
REMARK    6  A    between atoms: C_18  and  N_19
REMARK    7  A    between atoms: N_19  and  C_21
REMARK    8  A    between atoms: N_19  and  C_23
REMARK                            x       y       z     vdW  Elec       q    Type
REMARK                         _______ _______ _______ _____ _____    ______ ____
ROOT
ATOM      1  O   UNL     1      32.222 -16.107 -20.658  0.00  0.00    -0.270 OA
ATOM      2  N   UNL     1      34.416 -15.544 -21.158  0.00  0.00    -0.303 N 
ATOM      3  C   UNL     1      33.056 -15.288 -21.037  0.00  0.00    +0.249 C 
ATOM      4  H   UNL     1      35.006 -14.821 -21.471  0.00  0.00    +0.150 HD
ENDROOT
BRANCH   3   6
ATOM      5 BR   UNL     1      31.097 -10.659 -19.398  0.00  0.00    -0.048 Br
ATOM      6  C   UNL     1      32.609 -13.926 -21.426  0.00  0.00    +0.088 C 
ATOM      7  C   UNL     1      32.662 -13.539 -22.750  0.00  0.00    +0.144 C 
ATOM      8  C   UNL     1      32.149 -13.084 -20.433  0.00  0.00    +0.015 C 
ATOM      9  C   UNL     1      32.238 -12.256 -23.095  0.00  0.00    +0.052 C 
ATOM     10  C   UNL     1      31.769 -11.387 -22.110  0.00  0.00    +0.051 C 
ATOM     11  C   UNL     1      31.725 -11.801 -20.779  0.00  0.00    +0.048 C 
BRANCH  10  12
ATOM     12  N   UNL     1      31.348 -10.094 -22.494  0.00  0.00    -0.357 N 
ATOM     13  H   UNL     1      30.651  -9.629 -21.977  0.00  0.00    +0.142 HD
ATOM     14  H   UNL     1      31.751  -9.658 -23.279  0.00  0.00    +0.142 HD
ENDBRANCH  10  12
BRANCH   7  15
ATOM     15  O   UNL     1      33.115 -14.373 -23.727  0.00  0.00    -0.471 OA
ATOM     16  C   UNL     1      33.086 -13.879 -25.064  0.00  0.00    +0.252 C 
ENDBRANCH   7  15
ENDBRANCH   3   6
BRANCH   2  17
ATOM     17  C   UNL     1      34.997 -16.821 -20.844  0.00  0.00    +0.067 C 
BRANCH  17  18
ATOM     18  C   UNL     1      35.383 -17.576 -22.108  0.00  0.00    -0.056 C 
BRANCH  18  19
ATOM     19  N   UNL     1      34.446 -18.673 -22.350  0.00  0.00    +0.388 N 
ATOM     20  H   UNL     1      33.501 -18.289 -22.380  0.00  0.00    -0.080 HD
BRANCH  19  21
ATOM     21  C   UNL     1      34.727 -19.311 -23.635  0.00  0.00    -0.077 C 
ATOM     22  C   UNL     1      34.580 -18.306 -24.761  0.00  0.00    -0.025 C 
ENDBRANCH  19  21
BRANCH  19  23
ATOM     23  C   UNL     1      34.514 -19.652 -21.267  0.00  0.00    -0.077 C 
ATOM     24  C   UNL     1      33.116 -20.030 -20.815  0.00  0.00    -0.025 C 
ENDBRANCH  19  23
ENDBRANCH  18  19
ENDBRANCH  17  18
ENDBRANCH   2  17
TORSDOF 8
ENDMDL
MODEL 3
REMARK VINA RESULT:      -7.5      1.975      3.264
REMARK  Name = 2446
REMARK  8 active torsions:
REMARK  status: ('A' for Active; 'I' for Inactive)
REMARK    1  A    between atoms: N_2  and  C_17
REMARK    2  A    between atoms: C_3  and  C_6
REMARK    3  A    between atoms: C_7  and  O_15
REMARK    4  A    between atoms: C_10  and  N_12
REMARK    5  A    between atoms: C_17  and  C_18
REMARK    6  A    between atoms: C_18  and  N_19
REMARK    7  A    between atoms: N_19  and  C_21
REMARK    8  A    between atoms: N_19  and  C_23
REMARK                            x       y       z     vdW  Elec       q    Type
REMARK                         _______ _______ _______ _____ _____    ______ ____
ROOT
ATOM      1  O   UNL     1      33.909 -23.396 -19.576  0.00  0.00    -0.270 OA
ATOM      2  N   UNL     1      32.920 -21.353 -19.098  0.00  0.00    -0.303 N 
ATOM      3  C   UNL     1      33.480 -22.580 -18.764  0.00  0.00    +0.249 C 
ATOM      4  H   UNL     1      32.604 -20.766 -18.375  0.00  0.00    +0.150 HD
ENDROOT
BRANCH   3   6
ATOM      5 BR   UNL     1      36.520 -23.775 -14.607  0.00  0.00    -0.048 Br
ATOM      6  C   UNL     1      33.523 -22.906 -17.316  0.00  0.00    +0.088 C 
ATOM      7  C   UNL     1      32.350 -22.964 -16.590  0.00  0.00    +0.144 C 
ATOM      8  C   UNL     1      34.755 -23.144 -16.739  0.00  0.00    +0.015 C 
ATOM      9  C   UNL     1      32.411 -23.273 -15.232  0.00  0.00    +0.052 C 
ATOM     10  C   UNL     1      33.645 -23.517 -14.626  0.00  0.00    +0.051 C 
ATOM     11  C   UNL     1      34.816 -23.452 -15.380  0.00  0.00    +0.048 C 
BRANCH  10  12
ATOM     12  N   UNL     1      33.670 -23.826 -13.248  0.00  0.00    -0.357 N 
ATOM     13  H   UNL     1      33.230 -24.643 -12.918  0.00  0.00    +0.142 HD
ATOM     14  H   UNL     1      34.129 -23.226 -12.617  0.00  0.00    +0.142 HD
ENDBRANCH  10  12
BRANCH   7  15
ATOM     15  O   UNL     1      31.136 -22.730 -17.163  0.00  0.00    -0.471 OA
ATOM     16  C   UNL     1      29.984 -23.001 -16.369  0.00  0.00    +0.252 C 
ENDBRANCH   7  15
ENDBRANCH   3   6
BRANCH   2  17
ATOM     17  C   UNL     1      32.785 -20.905 -20.458  0.00  0.00    +0.067 C 
BRANCH  17  18
ATOM     18  C   UNL     1      33.570 -19.624 -20.697  0.00  0.00    -0.056 C 
BRANCH  18  19
ATOM     19  N   UNL     1      34.739 -19.892 -21.534  0.00  0.00    +0.388 N 
ATOM     20  H   UNL     1      34.767 -20.892 -21.737  0.00  0.00    -0.080 HD
BRANCH  19  21
ATOM     21  C   UNL     1      34.640 -19.164 -22.798  0.00  0.00    -0.077 C 
ATOM     22  C   UNL     1      35.852 -18.272 -22.983  0.00  0.00    -0.025 C 
ENDBRANCH  19  21
BRANCH  19  23
ATOM     23  C   UNL     1      35.966 -19.528 -20.828  0.00  0.00    -0.077 C 
ATOM     24  C   UNL     1      36.453 -20.694 -19.989  0.00  0.00    -0.025 C 
ENDBRANCH  19  23
ENDBRANCH  18  19
ENDBRANCH  17  18
ENDBRANCH   2  17
TORSDOF 8
ENDMDL
MODEL 4
REMARK VINA RESULT:      -7.3      7.762     10.439
REMARK  Name = 2446
REMARK  8 active torsions:
REMARK  status: ('A' for Active; 'I' for Inactive)
REMARK    1  A    between atoms: N_2  and  C_17
REMARK    2  A    between atoms: C_3  and  C_6
REMARK    3  A    between atoms: C_7  and  O_15
REMARK    4  A    between atoms: C_10  and  N_12
REMARK    5  A    between atoms: C_17  and  C_18
REMARK    6  A    between atoms: C_18  and  N_19
REMARK    7  A    between atoms: N_19  and  C_21
REMARK    8  A    between atoms: N_19  and  C_23
REMARK                            x       y       z     vdW  Elec       q    Type
REMARK                         _______ _______ _______ _____ _____    ______ ____
ROOT
ATOM      1  O   UNL     1      32.688 -14.084 -24.977  0.00  0.00    -0.270 OA
ATOM      2  N   UNL     1      34.164 -12.627 -23.939  0.00  0.00    -0.303 N 
ATOM      3  C   UNL     1      33.563 -13.863 -24.144  0.00  0.00    +0.249 C 
ATOM      4  H   UNL     1      34.857 -12.549 -23.245  0.00  0.00    +0.150 HD
ENDROOT
BRANCH   3   6
ATOM      5 BR   UNL     1      35.294 -18.850 -23.852  0.00  0.00    -0.048 Br
ATOM      6  C   UNL     1      34.017 -14.966 -23.258  0.00  0.00    +0.088 C 
ATOM      7  C   UNL     1      34.067 -14.772 -21.892  0.00  0.00    +0.144 C 
ATOM      8  C   UNL     1      34.376 -16.163 -23.842  0.00  0.00    +0.015 C 
ATOM      9  C   UNL     1      34.495 -15.819 -21.077  0.00  0.00    +0.052 C 
ATOM     10  C   UNL     1      34.864 -17.040 -21.645  0.00  0.00    +0.051 C 
ATOM     11  C   UNL     1      34.805 -17.211 -23.027  0.00  0.00    +0.048 C 
BRANCH  10  12
ATOM     12  N   UNL     1      35.293 -18.079 -20.790  0.00  0.00    -0.357 N 
ATOM     13  H   UNL     1      36.143 -18.544 -20.968  0.00  0.00    +0.142 HD
ATOM     14  H   UNL     1      34.744 -18.339 -20.015  0.00  0.00    +0.142 HD
ENDBRANCH  10  12
BRANCH   7  15
ATOM     15  O   UNL     1      33.711 -13.588 -21.318  0.00  0.00    -0.471 OA
ATOM     16  C   UNL     1      32.419 -13.523 -20.719  0.00  0.00    +0.252 C 
ENDBRANCH   7  15
ENDBRANCH   3   6
BRANCH   2  17
ATOM     17  C   UNL     1      33.814 -11.457 -24.699  0.00  0.00    +0.067 C 
BRANCH  17  18
ATOM     18  C   UNL     1      34.186 -10.184 -23.953  0.00  0.00    -0.056 C 
BRANCH  18  19
ATOM     19  N   UNL     1      32.984  -9.416 -23.630  0.00  0.00    +0.388 N 
ATOM     20  H   UNL     1      32.424  -9.322 -24.477  0.00  0.00    -0.080 HD
BRANCH  19  21
ATOM     21  C   UNL     1      32.188 -10.113 -22.621  0.00  0.00    -0.077 C 
ATOM     22  C   UNL     1      32.014  -9.238 -21.395  0.00  0.00    -0.025 C 
ENDBRANCH  19  21
BRANCH  19  23
ATOM     23  C   UNL     1      33.345  -8.078 -23.162  0.00  0.00    -0.077 C 
ATOM     24  C   UNL     1      34.781  -7.763 -23.535  0.00  0.00    -0.025 C 
ENDBRANCH  19  23
ENDBRANCH  18  19
ENDBRANCH  17  18
ENDBRANCH   2  17
TORSDOF 8
ENDMDL
MODEL 5
REMARK VINA RESULT:      -7.3      4.006      6.870
REMARK  Name = 2446
REMARK  8 active torsions:
REMARK  status: ('A' for Active; 'I' for Inactive)
REMARK    1  A    between atoms: N_2  and  C_17
REMARK    2  A    between atoms: C_3  and  C_6
REMARK    3  A    between atoms: C_7  and  O_15
REMARK    4  A    between atoms: C_10  and  N_12
REMARK    5  A    between atoms: C_17  and  C_18
REMARK    6  A    between atoms: C_18  and  N_19
REMARK    7  A    between atoms: N_19  and  C_21
REMARK    8  A    between atoms: N_19  and  C_23
REMARK                            x       y       z     vdW  Elec       q    Type
REMARK                         _______ _______ _______ _____ _____    ______ ____
ROOT
ATOM      1  O   UNL     1      34.613 -24.784 -12.393  0.00  0.00    -0.270 OA
ATOM      2  N   UNL     1      36.156 -23.216 -13.129  0.00  0.00    -0.303 N 
ATOM      3  C   UNL     1      34.964 -23.928 -13.200  0.00  0.00    +0.249 C 
ATOM      4  H   UNL     1      36.349 -22.549 -13.826  0.00  0.00    +0.150 HD
ENDROOT
BRANCH   3   6
ATOM      5 BR   UNL     1      30.039 -23.001 -14.883  0.00  0.00    -0.048 Br
ATOM      6  C   UNL     1      34.090 -23.624 -14.362  0.00  0.00    +0.088 C 
ATOM      7  C   UNL     1      34.642 -23.495 -15.621  0.00  0.00    +0.144 C 
ATOM      8  C   UNL     1      32.736 -23.480 -14.137  0.00  0.00    +0.015 C 
ATOM      9  C   UNL     1      33.805 -23.210 -16.699  0.00  0.00    +0.052 C 
ATOM     10  C   UNL     1      32.432 -23.060 -16.497  0.00  0.00    +0.051 C 
ATOM     11  C   UNL     1      31.898 -23.195 -15.215  0.00  0.00    +0.048 C 
BRANCH  10  12
ATOM     12  N   UNL     1      31.613 -22.771 -17.611  0.00  0.00    -0.357 N 
ATOM     13  H   UNL     1      31.247 -23.505 -18.156  0.00  0.00    +0.142 HD
ATOM     14  H   UNL     1      31.408 -21.837 -17.842  0.00  0.00    +0.142 HD
ENDBRANCH  10  12
BRANCH   7  15
ATOM     15  O   UNL     1      35.979 -23.639 -15.840  0.00  0.00    -0.471 OA
ATOM     16  C   UNL     1      36.655 -22.545 -16.455  0.00  0.00    +0.252 C 
ENDBRANCH   7  15
ENDBRANCH   3   6
BRANCH   2  17
ATOM     17  C   UNL     1      37.118 -23.416 -12.079  0.00  0.00    +0.067 C 
BRANCH  17  18
ATOM     18  C   UNL     1      38.069 -24.555 -12.412  0.00  0.00    -0.056 C 
BRANCH  18  19
ATOM     19  N   UNL     1      37.814 -25.051 -13.765  0.00  0.00    +0.388 N 
ATOM     20  H   UNL     1      37.049 -24.508 -14.168  0.00  0.00    -0.080 HD
BRANCH  19  21
ATOM     21  C   UNL     1      38.998 -24.879 -14.605  0.00  0.00    -0.077 C 
ATOM     22  C   UNL     1      40.177 -25.618 -14.002  0.00  0.00    -0.025 C 
ENDBRANCH  19  21
BRANCH  19  23
ATOM     23  C   UNL     1      37.413 -26.456 -13.726  0.00  0.00    -0.077 C 
ATOM     24  C   UNL     1      36.823 -26.869 -15.061  0.00  0.00    -0.025 C 
ENDBRANCH  19  23
ENDBRANCH  18  19
ENDBRANCH  17  18
ENDBRANCH   2  17
TORSDOF 8
ENDMDL
MODEL 6
REMARK VINA RESULT:      -7.3      8.602     11.918
REMARK  Name = 2446
REMARK  8 active torsions:
REMARK  status: ('A' for Active; 'I' for Inactive)
REMARK    1  A    between atoms: N_2  and  C_17
REMARK    2  A    between atoms: C_3  and  C_6
REMARK    3  A    between atoms: C_7  and  O_15
REMARK    4  A    between atoms: C_10  and  N_12
REMARK    5  A    between atoms: C_17  and  C_18
REMARK    6  A    between atoms: C_18  and  N_19
REMARK    7  A    between atoms: N_19  and  C_21
REMARK    8  A    between atoms: N_19  and  C_23
REMARK                            x       y       z     vdW  Elec       q    Type
REMARK                         _______ _______ _______ _____ _____    ______ ____
ROOT
ATOM      1  O   UNL     1      33.565 -12.574 -25.498  0.00  0.00    -0.270 OA
ATOM      2  N   UNL     1      33.879 -13.575 -23.428  0.00  0.00    -0.303 N 
ATOM      3  C   UNL     1      33.575 -12.512 -24.271  0.00  0.00    +0.249 C 
ATOM      4  H   UNL     1      33.860 -13.426 -22.456  0.00  0.00    +0.150 HD
ENDROOT
BRANCH   3   6
ATOM      5 BR   UNL     1      34.642  -7.341 -24.004  0.00  0.00    -0.048 Br
ATOM      6  C   UNL     1      33.271 -11.218 -23.607  0.00  0.00    +0.088 C 
ATOM      7  C   UNL     1      32.325 -11.168 -22.603  0.00  0.00    +0.144 C 
ATOM      8  C   UNL     1      33.958 -10.096 -24.025  0.00  0.00    +0.015 C 
ATOM      9  C   UNL     1      32.054  -9.944 -21.992  0.00  0.00    +0.052 C 
ATOM     10  C   UNL     1      32.735  -8.795 -22.397  0.00  0.00    +0.051 C 
ATOM     11  C   UNL     1      33.686  -8.872 -23.414  0.00  0.00    +0.048 C 
BRANCH  10  12
ATOM     12  N   UNL     1      32.436  -7.572 -21.757  0.00  0.00    -0.357 N 
ATOM     13  H   UNL     1      32.242  -6.770 -22.294  0.00  0.00    +0.142 HD
ATOM     14  H   UNL     1      32.419  -7.521 -20.774  0.00  0.00    +0.142 HD
ENDBRANCH  10  12
BRANCH   7  15
ATOM     15  O   UNL     1      31.650 -12.278 -22.192  0.00  0.00    -0.471 OA
ATOM     16  C   UNL     1      31.805 -12.661 -20.828  0.00  0.00    +0.252 C 
ENDBRANCH   7  15
ENDBRANCH   3   6
BRANCH   2  17
ATOM     17  C   UNL     1      34.218 -14.883 -23.920  0.00  0.00    +0.067 C 
BRANCH  17  18
ATOM     18  C   UNL     1      34.877 -15.724 -22.837  0.00  0.00    -0.056 C 
BRANCH  18  19
ATOM     19  N   UNL     1      35.534 -16.890 -23.428  0.00  0.00    +0.388 N 
ATOM     20  H   UNL     1      36.483 -16.624 -23.694  0.00  0.00    -0.080 HD
BRANCH  19  21
ATOM     21  C   UNL     1      35.612 -17.980 -22.458  0.00  0.00    -0.077 C 
ATOM     22  C   UNL     1      35.106 -17.513 -21.106  0.00  0.00    -0.025 C 
ENDBRANCH  19  21
BRANCH  19  23
ATOM     23  C   UNL     1      34.822 -17.323 -24.629  0.00  0.00    -0.077 C 
ATOM     24  C   UNL     1      34.574 -18.819 -24.580  0.00  0.00    -0.025 C 
ENDBRANCH  19  23
ENDBRANCH  18  19
ENDBRANCH  17  18
ENDBRANCH   2  17
TORSDOF 8
ENDMDL
MODEL 7
REMARK VINA RESULT:      -7.3      3.096      6.720
REMARK  Name = 2446
REMARK  8 active torsions:
REMARK  status: ('A' for Active; 'I' for Inactive)
REMARK    1  A    between atoms: N_2  and  C_17
REMARK    2  A    between atoms: C_3  and  C_6
REMARK    3  A    between atoms: C_7  and  O_15
REMARK    4  A    between atoms: C_10  and  N_12
REMARK    5  A    between atoms: C_17  and  C_18
REMARK    6  A    between atoms: C_18  and  N_19
REMARK    7  A    between atoms: N_19  and  C_21
REMARK    8  A    between atoms: N_19  and  C_23
REMARK                            x       y       z     vdW  Elec       q    Type
REMARK                         _______ _______ _______ _____ _____    ______ ____
ROOT
ATOM      1  O   UNL     1      35.633 -25.285 -15.650  0.00  0.00    -0.270 OA
ATOM      2  N   UNL     1      36.187 -23.051 -15.358  0.00  0.00    -0.303 N 
ATOM      3  C   UNL     1      35.314 -24.099 -15.625  0.00  0.00    +0.249 C 
ATOM      4  H   UNL     1      35.835 -22.132 -15.361  0.00  0.00    +0.150 HD
ENDROOT
BRANCH   3   6
ATOM      5 BR   UNL     1      30.328 -23.945 -13.874  0.00  0.00    -0.048 Br
ATOM      6  C   UNL     1      33.909 -23.720 -15.923  0.00  0.00    +0.088 C 
ATOM      7  C   UNL     1      33.596 -23.147 -17.139  0.00  0.00    +0.144 C 
ATOM      8  C   UNL     1      32.953 -23.958 -14.957  0.00  0.00    +0.015 C 
ATOM      9  C   UNL     1      32.271 -22.799 -17.400  0.00  0.00    +0.052 C 
ATOM     10  C   UNL     1      31.286 -23.030 -16.439  0.00  0.00    +0.051 C 
ATOM     11  C   UNL     1      31.628 -23.609 -15.217  0.00  0.00    +0.048 C 
BRANCH  10  12
ATOM     12  N   UNL     1      29.954 -22.664 -16.736  0.00  0.00    -0.357 N 
ATOM     13  H   UNL     1      29.642 -21.749 -16.549  0.00  0.00    +0.142 HD
ATOM     14  H   UNL     1      29.338 -23.323 -17.130  0.00  0.00    +0.142 HD
ENDBRANCH  10  12
BRANCH   7  15
ATOM     15  O   UNL     1      34.542 -22.915 -18.092  0.00  0.00    -0.471 OA
ATOM     16  C   UNL     1      34.127 -22.205 -19.256  0.00  0.00    +0.252 C 
ENDBRANCH   7  15
ENDBRANCH   3   6
BRANCH   2  17
ATOM     17  C   UNL     1      37.582 -23.255 -15.077  0.00  0.00    +0.067 C 
BRANCH  17  18
ATOM     18  C   UNL     1      37.786 -23.806 -13.673  0.00  0.00    -0.056 C 
BRANCH  18  19
ATOM     19  N   UNL     1      38.130 -25.226 -13.729  0.00  0.00    +0.388 N 
ATOM     20  H   UNL     1      37.878 -25.583 -14.652  0.00  0.00    -0.080 HD
BRANCH  19  21
ATOM     21  C   UNL     1      39.567 -25.412 -13.538  0.00  0.00    -0.077 C 
ATOM     22  C   UNL     1      40.234 -25.734 -14.861  0.00  0.00    -0.025 C 
ENDBRANCH  19  21
BRANCH  19  23
ATOM     23  C   UNL     1      37.378 -25.974 -12.722  0.00  0.00    -0.077 C 
ATOM     24  C   UNL     1      36.312 -25.090 -12.103  0.00  0.00    -0.025 C 
ENDBRANCH  19  23
ENDBRANCH  18  19
ENDBRANCH  17  18
ENDBRANCH   2  17
TORSDOF 8
ENDMDL
MODEL 8
REMARK VINA RESULT:      -7.2      6.450      9.813
REMARK  Name = 2446
REMARK  8 active torsions:
REMARK  status: ('A' for Active; 'I' for Inactive)
REMARK    1  A    between atoms: N_2  and  C_17
REMARK    2  A    between atoms: C_3  and  C_6
REMARK    3  A    between atoms: C_7  and  O_15
REMARK    4  A    between atoms: C_10  and  N_12
REMARK    5  A    between atoms: C_17  and  C_18
REMARK    6  A    between atoms: C_18  and  N_19
REMARK    7  A    between atoms: N_19  and  C_21
REMARK    8  A    between atoms: N_19  and  C_23
REMARK                            x       y       z     vdW  Elec       q    Type
REMARK                         _______ _______ _______ _____ _____    ______ ____
ROOT
ATOM      1  O   UNL     1      32.134 -15.901 -21.170  0.00  0.00    -0.270 OA
ATOM      2  N   UNL     1      34.395 -15.385 -21.249  0.00  0.00    -0.303 N 
ATOM      3  C   UNL     1      33.040 -15.085 -21.321  0.00  0.00    +0.249 C 
ATOM      4  H   UNL     1      35.047 -14.661 -21.385  0.00  0.00    +0.150 HD
ENDROOT
BRANCH   3   6
ATOM      5 BR   UNL     1      30.870 -10.593 -19.570  0.00  0.00    -0.048 Br
ATOM      6  C   UNL     1      32.699 -13.672 -21.630  0.00  0.00    +0.088 C 
ATOM      7  C   UNL     1      33.016 -13.145 -22.866  0.00  0.00    +0.144 C 
ATOM      8  C   UNL     1      32.067 -12.927 -20.655  0.00  0.00    +0.015 C 
ATOM      9  C   UNL     1      32.686 -11.817 -23.138  0.00  0.00    +0.052 C 
ATOM     10  C   UNL     1      32.048 -11.044 -22.167  0.00  0.00    +0.051 C 
ATOM     11  C   UNL     1      31.739 -11.599 -20.926  0.00  0.00    +0.048 C 
BRANCH  10  12
ATOM     12  N   UNL     1      31.730  -9.702 -22.475  0.00  0.00    -0.357 N 
ATOM     13  H   UNL     1      32.435  -9.015 -22.468  0.00  0.00    +0.142 HD
ATOM     14  H   UNL     1      30.803  -9.454 -22.698  0.00  0.00    +0.142 HD
ENDBRANCH  10  12
BRANCH   7  15
ATOM     15  O   UNL     1      33.638 -13.883 -23.827  0.00  0.00    -0.471 OA
ATOM     16  C   UNL     1      32.878 -14.205 -24.989  0.00  0.00    +0.252 C 
ENDBRANCH   7  15
ENDBRANCH   3   6
BRANCH   2  17
ATOM     17  C   UNL     1      34.883 -16.711 -20.983  0.00  0.00    +0.067 C 
BRANCH  17  18
ATOM     18  C   UNL     1      35.446 -17.353 -22.243  0.00  0.00    -0.056 C 
BRANCH  18  19
ATOM     19  N   UNL     1      35.075 -18.767 -22.301  0.00  0.00    +0.388 N 
ATOM     20  H   UNL     1      35.888 -19.325 -22.036  0.00  0.00    -0.080 HD
BRANCH  19  21
ATOM     21  C   UNL     1      33.992 -19.051 -21.362  0.00  0.00    -0.077 C 
ATOM     22  C   UNL     1      34.333 -20.267 -20.522  0.00  0.00    -0.025 C 
ENDBRANCH  19  21
BRANCH  19  23
ATOM     23  C   UNL     1      34.684 -19.137 -23.661  0.00  0.00    -0.077 C 
ATOM     24  C   UNL     1      34.686 -17.912 -24.556  0.00  0.00    -0.025 C 
ENDBRANCH  19  23
ENDBRANCH  18  19
ENDBRANCH  17  18
ENDBRANCH   2  17
TORSDOF 8
ENDMDL
MODEL 9
REMARK VINA RESULT:      -7.2     11.662     14.674
REMARK  Name = 2446
REMARK  8 active torsions:
REMARK  status: ('A' for Active; 'I' for Inactive)
REMARK    1  A    between atoms: N_2  and  C_17
REMARK    2  A    between atoms: C_3  and  C_6
REMARK    3  A    between atoms: C_7  and  O_15
REMARK    4  A    between atoms: C_10  and  N_12
REMARK    5  A    between atoms: C_17  and  C_18
REMARK    6  A    between atoms: C_18  and  N_19
REMARK    7  A    between atoms: N_19  and  C_21
REMARK    8  A    between atoms: N_19  and  C_23
REMARK                            x       y       z     vdW  Elec       q    Type
REMARK                         _______ _______ _______ _____ _____    ______ ____
ROOT
ATOM      1  O   UNL     1      34.974  -8.522 -23.625  0.00  0.00    -0.270 OA
ATOM      2  N   UNL     1      33.120  -9.916 -23.666  0.00  0.00    -0.303 N 
ATOM      3  C   UNL     1      33.766  -8.699 -23.486  0.00  0.00    +0.249 C 
ATOM      4  H   UNL     1      32.146  -9.958 -23.531  0.00  0.00    +0.150 HD
ENDROOT
BRANCH   3   6
ATOM      5 BR   UNL     1      31.216  -4.324 -25.004  0.00  0.00    -0.048 Br
ATOM      6  C   UNL     1      32.909  -7.559 -23.070  0.00  0.00    +0.088 C 
ATOM      7  C   UNL     1      32.517  -7.440 -21.752  0.00  0.00    +0.144 C 
ATOM      8  C   UNL     1      32.530  -6.645 -24.033  0.00  0.00    +0.015 C 
ATOM      9  C   UNL     1      31.714  -6.362 -21.382  0.00  0.00    +0.052 C 
ATOM     10  C   UNL     1      31.317  -5.425 -22.337  0.00  0.00    +0.051 C 
ATOM     11  C   UNL     1      31.726  -5.568 -23.663  0.00  0.00    +0.048 C 
BRANCH  10  12
ATOM     12  N   UNL     1      30.502  -4.347 -21.928  0.00  0.00    -0.357 N 
ATOM     13  H   UNL     1      30.040  -4.381 -21.059  0.00  0.00    +0.142 HD
ATOM     14  H   UNL     1      30.396  -3.560 -22.510  0.00  0.00    +0.142 HD
ENDBRANCH  10  12
BRANCH   7  15
ATOM     15  O   UNL     1      32.894  -8.342 -20.804  0.00  0.00    -0.471 OA
ATOM     16  C   UNL     1      31.888  -9.226 -20.316  0.00  0.00    +0.252 C 
ENDBRANCH   7  15
ENDBRANCH   3   6
BRANCH   2  17
ATOM     17  C   UNL     1      33.817 -11.116 -24.043  0.00  0.00    +0.067 C 
BRANCH  17  18
ATOM     18  C   UNL     1      33.118 -12.353 -23.497  0.00  0.00    -0.056 C 
BRANCH  18  19
ATOM     19  N   UNL     1      33.763 -13.565 -24.001  0.00  0.00    +0.388 N 
ATOM     20  H   UNL     1      34.709 -13.327 -24.299  0.00  0.00    -0.080 HD
BRANCH  19  21
ATOM     21  C   UNL     1      33.848 -14.575 -22.947  0.00  0.00    -0.077 C 
ATOM     22  C   UNL     1      32.662 -14.452 -22.010  0.00  0.00    -0.025 C 
ENDBRANCH  19  21
BRANCH  19  23
ATOM     23  C   UNL     1      33.033 -14.089 -25.154  0.00  0.00    -0.077 C 
ATOM     24  C   UNL     1      33.554 -15.465 -25.522  0.00  0.00    -0.025 C 
ENDBRANCH  19  23
ENDBRANCH  18  19
ENDBRANCH  17  18
ENDBRANCH   2  17
TORSDOF 8
ENDMDL
