MODEL 1
REMARK VINA RESULT:      -9.1      0.000      0.000
REMARK  Name = 46186778
REMARK  2 active torsions:
REMARK  status: ('A' for Active; 'I' for Inactive)
REMARK    1  A    between atoms: C_4  and  C_11
REMARK    2  A    between atoms: C_14  and  N_17
REMARK                            x       y       z     vdW  Elec       q    Type
REMARK                         _______ _______ _______ _____ _____    ______ ____
ROOT
ATOM      1  S   UNL     1      34.569 -17.933 -24.155  0.00  0.00    -0.071 S 
ATOM      2  F   UNL     1      33.179 -13.649 -26.734  0.00  0.00    -0.204 F 
ATOM      3  N   UNL     1      34.295 -16.421 -22.084  0.00  0.00    -0.399 NA
ATOM      4  C   UNL     1      34.607 -17.637 -22.472  0.00  0.00    +0.157 C 
ATOM      5  C   UNL     1      34.090 -16.298 -24.423  0.00  0.00    +0.130 C 
ATOM      6  C   UNL     1      33.995 -15.642 -23.192  0.00  0.00    +0.124 C 
ATOM      7  C   UNL     1      33.819 -15.644 -25.635  0.00  0.00    +0.021 C 
ATOM      8  C   UNL     1      33.614 -14.283 -23.176  0.00  0.00    +0.031 C 
ATOM      9  C   UNL     1      33.444 -14.298 -25.591  0.00  0.00    +0.137 C 
ATOM     10  C   UNL     1      33.342 -13.625 -24.379  0.00  0.00    +0.032 C 
ENDROOT
BRANCH   4  11
ATOM     11  C   UNL     1      34.975 -18.716 -21.587  0.00  0.00    +0.036 C 
ATOM     12  C   UNL     1      33.996 -19.584 -21.103  0.00  0.00    +0.004 C 
ATOM     13  C   UNL     1      36.308 -18.891 -21.215  0.00  0.00    +0.004 C 
ATOM     14  C   UNL     1      35.684 -20.802 -19.876  0.00  0.00    +0.045 C 
ATOM     15  C   UNL     1      34.351 -20.628 -20.248  0.00  0.00    +0.014 C 
ATOM     16  C   UNL     1      36.663 -19.934 -20.360  0.00  0.00    +0.014 C 
BRANCH  14  17
ATOM     17  N   UNL     1      36.043 -21.857 -19.011  0.00  0.00    -0.331 N 
ATOM     18  C   UNL     1      36.819 -21.660 -17.825  0.00  0.00    +0.109 C 
ATOM     19  H   UNL     1      35.744 -22.769 -19.233  0.00  0.00    +0.147 HD
ENDBRANCH  14  17
ENDBRANCH   4  11
TORSDOF 2
ENDMDL
MODEL 2
REMARK VINA RESULT:      -9.1      1.038      1.524
REMARK  Name = 46186778
REMARK  2 active torsions:
REMARK  status: ('A' for Active; 'I' for Inactive)
REMARK    1  A    between atoms: C_4  and  C_11
REMARK    2  A    between atoms: C_14  and  N_17
REMARK                            x       y       z     vdW  Elec       q    Type
REMARK                         _______ _______ _______ _____ _____    ______ ____
ROOT
ATOM      1  S   UNL     1      34.581 -15.926 -21.636  0.00  0.00    -0.071 S 
ATOM      2  F   UNL     1      33.312 -12.372 -25.198  0.00  0.00    -0.204 F 
ATOM      3  N   UNL     1      34.434 -17.553 -23.632  0.00  0.00    -0.399 NA
ATOM      4  C   UNL     1      34.681 -17.479 -22.344  0.00  0.00    +0.157 C 
ATOM      5  C   UNL     1      34.169 -15.261 -23.173  0.00  0.00    +0.130 C 
ATOM      6  C   UNL     1      34.139 -16.288 -24.122  0.00  0.00    +0.124 C 
ATOM      7  C   UNL     1      33.893 -13.929 -23.514  0.00  0.00    +0.021 C 
ATOM      8  C   UNL     1      33.821 -15.966 -25.458  0.00  0.00    +0.031 C 
ATOM      9  C   UNL     1      33.581 -13.637 -24.845  0.00  0.00    +0.137 C 
ATOM     10  C   UNL     1      33.544 -14.640 -25.806  0.00  0.00    +0.032 C 
ENDROOT
BRANCH   4  11
ATOM     11  C   UNL     1      35.024 -18.602 -21.505  0.00  0.00    +0.036 C 
ATOM     12  C   UNL     1      34.023 -19.450 -21.031  0.00  0.00    +0.004 C 
ATOM     13  C   UNL     1      36.357 -18.839 -21.166  0.00  0.00    +0.004 C 
ATOM     14  C   UNL     1      35.687 -20.772 -19.882  0.00  0.00    +0.045 C 
ATOM     15  C   UNL     1      34.355 -20.536 -20.220  0.00  0.00    +0.014 C 
ATOM     16  C   UNL     1      36.688 -19.924 -20.355  0.00  0.00    +0.014 C 
BRANCH  14  17
ATOM     17  N   UNL     1      36.022 -21.869 -19.061  0.00  0.00    -0.331 N 
ATOM     18  C   UNL     1      36.717 -21.727 -17.819  0.00  0.00    +0.109 C 
ATOM     19  H   UNL     1      35.765 -22.773 -19.357  0.00  0.00    +0.147 HD
ENDBRANCH  14  17
ENDBRANCH   4  11
TORSDOF 2
ENDMDL
MODEL 3
REMARK VINA RESULT:      -8.8      3.588      7.849
REMARK  Name = 46186778
REMARK  2 active torsions:
REMARK  status: ('A' for Active; 'I' for Inactive)
REMARK    1  A    between atoms: C_4  and  C_11
REMARK    2  A    between atoms: C_14  and  N_17
REMARK                            x       y       z     vdW  Elec       q    Type
REMARK                         _______ _______ _______ _____ _____    ______ ____
ROOT
ATOM      1  S   UNL     1      33.394 -14.951 -25.138  0.00  0.00    -0.071 S 
ATOM      2  F   UNL     1      35.019 -19.874 -24.911  0.00  0.00    -0.204 F 
ATOM      3  N   UNL     1      34.450 -14.802 -22.789  0.00  0.00    -0.399 NA
ATOM      4  C   UNL     1      33.809 -14.114 -23.706  0.00  0.00    +0.157 C 
ATOM      5  C   UNL     1      34.131 -16.377 -24.506  0.00  0.00    +0.130 C 
ATOM      6  C   UNL     1      34.643 -16.102 -23.235  0.00  0.00    +0.124 C 
ATOM      7  C   UNL     1      34.246 -17.646 -25.094  0.00  0.00    +0.021 C 
ATOM      8  C   UNL     1      35.294 -17.137 -22.529  0.00  0.00    +0.031 C 
ATOM      9  C   UNL     1      34.895 -18.653 -24.373  0.00  0.00    +0.137 C 
ATOM     10  C   UNL     1      35.413 -18.404 -23.108  0.00  0.00    +0.032 C 
ENDROOT
BRANCH   4  11
ATOM     11  C   UNL     1      33.437 -12.725 -23.584  0.00  0.00    +0.036 C 
ATOM     12  C   UNL     1      34.054 -11.765 -24.387  0.00  0.00    +0.004 C 
ATOM     13  C   UNL     1      32.463 -12.341 -22.662  0.00  0.00    +0.004 C 
ATOM     14  C   UNL     1      32.720 -10.039 -23.349  0.00  0.00    +0.045 C 
ATOM     15  C   UNL     1      33.695 -10.422 -24.270  0.00  0.00    +0.014 C 
ATOM     16  C   UNL     1      32.104 -10.998 -22.545  0.00  0.00    +0.014 C 
BRANCH  14  17
ATOM     17  N   UNL     1      32.358  -8.681 -23.229  0.00  0.00    -0.331 N 
ATOM     18  C   UNL     1      32.016  -8.074 -21.980  0.00  0.00    +0.109 C 
ATOM     19  H   UNL     1      32.341  -8.126 -24.043  0.00  0.00    +0.147 HD
ENDBRANCH  14  17
ENDBRANCH   4  11
TORSDOF 2
ENDMDL
MODEL 4
REMARK VINA RESULT:      -8.8      3.868      7.714
REMARK  Name = 46186778
REMARK  2 active torsions:
REMARK  status: ('A' for Active; 'I' for Inactive)
REMARK    1  A    between atoms: C_4  and  C_11
REMARK    2  A    between atoms: C_14  and  N_17
REMARK                            x       y       z     vdW  Elec       q    Type
REMARK                         _______ _______ _______ _____ _____    ______ ____
ROOT
ATOM      1  S   UNL     1      33.075 -20.402 -20.693  0.00  0.00    -0.071 S 
ATOM      2  F   UNL     1      33.770 -23.672 -16.724  0.00  0.00    -0.204 F 
ATOM      3  N   UNL     1      35.629 -20.092 -20.503  0.00  0.00    -0.399 NA
ATOM      4  C   UNL     1      34.565 -19.714 -21.175  0.00  0.00    +0.157 C 
ATOM      5  C   UNL     1      33.895 -21.299 -19.469  0.00  0.00    +0.130 C 
ATOM      6  C   UNL     1      35.260 -21.001 -19.522  0.00  0.00    +0.124 C 
ATOM      7  C   UNL     1      33.368 -22.199 -18.531  0.00  0.00    +0.021 C 
ATOM      8  C   UNL     1      36.126 -21.630 -18.602  0.00  0.00    +0.031 C 
ATOM      9  C   UNL     1      34.247 -22.808 -17.631  0.00  0.00    +0.137 C 
ATOM     10  C   UNL     1      35.609 -22.528 -17.664  0.00  0.00    +0.032 C 
ENDROOT
BRANCH   4  11
ATOM     11  C   UNL     1      34.572 -18.775 -22.270  0.00  0.00    +0.036 C 
ATOM     12  C   UNL     1      34.621 -19.238 -23.586  0.00  0.00    +0.004 C 
ATOM     13  C   UNL     1      34.529 -17.404 -22.015  0.00  0.00    +0.004 C 
ATOM     14  C   UNL     1      34.585 -16.960 -24.389  0.00  0.00    +0.045 C 
ATOM     15  C   UNL     1      34.628 -18.330 -24.645  0.00  0.00    +0.014 C 
ATOM     16  C   UNL     1      34.536 -16.496 -23.074  0.00  0.00    +0.014 C 
BRANCH  14  17
ATOM     17  N   UNL     1      34.593 -16.041 -25.460  0.00  0.00    -0.331 N 
ATOM     18  C   UNL     1      33.432 -15.309 -25.864  0.00  0.00    +0.109 C 
ATOM     19  H   UNL     1      35.435 -15.898 -25.949  0.00  0.00    +0.147 HD
ENDBRANCH  14  17
ENDBRANCH   4  11
TORSDOF 2
ENDMDL
MODEL 5
REMARK VINA RESULT:      -8.7      4.116      8.142
REMARK  Name = 46186778
REMARK  2 active torsions:
REMARK  status: ('A' for Active; 'I' for Inactive)
REMARK    1  A    between atoms: C_4  and  C_11
REMARK    2  A    between atoms: C_14  and  N_17
REMARK                            x       y       z     vdW  Elec       q    Type
REMARK                         _______ _______ _______ _____ _____    ______ ____
ROOT
ATOM      1  S   UNL     1      34.158 -14.537 -22.140  0.00  0.00    -0.071 S 
ATOM      2  F   UNL     1      35.543 -19.331 -23.567  0.00  0.00    -0.204 F 
ATOM      3  N   UNL     1      33.382 -14.348 -24.593  0.00  0.00    -0.399 NA
ATOM      4  C   UNL     1      33.464 -13.695 -23.456  0.00  0.00    +0.157 C 
ATOM      5  C   UNL     1      34.383 -15.915 -23.153  0.00  0.00    +0.130 C 
ATOM      6  C   UNL     1      33.905 -15.623 -24.434  0.00  0.00    +0.124 C 
ATOM      7  C   UNL     1      34.941 -17.163 -22.836  0.00  0.00    +0.021 C 
ATOM      8  C   UNL     1      33.990 -16.618 -25.432  0.00  0.00    +0.031 C 
ATOM      9  C   UNL     1      35.014 -18.130 -23.842  0.00  0.00    +0.137 C 
ATOM     10  C   UNL     1      34.545 -17.864 -25.124  0.00  0.00    +0.032 C 
ENDROOT
BRANCH   4  11
ATOM     11  C   UNL     1      33.015 -12.339 -23.250  0.00  0.00    +0.036 C 
ATOM     12  C   UNL     1      31.993 -12.073 -22.339  0.00  0.00    +0.004 C 
ATOM     13  C   UNL     1      33.603 -11.293 -23.963  0.00  0.00    +0.004 C 
ATOM     14  C   UNL     1      32.147  -9.717 -22.852  0.00  0.00    +0.045 C 
ATOM     15  C   UNL     1      31.559 -10.762 -22.140  0.00  0.00    +0.014 C 
ATOM     16  C   UNL     1      33.169  -9.982 -23.764  0.00  0.00    +0.014 C 
BRANCH  14  17
ATOM     17  N   UNL     1      31.708  -8.392 -22.652  0.00  0.00    -0.331 N 
ATOM     18  C   UNL     1      30.929  -7.676 -23.615  0.00  0.00    +0.109 C 
ATOM     19  H   UNL     1      31.948  -7.940 -21.810  0.00  0.00    +0.147 HD
ENDBRANCH  14  17
ENDBRANCH   4  11
TORSDOF 2
ENDMDL
MODEL 6
REMARK VINA RESULT:      -8.7      1.804      2.492
REMARK  Name = 46186778
REMARK  2 active torsions:
REMARK  status: ('A' for Active; 'I' for Inactive)
REMARK    1  A    between atoms: C_4  and  C_11
REMARK    2  A    between atoms: C_14  and  N_17
REMARK                            x       y       z     vdW  Elec       q    Type
REMARK                         _______ _______ _______ _____ _____    ______ ____
ROOT
ATOM      1  S   UNL     1      34.165 -17.467 -21.114  0.00  0.00    -0.071 S 
ATOM      2  F   UNL     1      34.053 -14.259 -25.191  0.00  0.00    -0.204 F 
ATOM      3  N   UNL     1      34.580 -19.267 -22.913  0.00  0.00    -0.399 NA
ATOM      4  C   UNL     1      34.442 -19.076 -21.621  0.00  0.00    +0.157 C 
ATOM      5  C   UNL     1      34.232 -16.947 -22.757  0.00  0.00    +0.130 C 
ATOM      6  C   UNL     1      34.463 -18.055 -23.577  0.00  0.00    +0.124 C 
ATOM      7  C   UNL     1      34.090 -15.653 -23.280  0.00  0.00    +0.021 C 
ATOM      8  C   UNL     1      34.555 -17.857 -24.972  0.00  0.00    +0.031 C 
ATOM      9  C   UNL     1      34.185 -15.485 -24.665  0.00  0.00    +0.137 C 
ATOM     10  C   UNL     1      34.415 -16.571 -25.501  0.00  0.00    +0.032 C 
ENDROOT
BRANCH   4  11
ATOM     11  C   UNL     1      34.506 -20.116 -20.622  0.00  0.00    +0.036 C 
ATOM     12  C   UNL     1      33.330 -20.676 -20.123  0.00  0.00    +0.004 C 
ATOM     13  C   UNL     1      35.743 -20.560 -20.154  0.00  0.00    +0.004 C 
ATOM     14  C   UNL     1      34.628 -22.125 -18.690  0.00  0.00    +0.045 C 
ATOM     15  C   UNL     1      33.391 -21.681 -19.157  0.00  0.00    +0.014 C 
ATOM     16  C   UNL     1      35.804 -21.565 -19.189  0.00  0.00    +0.014 C 
BRANCH  14  17
ATOM     17  N   UNL     1      34.691 -23.140 -17.713  0.00  0.00    -0.331 N 
ATOM     18  C   UNL     1      33.691 -23.312 -16.705  0.00  0.00    +0.109 C 
ATOM     19  H   UNL     1      35.457 -23.759 -17.727  0.00  0.00    +0.147 HD
ENDBRANCH  14  17
ENDBRANCH   4  11
TORSDOF 2
ENDMDL
MODEL 7
REMARK VINA RESULT:      -8.6      3.544      7.428
REMARK  Name = 46186778
REMARK  2 active torsions:
REMARK  status: ('A' for Active; 'I' for Inactive)
REMARK    1  A    between atoms: C_4  and  C_11
REMARK    2  A    between atoms: C_14  and  N_17
REMARK                            x       y       z     vdW  Elec       q    Type
REMARK                         _______ _______ _______ _____ _____    ______ ____
ROOT
ATOM      1  S   UNL     1      32.930 -18.962 -20.936  0.00  0.00    -0.071 S 
ATOM      2  F   UNL     1      33.798 -23.570 -18.714  0.00  0.00    -0.204 F 
ATOM      3  N   UNL     1      35.503 -18.785 -20.891  0.00  0.00    -0.399 NA
ATOM      4  C   UNL     1      34.406 -18.155 -21.245  0.00  0.00    +0.157 C 
ATOM      5  C   UNL     1      33.806 -20.288 -20.266  0.00  0.00    +0.130 C 
ATOM      6  C   UNL     1      35.175 -20.010 -20.329  0.00  0.00    +0.124 C 
ATOM      7  C   UNL     1      33.317 -21.486 -19.724  0.00  0.00    +0.021 C 
ATOM      8  C   UNL     1      36.084 -20.968 -19.831  0.00  0.00    +0.031 C 
ATOM      9  C   UNL     1      34.238 -22.418 -19.237  0.00  0.00    +0.137 C 
ATOM     10  C   UNL     1      35.604 -22.164 -19.289  0.00  0.00    +0.032 C 
ENDROOT
BRANCH   4  11
ATOM     11  C   UNL     1      34.366 -16.852 -21.863  0.00  0.00    +0.036 C 
ATOM     12  C   UNL     1      34.533 -16.729 -23.243  0.00  0.00    +0.004 C 
ATOM     13  C   UNL     1      34.161 -15.714 -21.082  0.00  0.00    +0.004 C 
ATOM     14  C   UNL     1      34.290 -14.332 -23.059  0.00  0.00    +0.045 C 
ATOM     15  C   UNL     1      34.495 -15.469 -23.841  0.00  0.00    +0.014 C 
ATOM     16  C   UNL     1      34.122 -14.454 -21.680  0.00  0.00    +0.014 C 
BRANCH  14  17
ATOM     17  N   UNL     1      34.251 -13.058 -23.664  0.00  0.00    -0.331 N 
ATOM     18  C   UNL     1      33.167 -12.143 -23.480  0.00  0.00    +0.109 C 
ATOM     19  H   UNL     1      35.005 -12.787 -24.236  0.00  0.00    +0.147 HD
ENDBRANCH  14  17
ENDBRANCH   4  11
TORSDOF 2
ENDMDL
MODEL 8
REMARK VINA RESULT:      -8.6      4.570      6.936
REMARK  Name = 46186778
REMARK  2 active torsions:
REMARK  status: ('A' for Active; 'I' for Inactive)
REMARK    1  A    between atoms: C_4  and  C_11
REMARK    2  A    between atoms: C_14  and  N_17
REMARK                            x       y       z     vdW  Elec       q    Type
REMARK                         _______ _______ _______ _____ _____    ______ ____
ROOT
ATOM      1  S   UNL     1      32.353 -11.504 -22.837  0.00  0.00    -0.071 S 
ATOM      2  F   UNL     1      32.521  -6.389 -21.973  0.00  0.00    -0.204 F 
ATOM      3  N   UNL     1      34.378 -11.017 -24.358  0.00  0.00    -0.399 NA
ATOM      4  C   UNL     1      33.592 -11.973 -23.917  0.00  0.00    +0.157 C 
ATOM      5  C   UNL     1      32.889  -9.868 -22.946  0.00  0.00    +0.130 C 
ATOM      6  C   UNL     1      33.987  -9.804 -23.809  0.00  0.00    +0.124 C 
ATOM      7  C   UNL     1      32.376  -8.726 -22.313  0.00  0.00    +0.021 C 
ATOM      8  C   UNL     1      34.590  -8.550 -24.046  0.00  0.00    +0.031 C 
ATOM      9  C   UNL     1      32.991  -7.497 -22.565  0.00  0.00    +0.137 C 
ATOM     10  C   UNL     1      34.084  -7.407 -23.419  0.00  0.00    +0.032 C 
ENDROOT
BRANCH   4  11
ATOM     11  C   UNL     1      33.705 -13.365 -24.278  0.00  0.00    +0.036 C 
ATOM     12  C   UNL     1      34.333 -14.262 -23.413  0.00  0.00    +0.004 C 
ATOM     13  C   UNL     1      33.187 -13.816 -25.493  0.00  0.00    +0.004 C 
ATOM     14  C   UNL     1      33.924 -16.057 -24.977  0.00  0.00    +0.045 C 
ATOM     15  C   UNL     1      34.441 -15.608 -23.762  0.00  0.00    +0.014 C 
ATOM     16  C   UNL     1      33.296 -15.162 -25.842  0.00  0.00    +0.014 C 
BRANCH  14  17
ATOM     17  N   UNL     1      34.034 -17.419 -25.330  0.00  0.00    -0.331 N 
ATOM     18  C   UNL     1      34.638 -18.397 -24.479  0.00  0.00    +0.109 C 
ATOM     19  H   UNL     1      33.678 -17.708 -26.202  0.00  0.00    +0.147 HD
ENDBRANCH  14  17
ENDBRANCH   4  11
TORSDOF 2
ENDMDL
MODEL 9
REMARK VINA RESULT:      -8.6      4.609      8.570
REMARK  Name = 46186778
REMARK  2 active torsions:
REMARK  status: ('A' for Active; 'I' for Inactive)
REMARK    1  A    between atoms: C_4  and  C_11
REMARK    2  A    between atoms: C_14  and  N_17
REMARK                            x       y       z     vdW  Elec       q    Type
REMARK                         _______ _______ _______ _____ _____    ______ ____
ROOT
ATOM      1  S   UNL     1      34.039 -21.831 -19.150  0.00  0.00    -0.071 S 
ATOM      2  F   UNL     1      34.647 -24.695 -14.865  0.00  0.00    -0.204 F 
ATOM      3  N   UNL     1      36.451 -21.077 -18.633  0.00  0.00    -0.399 NA
ATOM      4  C   UNL     1      35.454 -20.928 -19.475  0.00  0.00    +0.157 C 
ATOM      5  C   UNL     1      34.799 -22.501 -17.754  0.00  0.00    +0.130 C 
ATOM      6  C   UNL     1      36.091 -21.977 -17.641  0.00  0.00    +0.124 C 
ATOM      7  C   UNL     1      34.289 -23.422 -16.826  0.00  0.00    +0.021 C 
ATOM      8  C   UNL     1      36.898 -22.392 -16.560  0.00  0.00    +0.031 C 
ATOM      9  C   UNL     1      35.109 -23.816 -15.765  0.00  0.00    +0.137 C 
ATOM     10  C   UNL     1      36.397 -23.310 -15.632  0.00  0.00    +0.032 C 
ENDROOT
BRANCH   4  11
ATOM     11  C   UNL     1      35.475 -20.067 -20.633  0.00  0.00    +0.036 C 
ATOM     12  C   UNL     1      36.615 -19.319 -20.926  0.00  0.00    +0.004 C 
ATOM     13  C   UNL     1      34.354 -19.981 -21.460  0.00  0.00    +0.004 C 
ATOM     14  C   UNL     1      35.514 -18.402 -22.871  0.00  0.00    +0.045 C 
ATOM     15  C   UNL     1      36.635 -18.487 -22.046  0.00  0.00    +0.014 C 
ATOM     16  C   UNL     1      34.374 -19.149 -22.579  0.00  0.00    +0.014 C 
BRANCH  14  17
ATOM     17  N   UNL     1      35.534 -17.559 -24.003  0.00  0.00    -0.331 N 
ATOM     18  C   UNL     1      34.575 -17.655 -25.060  0.00  0.00    +0.109 C 
ATOM     19  H   UNL     1      36.239 -16.875 -24.067  0.00  0.00    +0.147 HD
ENDBRANCH  14  17
ENDBRANCH   4  11
TORSDOF 2
ENDMDL
