MODEL 1
REMARK VINA RESULT:     -10.5      0.000      0.000
REMARK  Name = 71447
REMARK  7 active torsions:
REMARK  status: ('A' for Active; 'I' for Inactive)
REMARK    1  A    between atoms: C_5  and  C_27
REMARK    2  A    between atoms: C_7  and  N_12
REMARK    3  A    between atoms: C_13  and  C_15
REMARK    4  A    between atoms: C_15  and  C_16
REMARK    5  A    between atoms: C_15  and  N_22
REMARK    6  A    between atoms: C_27  and  O_28
REMARK    7  A    between atoms: O_28  and  C_31
REMARK                            x       y       z     vdW  Elec       q    Type
REMARK                         _______ _______ _______ _____ _____    ______ ____
ROOT
ATOM      1  S   UNL     1      36.339 -19.579 -20.687  0.00  0.00    -0.118 S 
ATOM      2  O   UNL     1      31.970 -19.548 -20.110  0.00  0.00    -0.273 OA
ATOM      3  N   UNL     1      33.977 -20.654 -20.677  0.00  0.00    -0.260 N 
ATOM      4  C   UNL     1      34.849 -20.007 -21.662  0.00  0.00    +0.151 C 
ATOM      5  C   UNL     1      34.558 -21.166 -19.452  0.00  0.00    +0.185 C 
ATOM      6  C   UNL     1      36.092 -21.064 -19.589  0.00  0.00    +0.068 C 
ATOM      7  C   UNL     1      33.777 -18.917 -21.799  0.00  0.00    +0.178 C 
ATOM      8  C   UNL     1      32.986 -19.717 -20.746  0.00  0.00    +0.247 C 
ATOM      9  C   UNL     1      36.757 -20.797 -18.237  0.00  0.00    +0.013 C 
ATOM     10  C   UNL     1      36.753 -22.270 -20.270  0.00  0.00    +0.013 C 
ENDROOT
BRANCH   7  12
ATOM     11  O   UNL     1      34.446 -16.674 -23.494  0.00  0.00    -0.277 OA
ATOM     12  N   UNL     1      34.132 -17.556 -21.373  0.00  0.00    -0.298 N 
ATOM     13  C   UNL     1      34.441 -16.534 -22.271  0.00  0.00    +0.206 C 
ATOM     14  H   UNL     1      34.153 -17.358 -20.408  0.00  0.00    +0.150 HD
BRANCH  13  15
ATOM     15  C   UNL     1      34.798 -15.221 -21.582  0.00  0.00    +0.036 C 
BRANCH  15  16
ATOM     16  C   UNL     1      33.815 -14.131 -21.953  0.00  0.00    -0.034 C 
ATOM     17  C   UNL     1      32.792 -13.818 -21.075  0.00  0.00    -0.006 C 
ATOM     18  C   UNL     1      33.961 -13.474 -23.162  0.00  0.00    -0.006 C 
ATOM     19  C   UNL     1      31.885 -12.813 -21.418  0.00  0.00    -0.000 C 
ATOM     20  C   UNL     1      33.055 -12.469 -23.504  0.00  0.00    -0.000 C 
ATOM     21  C   UNL     1      32.017 -12.140 -22.632  0.00  0.00    -0.000 C 
ENDBRANCH  15  16
BRANCH  15  22
ATOM     22  N   UNL     1      34.836 -15.470 -20.138  0.00  0.00    +0.390 N 
ATOM     23  H   UNL     1      33.997 -15.980 -19.859  0.00  0.00    -0.088 HD
ATOM     24  H   UNL     1      34.874 -14.580 -19.640  0.00  0.00    -0.088 HD
ATOM     25  H   UNL     1      35.662 -16.023 -19.910  0.00  0.00    -0.088 HD
ENDBRANCH  15  22
ENDBRANCH  13  15
ENDBRANCH   7  12
BRANCH   5  27
ATOM     26  O   UNL     1      34.355 -23.514 -19.931  0.00  0.00    -0.248 OA
ATOM     27  C   UNL     1      34.024 -22.549 -19.255  0.00  0.00    +0.339 C 
BRANCH  27  28
ATOM     28  O   UNL     1      33.131 -22.550 -18.225  0.00  0.00    -0.409 OA
BRANCH  28  31
ATOM     29  O   UNL     1      34.542 -23.554 -16.586  0.00  0.00    -0.407 OA
ATOM     30  O   UNL     1      35.278 -23.303 -14.406  0.00  0.00    -0.245 OA
ATOM     31  C   UNL     1      33.275 -23.621 -17.286  0.00  0.00    +0.370 C 
ATOM     32  C   UNL     1      32.296 -23.480 -16.188  0.00  0.00    +0.068 C 
ATOM     33  C   UNL     1      32.961 -23.350 -14.986  0.00  0.00    +0.079 C 
ATOM     34  C   UNL     1      34.393 -23.392 -15.234  0.00  0.00    +0.344 C 
ATOM     35  C   UNL     1      30.913 -23.474 -16.227  0.00  0.00    +0.003 C 
ATOM     36  C   UNL     1      32.302 -23.205 -13.779  0.00  0.00    +0.006 C 
ATOM     37  C   UNL     1      30.217 -23.330 -15.023  0.00  0.00    -0.000 C 
ATOM     38  C   UNL     1      30.907 -23.195 -13.807  0.00  0.00    +0.000 C 
ENDBRANCH  28  31
ENDBRANCH  27  28
ENDBRANCH   5  27
TORSDOF 7
ENDMDL
MODEL 2
REMARK VINA RESULT:     -10.2      3.916      6.451
REMARK  Name = 71447
REMARK  7 active torsions:
REMARK  status: ('A' for Active; 'I' for Inactive)
REMARK    1  A    between atoms: C_5  and  C_27
REMARK    2  A    between atoms: C_7  and  N_12
REMARK    3  A    between atoms: C_13  and  C_15
REMARK    4  A    between atoms: C_15  and  C_16
REMARK    5  A    between atoms: C_15  and  N_22
REMARK    6  A    between atoms: C_27  and  O_28
REMARK    7  A    between atoms: O_28  and  C_31
REMARK                            x       y       z     vdW  Elec       q    Type
REMARK                         _______ _______ _______ _____ _____    ______ ____
ROOT
ATOM      1  S   UNL     1      33.710 -13.617 -21.278  0.00  0.00    -0.118 S 
ATOM      2  O   UNL     1      32.772 -14.415 -25.509  0.00  0.00    -0.273 OA
ATOM      3  N   UNL     1      34.049 -14.800 -23.562  0.00  0.00    -0.260 N 
ATOM      4  C   UNL     1      34.604 -13.629 -22.875  0.00  0.00    +0.151 C 
ATOM      5  C   UNL     1      33.369 -15.815 -22.783  0.00  0.00    +0.185 C 
ATOM      6  C   UNL     1      33.582 -15.475 -21.292  0.00  0.00    +0.068 C 
ATOM      7  C   UNL     1      34.015 -12.771 -24.003  0.00  0.00    +0.178 C 
ATOM      8  C   UNL     1      33.496 -14.097 -24.593  0.00  0.00    +0.247 C 
ATOM      9  C   UNL     1      32.378 -15.896 -20.446  0.00  0.00    +0.013 C 
ATOM     10  C   UNL     1      34.873 -16.042 -20.687  0.00  0.00    +0.013 C 
ENDROOT
BRANCH   7  12
ATOM     11  O   UNL     1      34.174  -9.886 -24.042  0.00  0.00    -0.277 OA
ATOM     12  N   UNL     1      32.954 -11.818 -23.649  0.00  0.00    -0.298 N 
ATOM     13  C   UNL     1      33.126 -10.433 -23.700  0.00  0.00    +0.206 C 
ATOM     14  H   UNL     1      32.081 -12.173 -23.362  0.00  0.00    +0.150 HD
BRANCH  13  15
ATOM     15  C   UNL     1      31.885  -9.661 -23.264  0.00  0.00    +0.036 C 
BRANCH  15  16
ATOM     16  C   UNL     1      31.675  -9.776 -21.769  0.00  0.00    -0.034 C 
ATOM     17  C   UNL     1      31.003 -10.875 -21.265  0.00  0.00    -0.006 C 
ATOM     18  C   UNL     1      32.160  -8.779 -20.941  0.00  0.00    -0.006 C 
ATOM     19  C   UNL     1      30.809 -10.980 -19.886  0.00  0.00    -0.000 C 
ATOM     20  C   UNL     1      31.966  -8.884 -19.563  0.00  0.00    -0.000 C 
ATOM     21  C   UNL     1      31.290  -9.985 -19.036  0.00  0.00    -0.000 C 
ENDBRANCH  15  16
BRANCH  15  22
ATOM     22  N   UNL     1      32.048  -8.271 -23.700  0.00  0.00    +0.390 N 
ATOM     23  H   UNL     1      32.186  -8.246 -24.710  0.00  0.00    -0.088 HD
ATOM     24  H   UNL     1      32.859  -7.862 -23.235  0.00  0.00    -0.088 HD
ATOM     25  H   UNL     1      31.212  -7.739 -23.458  0.00  0.00    -0.088 HD
ENDBRANCH  15  22
ENDBRANCH  13  15
ENDBRANCH   7  12
BRANCH   5  27
ATOM     26  O   UNL     1      34.341 -17.369 -24.340  0.00  0.00    -0.248 OA
ATOM     27  C   UNL     1      33.905 -17.141 -23.219  0.00  0.00    +0.339 C 
BRANCH  27  28
ATOM     28  O   UNL     1      33.826 -18.027 -22.186  0.00  0.00    -0.409 OA
BRANCH  28  31
ATOM     29  O   UNL     1      36.053 -18.877 -22.252  0.00  0.00    -0.407 OA
ATOM     30  O   UNL     1      37.859 -19.377 -20.897  0.00  0.00    -0.245 OA
ATOM     31  C   UNL     1      34.640 -19.197 -22.314  0.00  0.00    +0.370 C 
ATOM     32  C   UNL     1      34.462 -20.080 -21.143  0.00  0.00    +0.068 C 
ATOM     33  C   UNL     1      35.669 -20.239 -20.492  0.00  0.00    +0.079 C 
ATOM     34  C   UNL     1      36.685 -19.470 -21.193  0.00  0.00    +0.344 C 
ATOM     35  C   UNL     1      33.326 -20.717 -20.675  0.00  0.00    +0.003 C 
ATOM     36  C   UNL     1      35.810 -21.019 -19.360  0.00  0.00    +0.006 C 
ATOM     37  C   UNL     1      33.436 -21.514 -19.531  0.00  0.00    -0.000 C 
ATOM     38  C   UNL     1      34.670 -21.663 -18.877  0.00  0.00    +0.000 C 
ENDBRANCH  28  31
ENDBRANCH  27  28
ENDBRANCH   5  27
TORSDOF 7
ENDMDL
MODEL 3
REMARK VINA RESULT:     -10.2      3.558     10.487
REMARK  Name = 71447
REMARK  7 active torsions:
REMARK  status: ('A' for Active; 'I' for Inactive)
REMARK    1  A    between atoms: C_5  and  C_27
REMARK    2  A    between atoms: C_7  and  N_12
REMARK    3  A    between atoms: C_13  and  C_15
REMARK    4  A    between atoms: C_15  and  C_16
REMARK    5  A    between atoms: C_15  and  N_22
REMARK    6  A    between atoms: C_27  and  O_28
REMARK    7  A    between atoms: O_28  and  C_31
REMARK                            x       y       z     vdW  Elec       q    Type
REMARK                         _______ _______ _______ _____ _____    ______ ____
ROOT
ATOM      1  S   UNL     1      34.694 -15.350 -23.805  0.00  0.00    -0.118 S 
ATOM      2  O   UNL     1      31.915 -15.541 -20.390  0.00  0.00    -0.273 OA
ATOM      3  N   UNL     1      33.277 -14.326 -21.887  0.00  0.00    -0.260 N 
ATOM      4  C   UNL     1      34.659 -14.784 -22.065  0.00  0.00    +0.151 C 
ATOM      5  C   UNL     1      32.481 -14.022 -23.059  0.00  0.00    +0.185 C 
ATOM      6  C   UNL     1      33.419 -14.078 -24.284  0.00  0.00    +0.068 C 
ATOM      7  C   UNL     1      34.375 -15.849 -20.997  0.00  0.00    +0.178 C 
ATOM      8  C   UNL     1      32.956 -15.251 -20.936  0.00  0.00    +0.247 C 
ATOM      9  C   UNL     1      32.679 -14.562 -25.532  0.00  0.00    +0.013 C 
ATOM     10  C   UNL     1      34.154 -12.764 -24.585  0.00  0.00    +0.013 C 
ENDROOT
BRANCH   7  12
ATOM     11  O   UNL     1      36.339 -17.837 -20.263  0.00  0.00    -0.277 OA
ATOM     12  N   UNL     1      34.413 -17.257 -21.415  0.00  0.00    -0.298 N 
ATOM     13  C   UNL     1      35.408 -18.146 -21.005  0.00  0.00    +0.206 C 
ATOM     14  H   UNL     1      33.702 -17.588 -22.012  0.00  0.00    +0.150 HD
BRANCH  13  15
ATOM     15  C   UNL     1      35.238 -19.544 -21.591  0.00  0.00    +0.036 C 
BRANCH  15  16
ATOM     16  C   UNL     1      34.797 -20.526 -20.527  0.00  0.00    -0.034 C 
ATOM     17  C   UNL     1      35.757 -21.236 -19.826  0.00  0.00    -0.006 C 
ATOM     18  C   UNL     1      33.446 -20.694 -20.280  0.00  0.00    -0.006 C 
ATOM     19  C   UNL     1      35.350 -22.142 -18.845  0.00  0.00    -0.000 C 
ATOM     20  C   UNL     1      33.040 -21.599 -19.299  0.00  0.00    -0.000 C 
ATOM     21  C   UNL     1      33.993 -22.324 -18.582  0.00  0.00    -0.000 C 
ENDBRANCH  15  16
BRANCH  15  22
ATOM     22  N   UNL     1      34.280 -19.451 -22.697  0.00  0.00    +0.390 N 
ATOM     23  H   UNL     1      34.771 -19.191 -23.552  0.00  0.00    -0.088 HD
ATOM     24  H   UNL     1      33.578 -18.744 -22.479  0.00  0.00    -0.088 HD
ATOM     25  H   UNL     1      33.824 -20.354 -22.828  0.00  0.00    -0.088 HD
ENDBRANCH  15  22
ENDBRANCH  13  15
ENDBRANCH   7  12
BRANCH   5  27
ATOM     26  O   UNL     1      31.021 -12.184 -23.580  0.00  0.00    -0.248 OA
ATOM     27  C   UNL     1      31.825 -12.700 -22.816  0.00  0.00    +0.339 C 
BRANCH  27  28
ATOM     28  O   UNL     1      32.265 -12.184 -21.633  0.00  0.00    -0.409 OA
BRANCH  28  31
ATOM     29  O   UNL     1      31.441 -11.448 -19.520  0.00  0.00    -0.407 OA
ATOM     30  O   UNL     1      31.981 -10.103 -17.716  0.00  0.00    -0.245 OA
ATOM     31  C   UNL     1      31.345 -11.318 -20.960  0.00  0.00    +0.370 C 
ATOM     32  C   UNL     1      31.715  -9.904 -21.178  0.00  0.00    +0.068 C 
ATOM     33  C   UNL     1      31.988  -9.303 -19.967  0.00  0.00    +0.079 C 
ATOM     34  C   UNL     1      31.820 -10.283 -18.907  0.00  0.00    +0.344 C 
ATOM     35  C   UNL     1      31.800  -9.179 -22.354  0.00  0.00    +0.003 C 
ATOM     36  C   UNL     1      32.359  -7.975 -19.858  0.00  0.00    +0.006 C 
ATOM     37  C   UNL     1      32.171  -7.833 -22.278  0.00  0.00    -0.000 C 
ATOM     38  C   UNL     1      32.450  -7.235 -21.038  0.00  0.00    +0.000 C 
ENDBRANCH  28  31
ENDBRANCH  27  28
ENDBRANCH   5  27
TORSDOF 7
ENDMDL
MODEL 4
REMARK VINA RESULT:     -10.1      4.407      7.576
REMARK  Name = 71447
REMARK  7 active torsions:
REMARK  status: ('A' for Active; 'I' for Inactive)
REMARK    1  A    between atoms: C_5  and  C_27
REMARK    2  A    between atoms: C_7  and  N_12
REMARK    3  A    between atoms: C_13  and  C_15
REMARK    4  A    between atoms: C_15  and  C_16
REMARK    5  A    between atoms: C_15  and  N_22
REMARK    6  A    between atoms: C_27  and  O_28
REMARK    7  A    between atoms: O_28  and  C_31
REMARK                            x       y       z     vdW  Elec       q    Type
REMARK                         _______ _______ _______ _____ _____    ______ ____
ROOT
ATOM      1  S   UNL     1      33.206 -12.422 -23.506  0.00  0.00    -0.118 S 
ATOM      2  O   UNL     1      31.941 -12.494 -19.285  0.00  0.00    -0.273 OA
ATOM      3  N   UNL     1      31.980 -13.428 -21.452  0.00  0.00    -0.260 N 
ATOM      4  C   UNL     1      31.636 -12.548 -22.573  0.00  0.00    +0.151 C 
ATOM      5  C   UNL     1      33.161 -14.263 -21.550  0.00  0.00    +0.185 C 
ATOM      6  C   UNL     1      33.692 -14.147 -22.995  0.00  0.00    +0.068 C 
ATOM      7  C   UNL     1      31.356 -11.449 -21.539  0.00  0.00    +0.178 C 
ATOM      8  C   UNL     1      31.754 -12.496 -20.481  0.00  0.00    +0.247 C 
ATOM      9  C   UNL     1      35.216 -14.267 -23.041  0.00  0.00    +0.013 C 
ATOM     10  C   UNL     1      33.057 -15.129 -23.989  0.00  0.00    +0.013 C 
ENDROOT
BRANCH   7  12
ATOM     11  O   UNL     1      31.284  -9.205 -19.720  0.00  0.00    -0.277 OA
ATOM     12  N   UNL     1      32.221 -10.261 -21.559  0.00  0.00    -0.298 N 
ATOM     13  C   UNL     1      32.110  -9.223 -20.632  0.00  0.00    +0.206 C 
ATOM     14  H   UNL     1      32.910 -10.194 -22.260  0.00  0.00    +0.150 HD
BRANCH  13  15
ATOM     15  C   UNL     1      33.105  -8.094 -20.878  0.00  0.00    +0.036 C 
BRANCH  15  16
ATOM     16  C   UNL     1      32.756  -7.331 -22.138  0.00  0.00    -0.034 C 
ATOM     17  C   UNL     1      33.675  -7.282 -23.172  0.00  0.00    -0.006 C 
ATOM     18  C   UNL     1      31.529  -6.700 -22.227  0.00  0.00    -0.006 C 
ATOM     19  C   UNL     1      33.353  -6.577 -24.334  0.00  0.00    -0.000 C 
ATOM     20  C   UNL     1      31.207  -5.997 -23.389  0.00  0.00    -0.000 C 
ATOM     21  C   UNL     1      32.120  -5.935 -24.442  0.00  0.00    -0.000 C 
ENDBRANCH  15  16
BRANCH  15  22
ATOM     22  N   UNL     1      33.111  -7.237 -19.689  0.00  0.00    +0.390 N 
ATOM     23  H   UNL     1      32.607  -6.373 -19.891  0.00  0.00    -0.088 HD
ATOM     24  H   UNL     1      34.074  -7.017 -19.434  0.00  0.00    -0.088 HD
ATOM     25  H   UNL     1      32.656  -7.723 -18.917  0.00  0.00    -0.088 HD
ENDBRANCH  15  22
ENDBRANCH  13  15
ENDBRANCH   7  12
BRANCH   5  27
ATOM     26  O   UNL     1      31.612 -16.050 -21.113  0.00  0.00    -0.248 OA
ATOM     27  C   UNL     1      32.765 -15.641 -21.123  0.00  0.00    +0.339 C 
BRANCH  27  28
ATOM     28  O   UNL     1      33.876 -16.341 -20.757  0.00  0.00    -0.409 OA
BRANCH  28  31
ATOM     29  O   UNL     1      35.681 -17.439 -21.863  0.00  0.00    -0.407 OA
ATOM     30  O   UNL     1      37.436 -18.899 -21.489  0.00  0.00    -0.245 OA
ATOM     31  C   UNL     1      34.250 -17.406 -21.637  0.00  0.00    +0.370 C 
ATOM     32  C   UNL     1      33.998 -18.715 -20.998  0.00  0.00    +0.068 C 
ATOM     33  C   UNL     1      35.183 -19.412 -20.883  0.00  0.00    +0.079 C 
ATOM     34  C   UNL     1      36.260 -18.601 -21.429  0.00  0.00    +0.344 C 
ATOM     35  C   UNL     1      32.812 -19.272 -20.552  0.00  0.00    +0.003 C 
ATOM     36  C   UNL     1      35.257 -20.675 -20.325  0.00  0.00    +0.006 C 
ATOM     37  C   UNL     1      32.853 -20.549 -19.983  0.00  0.00    -0.000 C 
ATOM     38  C   UNL     1      34.068 -21.246 -19.870  0.00  0.00    +0.000 C 
ENDBRANCH  28  31
ENDBRANCH  27  28
ENDBRANCH   5  27
TORSDOF 7
ENDMDL
MODEL 5
REMARK VINA RESULT:     -10.1      0.926      1.893
REMARK  Name = 71447
REMARK  7 active torsions:
REMARK  status: ('A' for Active; 'I' for Inactive)
REMARK    1  A    between atoms: C_5  and  C_27
REMARK    2  A    between atoms: C_7  and  N_12
REMARK    3  A    between atoms: C_13  and  C_15
REMARK    4  A    between atoms: C_15  and  C_16
REMARK    5  A    between atoms: C_15  and  N_22
REMARK    6  A    between atoms: C_27  and  O_28
REMARK    7  A    between atoms: O_28  and  C_31
REMARK                            x       y       z     vdW  Elec       q    Type
REMARK                         _______ _______ _______ _____ _____    ______ ____
ROOT
ATOM      1  S   UNL     1      36.446 -19.748 -20.489  0.00  0.00    -0.118 S 
ATOM      2  O   UNL     1      32.076 -19.959 -19.964  0.00  0.00    -0.273 OA
ATOM      3  N   UNL     1      34.144 -20.942 -20.541  0.00  0.00    -0.260 N 
ATOM      4  C   UNL     1      34.991 -20.220 -21.494  0.00  0.00    +0.151 C 
ATOM      5  C   UNL     1      34.737 -21.463 -19.326  0.00  0.00    +0.185 C 
ATOM      6  C   UNL     1      36.266 -21.277 -19.441  0.00  0.00    +0.068 C 
ATOM      7  C   UNL     1      33.866 -19.183 -21.610  0.00  0.00    +0.178 C 
ATOM      8  C   UNL     1      33.106 -20.056 -20.593  0.00  0.00    +0.247 C 
ATOM      9  C   UNL     1      36.901 -21.020 -18.073  0.00  0.00    +0.013 C 
ATOM     10  C   UNL     1      36.995 -22.425 -20.151  0.00  0.00    +0.013 C 
ENDROOT
BRANCH   7  12
ATOM     11  O   UNL     1      34.738 -16.929 -23.194  0.00  0.00    -0.277 OA
ATOM     12  N   UNL     1      34.145 -17.820 -21.138  0.00  0.00    -0.298 N 
ATOM     13  C   UNL     1      34.565 -16.792 -21.984  0.00  0.00    +0.206 C 
ATOM     14  H   UNL     1      34.032 -17.624 -20.179  0.00  0.00    +0.150 HD
BRANCH  13  15
ATOM     15  C   UNL     1      34.810 -15.478 -21.250  0.00  0.00    +0.036 C 
BRANCH  15  16
ATOM     16  C   UNL     1      33.864 -14.401 -21.739  0.00  0.00    -0.034 C 
ATOM     17  C   UNL     1      34.069 -13.841 -22.988  0.00  0.00    -0.006 C 
ATOM     18  C   UNL     1      32.818 -14.001 -20.927  0.00  0.00    -0.006 C 
ATOM     19  C   UNL     1      33.197 -12.848 -23.439  0.00  0.00    -0.000 C 
ATOM     20  C   UNL     1      31.947 -13.009 -21.378  0.00  0.00    -0.000 C 
ATOM     21  C   UNL     1      32.137 -12.432 -22.634  0.00  0.00    -0.000 C 
ENDBRANCH  15  16
BRANCH  15  22
ATOM     22  N   UNL     1      34.668 -15.734 -19.814  0.00  0.00    +0.390 N 
ATOM     23  H   UNL     1      35.324 -15.148 -19.298  0.00  0.00    -0.088 HD
ATOM     24  H   UNL     1      34.866 -16.717 -19.623  0.00  0.00    -0.088 HD
ATOM     25  H   UNL     1      33.716 -15.517 -19.522  0.00  0.00    -0.088 HD
ENDBRANCH  15  22
ENDBRANCH  13  15
ENDBRANCH   7  12
BRANCH   5  27
ATOM     26  O   UNL     1      33.910 -23.580 -20.112  0.00  0.00    -0.248 OA
ATOM     27  C   UNL     1      34.274 -22.877 -19.179  0.00  0.00    +0.339 C 
BRANCH  27  28
ATOM     28  O   UNL     1      34.324 -23.238 -17.864  0.00  0.00    -0.409 OA
BRANCH  28  31
ATOM     29  O   UNL     1      32.124 -22.371 -17.551  0.00  0.00    -0.407 OA
ATOM     30  O   UNL     1      29.969 -23.010 -17.004  0.00  0.00    -0.245 OA
ATOM     31  C   UNL     1      33.455 -22.507 -16.993  0.00  0.00    +0.370 C 
ATOM     32  C   UNL     1      33.204 -23.273 -15.754  0.00  0.00    +0.068 C 
ATOM     33  C   UNL     1      31.855 -23.535 -15.635  0.00  0.00    +0.079 C 
ATOM     34  C   UNL     1      31.162 -22.967 -16.780  0.00  0.00    +0.344 C 
ATOM     35  C   UNL     1      34.090 -23.707 -14.783  0.00  0.00    +0.003 C 
ATOM     36  C   UNL     1      31.320 -24.234 -14.568  0.00  0.00    +0.006 C 
ATOM     37  C   UNL     1      33.581 -24.417 -13.692  0.00  0.00    -0.000 C 
ATOM     38  C   UNL     1      32.205 -24.680 -13.585  0.00  0.00    +0.000 C 
ENDBRANCH  28  31
ENDBRANCH  27  28
ENDBRANCH   5  27
TORSDOF 7
ENDMDL
MODEL 6
REMARK VINA RESULT:      -9.8      4.368      7.282
REMARK  Name = 71447
REMARK  7 active torsions:
REMARK  status: ('A' for Active; 'I' for Inactive)
REMARK    1  A    between atoms: C_5  and  C_27
REMARK    2  A    between atoms: C_7  and  N_12
REMARK    3  A    between atoms: C_13  and  C_15
REMARK    4  A    between atoms: C_15  and  C_16
REMARK    5  A    between atoms: C_15  and  N_22
REMARK    6  A    between atoms: C_27  and  O_28
REMARK    7  A    between atoms: O_28  and  C_31
REMARK                            x       y       z     vdW  Elec       q    Type
REMARK                         _______ _______ _______ _____ _____    ______ ____
ROOT
ATOM      1  S   UNL     1      32.408 -12.613 -23.506  0.00  0.00    -0.118 S 
ATOM      2  O   UNL     1      34.687 -14.694 -20.361  0.00  0.00    -0.273 OA
ATOM      3  N   UNL     1      33.337 -14.712 -22.297  0.00  0.00    -0.260 N 
ATOM      4  C   UNL     1      32.101 -13.923 -22.265  0.00  0.00    +0.151 C 
ATOM      5  C   UNL     1      34.213 -14.601 -23.446  0.00  0.00    +0.185 C 
ATOM      6  C   UNL     1      33.476 -13.761 -24.511  0.00  0.00    +0.068 C 
ATOM      7  C   UNL     1      32.432 -13.584 -20.805  0.00  0.00    +0.178 C 
ATOM      8  C   UNL     1      33.694 -14.446 -21.006  0.00  0.00    +0.247 C 
ATOM      9  C   UNL     1      34.454 -12.929 -25.342  0.00  0.00    +0.013 C 
ATOM     10  C   UNL     1      32.557 -14.571 -25.437  0.00  0.00    +0.013 C 
ENDROOT
BRANCH   7  12
ATOM     11  O   UNL     1      30.518 -11.438 -20.526  0.00  0.00    -0.277 OA
ATOM     12  N   UNL     1      32.714 -12.179 -20.481  0.00  0.00    -0.298 N 
ATOM     13  C   UNL     1      31.716 -11.209 -20.367  0.00  0.00    +0.206 C 
ATOM     14  H   UNL     1      33.651 -11.909 -20.338  0.00  0.00    +0.150 HD
BRANCH  13  15
ATOM     15  C   UNL     1      32.265  -9.823 -20.045  0.00  0.00    +0.036 C 
BRANCH  15  16
ATOM     16  C   UNL     1      31.953  -8.847 -21.158  0.00  0.00    -0.034 C 
ATOM     17  C   UNL     1      31.670  -9.333 -22.422  0.00  0.00    -0.006 C 
ATOM     18  C   UNL     1      31.957  -7.490 -20.887  0.00  0.00    -0.006 C 
ATOM     19  C   UNL     1      31.382  -8.432 -23.449  0.00  0.00    -0.000 C 
ATOM     20  C   UNL     1      31.669  -6.589 -21.913  0.00  0.00    -0.000 C 
ATOM     21  C   UNL     1      31.382  -7.061 -23.194  0.00  0.00    -0.000 C 
ENDBRANCH  15  16
BRANCH  15  22
ATOM     22  N   UNL     1      31.697  -9.405 -18.759  0.00  0.00    +0.390 N 
ATOM     23  H   UNL     1      31.737 -10.183 -18.101  0.00  0.00    -0.088 HD
ATOM     24  H   UNL     1      30.726  -9.122 -18.893  0.00  0.00    -0.088 HD
ATOM     25  H   UNL     1      32.233  -8.620 -18.390  0.00  0.00    -0.088 HD
ENDBRANCH  15  22
ENDBRANCH  13  15
ENDBRANCH   7  12
BRANCH   5  27
ATOM     26  O   UNL     1      34.980 -16.287 -24.979  0.00  0.00    -0.248 OA
ATOM     27  C   UNL     1      34.573 -15.991 -23.864  0.00  0.00    +0.339 C 
BRANCH  27  28
ATOM     28  O   UNL     1      34.375 -16.845 -22.820  0.00  0.00    -0.409 OA
BRANCH  28  31
ATOM     29  O   UNL     1      36.380 -18.132 -22.714  0.00  0.00    -0.407 OA
ATOM     30  O   UNL     1      37.854 -19.098 -21.216  0.00  0.00    -0.245 OA
ATOM     31  C   UNL     1      34.953 -18.146 -22.972  0.00  0.00    +0.370 C 
ATOM     32  C   UNL     1      34.450 -19.059 -21.924  0.00  0.00    +0.068 C 
ATOM     33  C   UNL     1      35.503 -19.514 -21.158  0.00  0.00    +0.079 C 
ATOM     34  C   UNL     1      36.735 -18.922 -21.654  0.00  0.00    +0.344 C 
ATOM     35  C   UNL     1      33.158 -19.479 -21.658  0.00  0.00    +0.003 C 
ATOM     36  C   UNL     1      35.335 -20.390 -20.101  0.00  0.00    +0.006 C 
ATOM     37  C   UNL     1      32.955 -20.366 -20.597  0.00  0.00    -0.000 C 
ATOM     38  C   UNL     1      34.037 -20.818 -19.822  0.00  0.00    +0.000 C 
ENDBRANCH  28  31
ENDBRANCH  27  28
ENDBRANCH   5  27
TORSDOF 7
ENDMDL
MODEL 7
REMARK VINA RESULT:      -9.3      2.202      9.446
REMARK  Name = 71447
REMARK  7 active torsions:
REMARK  status: ('A' for Active; 'I' for Inactive)
REMARK    1  A    between atoms: C_5  and  C_27
REMARK    2  A    between atoms: C_7  and  N_12
REMARK    3  A    between atoms: C_13  and  C_15
REMARK    4  A    between atoms: C_15  and  C_16
REMARK    5  A    between atoms: C_15  and  N_22
REMARK    6  A    between atoms: C_27  and  O_28
REMARK    7  A    between atoms: O_28  and  C_31
REMARK                            x       y       z     vdW  Elec       q    Type
REMARK                         _______ _______ _______ _____ _____    ______ ____
ROOT
ATOM      1  S   UNL     1      33.020 -20.894 -19.877  0.00  0.00    -0.118 S 
ATOM      2  O   UNL     1      37.209 -20.363 -18.618  0.00  0.00    -0.273 OA
ATOM      3  N   UNL     1      35.567 -20.624 -20.293  0.00  0.00    -0.260 N 
ATOM      4  C   UNL     1      34.623 -21.736 -20.145  0.00  0.00    +0.151 C 
ATOM      5  C   UNL     1      35.057 -19.307 -20.618  0.00  0.00    +0.185 C 
ATOM      6  C   UNL     1      33.554 -19.458 -20.938  0.00  0.00    +0.068 C 
ATOM      7  C   UNL     1      35.406 -22.148 -18.891  0.00  0.00    +0.178 C 
ATOM      8  C   UNL     1      36.304 -20.931 -19.185  0.00  0.00    +0.247 C 
ATOM      9  C   UNL     1      32.767 -18.214 -20.521  0.00  0.00    +0.013 C 
ATOM     10  C   UNL     1      33.246 -19.810 -22.399  0.00  0.00    +0.013 C 
ENDROOT
BRANCH   7  12
ATOM     11  O   UNL     1      33.828 -24.222 -17.642  0.00  0.00    -0.277 OA
ATOM     12  N   UNL     1      34.707 -22.077 -17.600  0.00  0.00    -0.298 N 
ATOM     13  C   UNL     1      33.966 -23.138 -17.077  0.00  0.00    +0.206 C 
ATOM     14  H   UNL     1      34.765 -21.242 -17.081  0.00  0.00    +0.150 HD
BRANCH  13  15
ATOM     15  C   UNL     1      33.320 -22.809 -15.735  0.00  0.00    +0.036 C 
BRANCH  15  16
ATOM     16  C   UNL     1      31.935 -23.415 -15.639  0.00  0.00    -0.034 C 
ATOM     17  C   UNL     1      30.919 -22.902 -16.426  0.00  0.00    -0.006 C 
ATOM     18  C   UNL     1      31.717 -24.466 -14.767  0.00  0.00    -0.006 C 
ATOM     19  C   UNL     1      29.642 -23.460 -16.338  0.00  0.00    -0.000 C 
ATOM     20  C   UNL     1      30.441 -25.025 -14.679  0.00  0.00    -0.000 C 
ATOM     21  C   UNL     1      29.404 -24.521 -15.464  0.00  0.00    -0.000 C 
ENDBRANCH  15  16
BRANCH  15  22
ATOM     22  N   UNL     1      34.214 -23.291 -14.678  0.00  0.00    +0.390 N 
ATOM     23  H   UNL     1      34.806 -24.035 -15.047  0.00  0.00    -0.088 HD
ATOM     24  H   UNL     1      33.659 -23.651 -13.902  0.00  0.00    -0.088 HD
ATOM     25  H   UNL     1      34.798 -22.522 -14.351  0.00  0.00    -0.088 HD
ENDBRANCH  15  22
ENDBRANCH  13  15
ENDBRANCH   7  12
BRANCH   5  27
ATOM     26  O   UNL     1      37.118 -18.708 -21.701  0.00  0.00    -0.248 OA
ATOM     27  C   UNL     1      35.897 -18.770 -21.732  0.00  0.00    +0.339 C 
BRANCH  27  28
ATOM     28  O   UNL     1      35.092 -18.370 -22.757  0.00  0.00    -0.409 OA
BRANCH  28  31
ATOM     29  O   UNL     1      35.111 -17.132 -24.796  0.00  0.00    -0.407 OA
ATOM     30  O   UNL     1      33.743 -15.911 -26.205  0.00  0.00    -0.245 OA
ATOM     31  C   UNL     1      35.465 -17.141 -23.390  0.00  0.00    +0.370 C 
ATOM     32  C   UNL     1      34.663 -16.022 -22.853  0.00  0.00    +0.068 C 
ATOM     33  C   UNL     1      33.934 -15.442 -23.870  0.00  0.00    +0.079 C 
ATOM     34  C   UNL     1      34.213 -16.149 -25.110  0.00  0.00    +0.344 C 
ATOM     35  C   UNL     1      34.578 -15.529 -21.562  0.00  0.00    +0.003 C 
ATOM     36  C   UNL     1      33.092 -14.364 -23.667  0.00  0.00    +0.006 C 
ATOM     37  C   UNL     1      33.735 -14.439 -21.323  0.00  0.00    -0.000 C 
ATOM     38  C   UNL     1      32.996 -13.860 -22.369  0.00  0.00    +0.000 C 
ENDBRANCH  28  31
ENDBRANCH  27  28
ENDBRANCH   5  27
TORSDOF 7
ENDMDL
MODEL 8
REMARK VINA RESULT:      -9.3      3.818     11.660
REMARK  Name = 71447
REMARK  7 active torsions:
REMARK  status: ('A' for Active; 'I' for Inactive)
REMARK    1  A    between atoms: C_5  and  C_27
REMARK    2  A    between atoms: C_7  and  N_12
REMARK    3  A    between atoms: C_13  and  C_15
REMARK    4  A    between atoms: C_15  and  C_16
REMARK    5  A    between atoms: C_15  and  N_22
REMARK    6  A    between atoms: C_27  and  O_28
REMARK    7  A    between atoms: O_28  and  C_31
REMARK                            x       y       z     vdW  Elec       q    Type
REMARK                         _______ _______ _______ _____ _____    ______ ____
ROOT
ATOM      1  S   UNL     1      34.464 -14.742 -23.922  0.00  0.00    -0.118 S 
ATOM      2  O   UNL     1      32.001 -14.919 -20.273  0.00  0.00    -0.273 OA
ATOM      3  N   UNL     1      33.301 -13.723 -21.838  0.00  0.00    -0.260 N 
ATOM      4  C   UNL     1      34.626 -14.259 -22.164  0.00  0.00    +0.151 C 
ATOM      5  C   UNL     1      32.424 -13.312 -22.916  0.00  0.00    +0.185 C 
ATOM      6  C   UNL     1      33.241 -13.369 -24.225  0.00  0.00    +0.068 C 
ATOM      7  C   UNL     1      34.369 -15.354 -21.120  0.00  0.00    +0.178 C 
ATOM      8  C   UNL     1      33.005 -14.671 -20.901  0.00  0.00    +0.247 C 
ATOM      9  C   UNL     1      32.359 -13.744 -25.417  0.00  0.00    +0.013 C 
ATOM     10  C   UNL     1      34.032 -12.092 -24.538  0.00  0.00    +0.013 C 
ENDROOT
BRANCH   7  12
ATOM     11  O   UNL     1      36.032 -17.588 -20.349  0.00  0.00    -0.277 OA
ATOM     12  N   UNL     1      34.272 -16.740 -21.599  0.00  0.00    -0.298 N 
ATOM     13  C   UNL     1      35.126 -17.756 -21.165  0.00  0.00    +0.206 C 
ATOM     14  H   UNL     1      33.573 -16.962 -22.256  0.00  0.00    +0.150 HD
BRANCH  13  15
ATOM     15  C   UNL     1      34.837 -19.101 -21.825  0.00  0.00    +0.036 C 
BRANCH  15  16
ATOM     16  C   UNL     1      34.483 -20.146 -20.789  0.00  0.00    -0.034 C 
ATOM     17  C   UNL     1      35.487 -20.942 -20.264  0.00  0.00    -0.006 C 
ATOM     18  C   UNL     1      33.166 -20.284 -20.390  0.00  0.00    -0.006 C 
ATOM     19  C   UNL     1      35.161 -21.906 -19.309  0.00  0.00    -0.000 C 
ATOM     20  C   UNL     1      32.840 -21.247 -19.435  0.00  0.00    -0.000 C 
ATOM     21  C   UNL     1      33.838 -22.059 -18.895  0.00  0.00    -0.000 C 
ENDBRANCH  15  16
BRANCH  15  22
ATOM     22  N   UNL     1      33.763 -18.898 -22.802  0.00  0.00    +0.390 N 
ATOM     23  H   UNL     1      33.613 -17.898 -22.939  0.00  0.00    -0.088 HD
ATOM     24  H   UNL     1      32.904 -19.326 -22.457  0.00  0.00    -0.088 HD
ATOM     25  H   UNL     1      34.025 -19.327 -23.689  0.00  0.00    -0.088 HD
ENDBRANCH  15  22
ENDBRANCH  13  15
ENDBRANCH   7  12
BRANCH   5  27
ATOM     26  O   UNL     1      30.974 -11.781 -21.760  0.00  0.00    -0.248 OA
ATOM     27  C   UNL     1      31.884 -11.965 -22.557  0.00  0.00    +0.339 C 
BRANCH  27  28
ATOM     28  O   UNL     1      32.558 -11.005 -23.252  0.00  0.00    -0.409 OA
BRANCH  28  31
ATOM     29  O   UNL     1      34.170  -9.371 -22.606  0.00  0.00    -0.407 OA
ATOM     30  O   UNL     1      35.395  -7.587 -23.426  0.00  0.00    -0.245 OA
ATOM     31  C   UNL     1      32.780  -9.778 -22.549  0.00  0.00    +0.370 C 
ATOM     32  C   UNL     1      32.092  -8.661 -23.230  0.00  0.00    +0.068 C 
ATOM     33  C   UNL     1      33.018  -7.718 -23.626  0.00  0.00    +0.079 C 
ATOM     34  C   UNL     1      34.344  -8.167 -23.235  0.00  0.00    +0.344 C 
ATOM     35  C   UNL     1      30.745  -8.469 -23.483  0.00  0.00    +0.003 C 
ATOM     36  C   UNL     1      32.665  -6.555 -24.287  0.00  0.00    +0.006 C 
ATOM     37  C   UNL     1      30.356  -7.303 -24.149  0.00  0.00    -0.000 C 
ATOM     38  C   UNL     1      31.310  -6.352 -24.550  0.00  0.00    +0.000 C 
ENDBRANCH  28  31
ENDBRANCH  27  28
ENDBRANCH   5  27
TORSDOF 7
ENDMDL
MODEL 9
REMARK VINA RESULT:      -9.2      4.161      7.166
REMARK  Name = 71447
REMARK  7 active torsions:
REMARK  status: ('A' for Active; 'I' for Inactive)
REMARK    1  A    between atoms: C_5  and  C_27
REMARK    2  A    between atoms: C_7  and  N_12
REMARK    3  A    between atoms: C_13  and  C_15
REMARK    4  A    between atoms: C_15  and  C_16
REMARK    5  A    between atoms: C_15  and  N_22
REMARK    6  A    between atoms: C_27  and  O_28
REMARK    7  A    between atoms: O_28  and  C_31
REMARK                            x       y       z     vdW  Elec       q    Type
REMARK                         _______ _______ _______ _____ _____    ______ ____
ROOT
ATOM      1  S   UNL     1      33.399 -13.160 -20.897  0.00  0.00    -0.118 S 
ATOM      2  O   UNL     1      32.603 -13.672 -25.200  0.00  0.00    -0.273 OA
ATOM      3  N   UNL     1      33.853 -14.143 -23.254  0.00  0.00    -0.260 N 
ATOM      4  C   UNL     1      34.329 -13.002 -22.466  0.00  0.00    +0.151 C 
ATOM      5  C   UNL     1      33.210 -15.249 -22.574  0.00  0.00    +0.185 C 
ATOM      6  C   UNL     1      33.370 -15.015 -21.057  0.00  0.00    +0.068 C 
ATOM      7  C   UNL     1      33.722 -12.089 -23.540  0.00  0.00    +0.178 C 
ATOM      8  C   UNL     1      33.287 -13.390 -24.243  0.00  0.00    +0.247 C 
ATOM      9  C   UNL     1      32.171 -15.562 -20.279  0.00  0.00    +0.013 C 
ATOM     10  C   UNL     1      34.675 -15.561 -20.462  0.00  0.00    +0.013 C 
ENDROOT
BRANCH   7  12
ATOM     11  O   UNL     1      33.801  -9.238 -23.075  0.00  0.00    -0.277 OA
ATOM     12  N   UNL     1      32.604 -11.222 -23.143  0.00  0.00    -0.298 N 
ATOM     13  C   UNL     1      32.741  -9.848 -22.941  0.00  0.00    +0.206 C 
ATOM     14  H   UNL     1      31.717 -11.631 -23.013  0.00  0.00    +0.150 HD
BRANCH  13  15
ATOM     15  C   UNL     1      31.441  -9.175 -22.513  0.00  0.00    +0.036 C 
BRANCH  15  16
ATOM     16  C   UNL     1      31.429  -7.716 -22.916  0.00  0.00    -0.034 C 
ATOM     17  C   UNL     1      31.724  -6.752 -21.968  0.00  0.00    -0.006 C 
ATOM     18  C   UNL     1      31.124  -7.379 -24.223  0.00  0.00    -0.006 C 
ATOM     19  C   UNL     1      31.713  -5.406 -22.340  0.00  0.00    -0.000 C 
ATOM     20  C   UNL     1      31.113  -6.034 -24.595  0.00  0.00    -0.000 C 
ATOM     21  C   UNL     1      31.407  -5.048 -23.652  0.00  0.00    -0.000 C 
ENDBRANCH  15  16
BRANCH  15  22
ATOM     22  N   UNL     1      30.331  -9.927 -23.106  0.00  0.00    +0.390 N 
ATOM     23  H   UNL     1      29.845  -9.339 -23.783  0.00  0.00    -0.088 HD
ATOM     24  H   UNL     1      29.682 -10.210 -22.372  0.00  0.00    -0.088 HD
ATOM     25  H   UNL     1      30.695 -10.756 -23.576  0.00  0.00    -0.088 HD
ENDBRANCH  15  22
ENDBRANCH  13  15
ENDBRANCH   7  12
BRANCH   5  27
ATOM     26  O   UNL     1      34.189 -16.664 -24.254  0.00  0.00    -0.248 OA
ATOM     27  C   UNL     1      33.826 -16.507 -23.097  0.00  0.00    +0.339 C 
BRANCH  27  28
ATOM     28  O   UNL     1      33.910 -17.424 -22.091  0.00  0.00    -0.409 OA
BRANCH  28  31
ATOM     29  O   UNL     1      36.079 -18.377 -22.362  0.00  0.00    -0.407 OA
ATOM     30  O   UNL     1      37.903 -19.140 -21.161  0.00  0.00    -0.245 OA
ATOM     31  C   UNL     1      34.649 -18.611 -22.400  0.00  0.00    +0.370 C 
ATOM     32  C   UNL     1      34.464 -19.624 -21.341  0.00  0.00    +0.068 C 
ATOM     33  C   UNL     1      35.682 -19.928 -20.769  0.00  0.00    +0.079 C 
ATOM     34  C   UNL     1      36.715 -19.132 -21.414  0.00  0.00    +0.344 C 
ATOM     35  C   UNL     1      33.310 -20.253 -20.905  0.00  0.00    +0.003 C 
ATOM     36  C   UNL     1      35.820 -20.852 -19.750  0.00  0.00    +0.006 C 
ATOM     37  C   UNL     1      33.416 -21.193 -19.875  0.00  0.00    -0.000 C 
ATOM     38  C   UNL     1      34.664 -21.490 -19.300  0.00  0.00    +0.000 C 
ENDBRANCH  28  31
ENDBRANCH  27  28
ENDBRANCH   5  27
TORSDOF 7
ENDMDL
