MODEL 1
REMARK VINA RESULT:      -8.4      0.000      0.000
REMARK  Name = 11326613
REMARK  6 active torsions:
REMARK  status: ('A' for Active; 'I' for Inactive)
REMARK    1  A    between atoms: C_2  and  C_8
REMARK    2  A    between atoms: C_3  and  C_18
REMARK    3  A    between atoms: CA_4  and  C_28
REMARK    4  A    between atoms: CA_5  and  C_32
REMARK    5  A    between atoms: C_28  and  O_29
REMARK    6  A    between atoms: C_32  and  O_33
REMARK                            x       y       z     vdW  Elec       q    Type
REMARK                         _______ _______ _______ _____ _____    ______ ____
ROOT
ATOM      1  N   UNL     1      32.124 -12.871 -19.921  0.00  0.00    -0.343 N 
ATOM      2  C   UNL     1      31.911 -11.281 -21.460  0.00  0.00    +0.025 A 
ATOM      3  C   UNL     1      32.527 -12.411 -22.056  0.00  0.00    +0.025 A 
ATOM      4  CA  UNL     1      31.674 -11.595 -20.138  0.00  0.00    +0.133 A 
ATOM      5  CA  UNL     1      32.646 -13.379 -21.082  0.00  0.00    +0.133 A 
ATOM      6  H   UNL     1      32.078 -13.350 -19.062  0.00  0.00    +0.166 HD
ENDROOT
BRANCH   2   8
ATOM      7  N   UNL     1      30.855  -8.554 -23.606  0.00  0.00    -0.312 N 
ATOM      8  C   UNL     1      31.601 -10.040 -22.134  0.00  0.00    +0.017 C 
ATOM      9  C   UNL     1      31.941  -8.739 -21.666  0.00  0.00    +0.015 C 
ATOM     10  C   UNL     1      31.462  -7.826 -22.608  0.00  0.00    +0.048 C 
ATOM     11  C   UNL     1      30.934  -9.893 -23.330  0.00  0.00    +0.062 C 
ATOM     12  C   UNL     1      32.612  -8.251 -20.527  0.00  0.00    +0.001 C 
ATOM     13  C   UNL     1      31.621  -6.443 -22.467  0.00  0.00    +0.015 C 
ATOM     14  C   UNL     1      32.778  -6.870 -20.374  0.00  0.00    +0.000 C 
ATOM     15  C   UNL     1      32.290  -5.981 -21.330  0.00  0.00    +0.001 C 
ATOM     16  H   UNL     1      30.427  -8.168 -24.405  0.00  0.00    +0.152 HD
ENDBRANCH   2   8
BRANCH   3  18
ATOM     17  N   UNL     1      33.216 -13.198 -25.528  0.00  0.00    -0.312 N 
ATOM     18  C   UNL     1      32.946 -12.506 -23.441  0.00  0.00    +0.017 C 
ATOM     19  C   UNL     1      33.789 -11.578 -24.108  0.00  0.00    +0.015 C 
ATOM     20  C   UNL     1      33.944 -12.036 -25.419  0.00  0.00    +0.048 C 
ATOM     21  C   UNL     1      32.609 -13.491 -24.336  0.00  0.00    +0.062 C 
ATOM     22  C   UNL     1      34.440 -10.388 -23.724  0.00  0.00    +0.001 C 
ATOM     23  C   UNL     1      34.719 -11.361 -26.367  0.00  0.00    +0.015 C 
ATOM     24  C   UNL     1      35.219  -9.702 -24.664  0.00  0.00    +0.000 C 
ATOM     25  C   UNL     1      35.355 -10.182 -25.965  0.00  0.00    +0.001 C 
ATOM     26  H   UNL     1      33.143 -13.742 -26.346  0.00  0.00    +0.152 HD
ENDBRANCH   3  18
BRANCH   4  28
ATOM     27  OXT UNL     1      29.867 -10.473 -19.042  0.00  0.00    -0.243 OA
ATOM     28  C   UNL     1      31.072 -10.793 -19.118  0.00  0.00    +0.354 C 
BRANCH  28  29
ATOM     29  O   UNL     1      31.961 -10.369 -18.164  0.00  0.00    -0.476 OA
ATOM     30  H   UNL     1      32.233  -9.472 -18.144  0.00  0.00    +0.295 HD
ENDBRANCH  28  29
ENDBRANCH   4  28
BRANCH   5  32
ATOM     31  OXT UNL     1      34.409 -14.995 -21.097  0.00  0.00    -0.243 OA
ATOM     32  C   UNL     1      33.199 -14.693 -21.181  0.00  0.00    +0.354 C 
BRANCH  32  33
ATOM     33  O   UNL     1      32.258 -15.667 -21.389  0.00  0.00    -0.476 OA
ATOM     34  H   UNL     1      31.824 -15.730 -22.217  0.00  0.00    +0.295 HD
ENDBRANCH  32  33
ENDBRANCH   5  32
TORSDOF 6
ENDMDL
MODEL 2
REMARK VINA RESULT:      -8.4      0.014      5.046
REMARK  Name = 11326613
REMARK  6 active torsions:
REMARK  status: ('A' for Active; 'I' for Inactive)
REMARK    1  A    between atoms: C_2  and  C_8
REMARK    2  A    between atoms: C_3  and  C_18
REMARK    3  A    between atoms: CA_4  and  C_28
REMARK    4  A    between atoms: CA_5  and  C_32
REMARK    5  A    between atoms: C_28  and  O_29
REMARK    6  A    between atoms: C_32  and  O_33
REMARK                            x       y       z     vdW  Elec       q    Type
REMARK                         _______ _______ _______ _____ _____    ______ ____
ROOT
ATOM      1  N   UNL     1      32.127 -12.871 -19.915  0.00  0.00    -0.343 N 
ATOM      2  C   UNL     1      32.534 -12.409 -22.051  0.00  0.00    +0.025 A 
ATOM      3  C   UNL     1      31.916 -11.282 -21.452  0.00  0.00    +0.025 A 
ATOM      4  CA  UNL     1      32.651 -13.378 -21.075  0.00  0.00    +0.133 A 
ATOM      5  CA  UNL     1      31.676 -11.595 -20.132  0.00  0.00    +0.133 A 
ATOM      6  H   UNL     1      32.082 -13.350 -19.056  0.00  0.00    +0.166 HD
ENDROOT
BRANCH   2   8
ATOM      7  N   UNL     1      33.228 -13.200 -25.523  0.00  0.00    -0.312 N 
ATOM      8  C   UNL     1      32.953 -12.504 -23.433  0.00  0.00    +0.017 C 
ATOM      9  C   UNL     1      33.794 -11.574 -24.106  0.00  0.00    +0.015 C 
ATOM     10  C   UNL     1      33.951 -12.034 -25.415  0.00  0.00    +0.048 C 
ATOM     11  C   UNL     1      32.621 -13.493 -24.330  0.00  0.00    +0.062 C 
ATOM     12  C   UNL     1      34.439 -10.380 -23.724  0.00  0.00    +0.001 C 
ATOM     13  C   UNL     1      34.723 -11.358 -26.365  0.00  0.00    +0.015 C 
ATOM     14  C   UNL     1      35.214  -9.693 -24.665  0.00  0.00    +0.000 C 
ATOM     15  C   UNL     1      35.353 -10.176 -25.965  0.00  0.00    +0.001 C 
ATOM     16  H   UNL     1      33.157 -13.746 -26.339  0.00  0.00    +0.152 HD
ENDBRANCH   2   8
BRANCH   3  18
ATOM     17  N   UNL     1      30.858  -8.556 -23.598  0.00  0.00    -0.312 N 
ATOM     18  C   UNL     1      31.605 -10.038 -22.129  0.00  0.00    +0.017 C 
ATOM     19  C   UNL     1      31.947  -8.741 -21.660  0.00  0.00    +0.015 C 
ATOM     20  C   UNL     1      31.466  -7.827 -22.602  0.00  0.00    +0.048 C 
ATOM     21  C   UNL     1      30.937  -9.895 -23.321  0.00  0.00    +0.062 C 
ATOM     22  C   UNL     1      32.620  -8.252 -20.523  0.00  0.00    +0.001 C 
ATOM     23  C   UNL     1      31.627  -6.445 -22.461  0.00  0.00    +0.015 C 
ATOM     24  C   UNL     1      32.787  -6.871 -20.370  0.00  0.00    +0.000 C 
ATOM     25  C   UNL     1      32.297  -5.982 -21.325  0.00  0.00    +0.001 C 
ATOM     26  H   UNL     1      30.429  -8.171 -24.396  0.00  0.00    +0.152 HD
ENDBRANCH   3  18
BRANCH   4  28
ATOM     27  OXT UNL     1      34.411 -14.997 -21.061  0.00  0.00    -0.243 OA
ATOM     28  C   UNL     1      33.205 -14.692 -21.175  0.00  0.00    +0.354 C 
BRANCH  28  29
ATOM     29  O   UNL     1      32.267 -15.661 -21.420  0.00  0.00    -0.476 OA
ATOM     30  H   UNL     1      31.665 -15.910 -20.746  0.00  0.00    +0.295 HD
ENDBRANCH  28  29
ENDBRANCH   4  28
BRANCH   5  32
ATOM     31  OXT UNL     1      29.871 -10.456 -19.052  0.00  0.00    -0.243 OA
ATOM     32  C   UNL     1      31.072 -10.794 -19.113  0.00  0.00    +0.354 C 
BRANCH  32  33
ATOM     33  O   UNL     1      31.952 -10.395 -18.141  0.00  0.00    -0.476 OA
ATOM     34  H   UNL     1      31.632 -10.115 -17.306  0.00  0.00    +0.295 HD
ENDBRANCH  32  33
ENDBRANCH   5  32
TORSDOF 6
ENDMDL
MODEL 3
REMARK VINA RESULT:      -8.1      1.081      1.873
REMARK  Name = 11326613
REMARK  6 active torsions:
REMARK  status: ('A' for Active; 'I' for Inactive)
REMARK    1  A    between atoms: C_2  and  C_8
REMARK    2  A    between atoms: C_3  and  C_18
REMARK    3  A    between atoms: CA_4  and  C_28
REMARK    4  A    between atoms: CA_5  and  C_32
REMARK    5  A    between atoms: C_28  and  O_29
REMARK    6  A    between atoms: C_32  and  O_33
REMARK                            x       y       z     vdW  Elec       q    Type
REMARK                         _______ _______ _______ _____ _____    ______ ____
ROOT
ATOM      1  N   UNL     1      32.250 -12.881 -20.559  0.00  0.00    -0.343 N 
ATOM      2  C   UNL     1      32.063 -11.051 -21.808  0.00  0.00    +0.025 A 
ATOM      3  C   UNL     1      32.849 -12.001 -22.508  0.00  0.00    +0.025 A 
ATOM      4  CA  UNL     1      31.707 -11.623 -20.604  0.00  0.00    +0.133 A 
ATOM      5  CA  UNL     1      32.948 -13.122 -21.714  0.00  0.00    +0.133 A 
ATOM      6  H   UNL     1      32.153 -13.514 -19.812  0.00  0.00    +0.166 HD
ENDROOT
BRANCH   2   8
ATOM      7  N   UNL     1      30.928  -8.062 -23.523  0.00  0.00    -0.312 N 
ATOM      8  C   UNL     1      31.714  -9.731 -22.287  0.00  0.00    +0.017 C 
ATOM      9  C   UNL     1      32.003  -8.508 -21.619  0.00  0.00    +0.015 C 
ATOM     10  C   UNL     1      31.499  -7.477 -22.415  0.00  0.00    +0.048 C 
ATOM     11  C   UNL     1      31.053  -9.425 -23.455  0.00  0.00    +0.062 C 
ATOM     12  C   UNL     1      32.646  -8.179 -20.410  0.00  0.00    +0.001 C 
ATOM     13  C   UNL     1      31.608  -6.128 -22.061  0.00  0.00    +0.015 C 
ATOM     14  C   UNL     1      32.761  -6.834 -20.043  0.00  0.00    +0.000 C 
ATOM     15  C   UNL     1      32.249  -5.825 -20.857  0.00  0.00    +0.001 C 
ATOM     16  H   UNL     1      30.493  -7.573 -24.258  0.00  0.00    +0.152 HD
ENDBRANCH   2   8
BRANCH   3  18
ATOM     17  N   UNL     1      34.550 -10.955 -25.536  0.00  0.00    -0.312 N 
ATOM     18  C   UNL     1      33.431 -11.804 -23.822  0.00  0.00    +0.017 C 
ATOM     19  C   UNL     1      33.283 -12.686 -24.925  0.00  0.00    +0.015 C 
ATOM     20  C   UNL     1      33.996 -12.129 -25.991  0.00  0.00    +0.048 C 
ATOM     21  C   UNL     1      34.213 -10.750 -24.224  0.00  0.00    +0.062 C 
ATOM     22  C   UNL     1      32.610 -13.908 -25.125  0.00  0.00    +0.001 C 
ATOM     23  C   UNL     1      34.068 -12.737 -27.249  0.00  0.00    +0.015 C 
ATOM     24  C   UNL     1      32.675 -14.527 -26.379  0.00  0.00    +0.000 C 
ATOM     25  C   UNL     1      33.395 -13.948 -27.424  0.00  0.00    +0.001 C 
ATOM     26  H   UNL     1      35.108 -10.349 -26.076  0.00  0.00    +0.152 HD
ENDBRANCH   3  18
BRANCH   4  28
ATOM     27  OXT UNL     1      29.703 -10.786 -19.600  0.00  0.00    -0.243 OA
ATOM     28  C   UNL     1      30.918 -11.073 -19.546  0.00  0.00    +0.354 C 
BRANCH  28  29
ATOM     29  O   UNL     1      31.626 -10.865 -18.391  0.00  0.00    -0.476 OA
ATOM     30  H   UNL     1      32.216 -10.140 -18.327  0.00  0.00    +0.295 HD
ENDBRANCH  28  29
ENDBRANCH   4  28
BRANCH   5  32
ATOM     31  OXT UNL     1      34.842 -14.477 -22.264  0.00  0.00    -0.243 OA
ATOM     32  C   UNL     1      33.633 -14.351 -21.971  0.00  0.00    +0.354 C 
BRANCH  32  33
ATOM     33  O   UNL     1      32.829 -15.455 -21.868  0.00  0.00    -0.476 OA
ATOM     34  H   UNL     1      33.036 -16.232 -22.350  0.00  0.00    +0.295 HD
ENDBRANCH  32  33
ENDBRANCH   5  32
TORSDOF 6
ENDMDL
MODEL 4
REMARK VINA RESULT:      -8.1      1.081      5.701
REMARK  Name = 11326613
REMARK  6 active torsions:
REMARK  status: ('A' for Active; 'I' for Inactive)
REMARK    1  A    between atoms: C_2  and  C_8
REMARK    2  A    between atoms: C_3  and  C_18
REMARK    3  A    between atoms: CA_4  and  C_28
REMARK    4  A    between atoms: CA_5  and  C_32
REMARK    5  A    between atoms: C_28  and  O_29
REMARK    6  A    between atoms: C_32  and  O_33
REMARK                            x       y       z     vdW  Elec       q    Type
REMARK                         _______ _______ _______ _____ _____    ______ ____
ROOT
ATOM      1  N   UNL     1      32.252 -12.878 -20.558  0.00  0.00    -0.343 N 
ATOM      2  C   UNL     1      32.853 -11.998 -22.509  0.00  0.00    +0.025 A 
ATOM      3  C   UNL     1      32.066 -11.051 -21.806  0.00  0.00    +0.025 A 
ATOM      4  CA  UNL     1      32.950 -13.120 -21.711  0.00  0.00    +0.133 A 
ATOM      5  CA  UNL     1      31.709 -11.620 -20.604  0.00  0.00    +0.133 A 
ATOM      6  H   UNL     1      32.155 -13.510 -19.810  0.00  0.00    +0.166 HD
ENDROOT
BRANCH   2   8
ATOM      7  N   UNL     1      34.556 -10.954 -25.537  0.00  0.00    -0.312 N 
ATOM      8  C   UNL     1      33.433 -11.803 -23.819  0.00  0.00    +0.017 C 
ATOM      9  C   UNL     1      33.284 -12.683 -24.928  0.00  0.00    +0.015 C 
ATOM     10  C   UNL     1      33.997 -12.127 -25.992  0.00  0.00    +0.048 C 
ATOM     11  C   UNL     1      34.221 -10.749 -24.225  0.00  0.00    +0.062 C 
ATOM     12  C   UNL     1      32.607 -13.903 -25.127  0.00  0.00    +0.001 C 
ATOM     13  C   UNL     1      34.068 -12.733 -27.251  0.00  0.00    +0.015 C 
ATOM     14  C   UNL     1      32.670 -14.520 -26.382  0.00  0.00    +0.000 C 
ATOM     15  C   UNL     1      33.389 -13.943 -27.427  0.00  0.00    +0.001 C 
ATOM     16  H   UNL     1      35.115 -10.349 -26.076  0.00  0.00    +0.152 HD
ENDBRANCH   2   8
BRANCH   3  18
ATOM     17  N   UNL     1      30.931  -8.064 -23.522  0.00  0.00    -0.312 N 
ATOM     18  C   UNL     1      31.716  -9.728 -22.287  0.00  0.00    +0.017 C 
ATOM     19  C   UNL     1      32.005  -8.509 -21.619  0.00  0.00    +0.015 C 
ATOM     20  C   UNL     1      31.501  -7.477 -22.415  0.00  0.00    +0.048 C 
ATOM     21  C   UNL     1      31.057  -9.426 -23.453  0.00  0.00    +0.062 C 
ATOM     22  C   UNL     1      32.647  -8.178 -20.408  0.00  0.00    +0.001 C 
ATOM     23  C   UNL     1      31.609  -6.128 -22.061  0.00  0.00    +0.015 C 
ATOM     24  C   UNL     1      32.762  -6.832 -20.042  0.00  0.00    +0.000 C 
ATOM     25  C   UNL     1      32.249  -5.824 -20.857  0.00  0.00    +0.001 C 
ATOM     26  H   UNL     1      30.496  -7.575 -24.258  0.00  0.00    +0.152 HD
ENDBRANCH   3  18
BRANCH   4  28
ATOM     27  OXT UNL     1      34.844 -14.475 -22.260  0.00  0.00    -0.243 OA
ATOM     28  C   UNL     1      33.635 -14.348 -21.969  0.00  0.00    +0.354 C 
BRANCH  28  29
ATOM     29  O   UNL     1      32.829 -15.453 -21.869  0.00  0.00    -0.476 OA
ATOM     30  H   UNL     1      31.954 -15.426 -22.204  0.00  0.00    +0.295 HD
ENDBRANCH  28  29
ENDBRANCH   4  28
BRANCH   5  32
ATOM     31  OXT UNL     1      29.704 -10.784 -19.600  0.00  0.00    -0.243 OA
ATOM     32  C   UNL     1      30.919 -11.070 -19.546  0.00  0.00    +0.354 C 
BRANCH  32  33
ATOM     33  O   UNL     1      31.626 -10.862 -18.390  0.00  0.00    -0.476 OA
ATOM     34  H   UNL     1      32.468 -10.452 -18.423  0.00  0.00    +0.295 HD
ENDBRANCH  32  33
ENDBRANCH   5  32
TORSDOF 6
ENDMDL
MODEL 5
REMARK VINA RESULT:      -7.9      2.525      5.702
REMARK  Name = 11326613
REMARK  6 active torsions:
REMARK  status: ('A' for Active; 'I' for Inactive)
REMARK    1  A    between atoms: C_2  and  C_8
REMARK    2  A    between atoms: C_3  and  C_18
REMARK    3  A    between atoms: CA_4  and  C_28
REMARK    4  A    between atoms: CA_5  and  C_32
REMARK    5  A    between atoms: C_28  and  O_29
REMARK    6  A    between atoms: C_32  and  O_33
REMARK                            x       y       z     vdW  Elec       q    Type
REMARK                         _______ _______ _______ _____ _____    ______ ____
ROOT
ATOM      1  N   UNL     1      31.725  -9.134 -20.340  0.00  0.00    -0.343 N 
ATOM      2  C   UNL     1      32.529  -9.924 -22.256  0.00  0.00    +0.025 A 
ATOM      3  C   UNL     1      32.828  -8.540 -22.174  0.00  0.00    +0.025 A 
ATOM      4  CA  UNL     1      31.845 -10.263 -21.106  0.00  0.00    +0.133 A 
ATOM      5  CA  UNL     1      32.320  -8.077 -20.980  0.00  0.00    +0.133 A 
ATOM      6  H   UNL     1      31.281  -9.088 -19.463  0.00  0.00    +0.166 HD
ENDROOT
BRANCH   2   8
ATOM      7  N   UNL     1      33.305 -11.587 -25.385  0.00  0.00    -0.312 N 
ATOM      8  C   UNL     1      32.884 -10.798 -23.353  0.00  0.00    +0.017 C 
ATOM      9  C   UNL     1      33.261 -12.165 -23.231  0.00  0.00    +0.015 C 
ATOM     10  C   UNL     1      33.520 -12.636 -24.520  0.00  0.00    +0.048 C 
ATOM     11  C   UNL     1      32.921 -10.472 -24.690  0.00  0.00    +0.062 C 
ATOM     12  C   UNL     1      33.407 -13.049 -22.143  0.00  0.00    +0.001 C 
ATOM     13  C   UNL     1      33.918 -13.952 -24.776  0.00  0.00    +0.015 C 
ATOM     14  C   UNL     1      33.806 -14.368 -22.385  0.00  0.00    +0.000 C 
ATOM     15  C   UNL     1      34.057 -14.812 -23.682  0.00  0.00    +0.001 C 
ATOM     16  H   UNL     1      33.412 -11.632 -26.363  0.00  0.00    +0.152 HD
ENDBRANCH   2   8
BRANCH   3  18
ATOM     17  N   UNL     1      35.138  -6.956 -24.477  0.00  0.00    -0.312 N 
ATOM     18  C   UNL     1      33.540  -7.775 -23.179  0.00  0.00    +0.017 C 
ATOM     19  C   UNL     1      32.955  -6.814 -24.045  0.00  0.00    +0.015 C 
ATOM     20  C   UNL     1      33.980  -6.313 -24.851  0.00  0.00    +0.048 C 
ATOM     21  C   UNL     1      34.882  -7.842 -23.466  0.00  0.00    +0.062 C 
ATOM     22  C   UNL     1      31.648  -6.317 -24.224  0.00  0.00    +0.001 C 
ATOM     23  C   UNL     1      33.762  -5.337 -25.830  0.00  0.00    +0.015 C 
ATOM     24  C   UNL     1      31.416  -5.341 -25.201  0.00  0.00    +0.000 C 
ATOM     25  C   UNL     1      32.459  -4.860 -25.991  0.00  0.00    +0.001 C 
ATOM     26  H   UNL     1      36.024  -6.800 -24.879  0.00  0.00    +0.152 HD
ENDBRANCH   3  18
BRANCH   4  28
ATOM     27  OXT UNL     1      31.806 -12.294 -19.843  0.00  0.00    -0.243 OA
ATOM     28  C   UNL     1      31.326 -11.536 -20.712  0.00  0.00    +0.354 C 
BRANCH  28  29
ATOM     29  O   UNL     1      30.193 -11.896 -21.393  0.00  0.00    -0.476 OA
ATOM     30  H   UNL     1      30.202 -11.939 -22.329  0.00  0.00    +0.295 HD
ENDBRANCH  28  29
ENDBRANCH   4  28
BRANCH   5  32
ATOM     31  OXT UNL     1      31.792  -5.745 -20.901  0.00  0.00    -0.243 OA
ATOM     32  C   UNL     1      32.361  -6.756 -20.436  0.00  0.00    +0.354 C 
BRANCH  32  33
ATOM     33  O   UNL     1      33.115  -6.660 -19.295  0.00  0.00    -0.476 OA
ATOM     34  H   UNL     1      33.315  -5.818 -18.935  0.00  0.00    +0.295 HD
ENDBRANCH  32  33
ENDBRANCH   5  32
TORSDOF 6
ENDMDL
MODEL 6
REMARK VINA RESULT:      -7.9      2.525      3.818
REMARK  Name = 11326613
REMARK  6 active torsions:
REMARK  status: ('A' for Active; 'I' for Inactive)
REMARK    1  A    between atoms: C_2  and  C_8
REMARK    2  A    between atoms: C_3  and  C_18
REMARK    3  A    between atoms: CA_4  and  C_28
REMARK    4  A    between atoms: CA_5  and  C_32
REMARK    5  A    between atoms: C_28  and  O_29
REMARK    6  A    between atoms: C_32  and  O_33
REMARK                            x       y       z     vdW  Elec       q    Type
REMARK                         _______ _______ _______ _____ _____    ______ ____
ROOT
ATOM      1  N   UNL     1      31.723  -9.139 -20.340  0.00  0.00    -0.343 N 
ATOM      2  C   UNL     1      32.824  -8.544 -22.177  0.00  0.00    +0.025 A 
ATOM      3  C   UNL     1      32.525  -9.928 -22.254  0.00  0.00    +0.025 A 
ATOM      4  CA  UNL     1      32.316  -8.083 -20.981  0.00  0.00    +0.133 A 
ATOM      5  CA  UNL     1      31.844 -10.269 -21.106  0.00  0.00    +0.133 A 
ATOM      6  H   UNL     1      31.277  -9.093 -19.464  0.00  0.00    +0.166 HD
ENDROOT
BRANCH   2   8
ATOM      7  N   UNL     1      35.136  -6.960 -24.481  0.00  0.00    -0.312 N 
ATOM      8  C   UNL     1      33.535  -7.780 -23.179  0.00  0.00    +0.017 C 
ATOM      9  C   UNL     1      32.953  -6.813 -24.047  0.00  0.00    +0.015 C 
ATOM     10  C   UNL     1      33.978  -6.314 -24.852  0.00  0.00    +0.048 C 
ATOM     11  C   UNL     1      34.878  -7.848 -23.471  0.00  0.00    +0.062 C 
ATOM     12  C   UNL     1      31.647  -6.314 -24.223  0.00  0.00    +0.001 C 
ATOM     13  C   UNL     1      33.763  -5.337 -25.829  0.00  0.00    +0.015 C 
ATOM     14  C   UNL     1      31.417  -5.336 -25.197  0.00  0.00    +0.000 C 
ATOM     15  C   UNL     1      32.459  -4.856 -25.987  0.00  0.00    +0.001 C 
ATOM     16  H   UNL     1      36.021  -6.806 -24.883  0.00  0.00    +0.152 HD
ENDBRANCH   2   8
BRANCH   3  18
ATOM     17  N   UNL     1      33.301 -11.594 -25.381  0.00  0.00    -0.312 N 
ATOM     18  C   UNL     1      32.883 -10.804 -23.353  0.00  0.00    +0.017 C 
ATOM     19  C   UNL     1      33.268 -12.165 -23.226  0.00  0.00    +0.015 C 
ATOM     20  C   UNL     1      33.525 -12.639 -24.515  0.00  0.00    +0.048 C 
ATOM     21  C   UNL     1      32.912 -10.479 -24.687  0.00  0.00    +0.062 C 
ATOM     22  C   UNL     1      33.423 -13.046 -22.136  0.00  0.00    +0.001 C 
ATOM     23  C   UNL     1      33.931 -13.953 -24.768  0.00  0.00    +0.015 C 
ATOM     24  C   UNL     1      33.830 -14.364 -22.376  0.00  0.00    +0.000 C 
ATOM     25  C   UNL     1      34.080 -14.809 -23.673  0.00  0.00    +0.001 C 
ATOM     26  H   UNL     1      33.405 -11.641 -26.360  0.00  0.00    +0.152 HD
ENDBRANCH   3  18
BRANCH   4  28
ATOM     27  OXT UNL     1      31.781  -5.752 -20.898  0.00  0.00    -0.243 OA
ATOM     28  C   UNL     1      32.357  -6.761 -20.437  0.00  0.00    +0.354 C 
BRANCH  28  29
ATOM     29  O   UNL     1      33.120  -6.662 -19.303  0.00  0.00    -0.476 OA
ATOM     30  H   UNL     1      33.952  -6.231 -19.333  0.00  0.00    +0.295 HD
ENDBRANCH  28  29
ENDBRANCH   4  28
BRANCH   5  32
ATOM     31  OXT UNL     1      31.810 -12.300 -19.843  0.00  0.00    -0.243 OA
ATOM     32  C   UNL     1      31.326 -11.541 -20.710  0.00  0.00    +0.354 C 
BRANCH  32  33
ATOM     33  O   UNL     1      30.190 -11.902 -21.387  0.00  0.00    -0.476 OA
ATOM     34  H   UNL     1      29.635 -12.575 -21.045  0.00  0.00    +0.295 HD
ENDBRANCH  32  33
ENDBRANCH   5  32
TORSDOF 6
ENDMDL
MODEL 7
REMARK VINA RESULT:      -7.6     12.629     15.826
REMARK  Name = 11326613
REMARK  6 active torsions:
REMARK  status: ('A' for Active; 'I' for Inactive)
REMARK    1  A    between atoms: C_2  and  C_8
REMARK    2  A    between atoms: C_3  and  C_18
REMARK    3  A    between atoms: CA_4  and  C_28
REMARK    4  A    between atoms: CA_5  and  C_32
REMARK    5  A    between atoms: C_28  and  O_29
REMARK    6  A    between atoms: C_32  and  O_33
REMARK                            x       y       z     vdW  Elec       q    Type
REMARK                         _______ _______ _______ _____ _____    ______ ____
ROOT
ATOM      1  N   UNL     1      33.850 -23.901 -12.242  0.00  0.00    -0.343 N 
ATOM      2  C   UNL     1      34.237 -23.865 -14.431  0.00  0.00    +0.025 A 
ATOM      3  C   UNL     1      35.243 -24.642 -13.804  0.00  0.00    +0.025 A 
ATOM      4  CA  UNL     1      33.389 -23.418 -13.439  0.00  0.00    +0.133 A 
ATOM      5  CA  UNL     1      34.980 -24.648 -12.453  0.00  0.00    +0.133 A 
ATOM      6  H   UNL     1      33.433 -23.737 -11.366  0.00  0.00    +0.166 HD
ENDROOT
BRANCH   2   8
ATOM      7  N   UNL     1      33.440 -23.559 -17.957  0.00  0.00    -0.312 N 
ATOM      8  C   UNL     1      34.140 -23.601 -15.850  0.00  0.00    +0.017 C 
ATOM      9  C   UNL     1      35.070 -22.841 -16.614  0.00  0.00    +0.015 C 
ATOM     10  C   UNL     1      34.607 -22.831 -17.932  0.00  0.00    +0.048 C 
ATOM     11  C   UNL     1      33.148 -24.029 -16.704  0.00  0.00    +0.062 C 
ATOM     12  C   UNL     1      36.265 -22.159 -16.309  0.00  0.00    +0.001 C 
ATOM     13  C   UNL     1      35.283 -22.171 -18.964  0.00  0.00    +0.015 C 
ATOM     14  C   UNL     1      36.950 -21.494 -17.331  0.00  0.00    +0.000 C 
ATOM     15  C   UNL     1      36.466 -21.500 -18.638  0.00  0.00    +0.001 C 
ATOM     16  H   UNL     1      32.892 -23.720 -18.760  0.00  0.00    +0.152 HD
ENDBRANCH   2   8
BRANCH   3  18
ATOM     17  N   UNL     1      37.514 -26.601 -15.844  0.00  0.00    -0.312 N 
ATOM     18  C   UNL     1      36.340 -25.302 -14.486  0.00  0.00    +0.017 C 
ATOM     19  C   UNL     1      37.719 -25.078 -14.228  0.00  0.00    +0.015 C 
ATOM     20  C   UNL     1      38.436 -25.907 -15.095  0.00  0.00    +0.048 C 
ATOM     21  C   UNL     1      36.243 -26.241 -15.483  0.00  0.00    +0.062 C 
ATOM     22  C   UNL     1      38.432 -24.249 -13.339  0.00  0.00    +0.001 C 
ATOM     23  C   UNL     1      39.834 -25.948 -15.116  0.00  0.00    +0.015 C 
ATOM     24  C   UNL     1      39.832 -24.279 -13.350  0.00  0.00    +0.000 C 
ATOM     25  C   UNL     1      40.520 -25.116 -14.227  0.00  0.00    +0.001 C 
ATOM     26  H   UNL     1      37.736 -27.262 -16.540  0.00  0.00    +0.152 HD
ENDBRANCH   3  18
BRANCH   4  28
ATOM     27  OXT UNL     1      31.708 -22.190 -14.618  0.00  0.00    -0.243 OA
ATOM     28  C   UNL     1      32.222 -22.600 -13.555  0.00  0.00    +0.354 C 
BRANCH  28  29
ATOM     29  O   UNL     1      31.664 -22.272 -12.347  0.00  0.00    -0.476 OA
ATOM     30  H   UNL     1      31.011 -22.827 -11.966  0.00  0.00    +0.295 HD
ENDBRANCH  28  29
ENDBRANCH   4  28
BRANCH   5  32
ATOM     31  OXT UNL     1      36.622 -26.123 -11.530  0.00  0.00    -0.243 OA
ATOM     32  C   UNL     1      35.701 -25.288 -11.397  0.00  0.00    +0.354 C 
BRANCH  32  33
ATOM     33  O   UNL     1      35.292 -24.905 -10.146  0.00  0.00    -0.476 OA
ATOM     34  H   UNL     1      34.788 -24.122 -10.039  0.00  0.00    +0.295 HD
ENDBRANCH  32  33
ENDBRANCH   5  32
TORSDOF 6
ENDMDL
MODEL 8
REMARK VINA RESULT:      -7.6     12.657     16.133
REMARK  Name = 11326613
REMARK  6 active torsions:
REMARK  status: ('A' for Active; 'I' for Inactive)
REMARK    1  A    between atoms: C_2  and  C_8
REMARK    2  A    between atoms: C_3  and  C_18
REMARK    3  A    between atoms: CA_4  and  C_28
REMARK    4  A    between atoms: CA_5  and  C_32
REMARK    5  A    between atoms: C_28  and  O_29
REMARK    6  A    between atoms: C_32  and  O_33
REMARK                            x       y       z     vdW  Elec       q    Type
REMARK                         _______ _______ _______ _____ _____    ______ ____
ROOT
ATOM      1  N   UNL     1      33.848 -23.877 -12.206  0.00  0.00    -0.343 N 
ATOM      2  C   UNL     1      35.242 -24.628 -13.767  0.00  0.00    +0.025 A 
ATOM      3  C   UNL     1      34.230 -23.857 -14.394  0.00  0.00    +0.025 A 
ATOM      4  CA  UNL     1      34.978 -24.623 -12.413  0.00  0.00    +0.133 A 
ATOM      5  CA  UNL     1      33.382 -23.406 -13.407  0.00  0.00    +0.133 A 
ATOM      6  H   UNL     1      33.433 -23.705 -11.330  0.00  0.00    +0.166 HD
ENDROOT
BRANCH   2   8
ATOM      7  N   UNL     1      37.511 -26.600 -15.797  0.00  0.00    -0.312 N 
ATOM      8  C   UNL     1      36.336 -25.289 -14.444  0.00  0.00    +0.017 C 
ATOM      9  C   UNL     1      37.719 -25.066 -14.191  0.00  0.00    +0.015 C 
ATOM     10  C   UNL     1      38.434 -25.900 -15.052  0.00  0.00    +0.048 C 
ATOM     11  C   UNL     1      36.240 -26.238 -15.436  0.00  0.00    +0.062 C 
ATOM     12  C   UNL     1      38.432 -24.230 -13.308  0.00  0.00    +0.001 C 
ATOM     13  C   UNL     1      39.832 -25.942 -15.076  0.00  0.00    +0.015 C 
ATOM     14  C   UNL     1      39.831 -24.261 -13.321  0.00  0.00    +0.000 C 
ATOM     15  C   UNL     1      40.519 -25.104 -14.192  0.00  0.00    +0.001 C 
ATOM     16  H   UNL     1      37.732 -27.266 -16.488  0.00  0.00    +0.152 HD
ENDBRANCH   2   8
BRANCH   3  18
ATOM     17  N   UNL     1      33.423 -23.583 -17.919  0.00  0.00    -0.312 N 
ATOM     18  C   UNL     1      34.128 -23.606 -15.819  0.00  0.00    +0.017 C 
ATOM     19  C   UNL     1      35.058 -22.856 -16.588  0.00  0.00    +0.015 C 
ATOM     20  C   UNL     1      34.592 -22.857 -17.905  0.00  0.00    +0.048 C 
ATOM     21  C   UNL     1      33.135 -24.040 -16.661  0.00  0.00    +0.062 C 
ATOM     22  C   UNL     1      36.256 -22.174 -16.292  0.00  0.00    +0.001 C 
ATOM     23  C   UNL     1      35.267 -22.207 -18.944  0.00  0.00    +0.015 C 
ATOM     24  C   UNL     1      36.940 -21.520 -17.323  0.00  0.00    +0.000 C 
ATOM     25  C   UNL     1      36.452 -21.536 -18.628  0.00  0.00    +0.001 C 
ATOM     26  H   UNL     1      32.873 -23.750 -18.719  0.00  0.00    +0.152 HD
ENDBRANCH   3  18
BRANCH   4  28
ATOM     27  OXT UNL     1      36.613 -26.101 -11.482  0.00  0.00    -0.243 OA
ATOM     28  C   UNL     1      35.704 -25.253 -11.354  0.00  0.00    +0.354 C 
BRANCH  28  29
ATOM     29  O   UNL     1      35.313 -24.842 -10.106  0.00  0.00    -0.476 OA
ATOM     30  H   UNL     1      34.875 -25.440  -9.532  0.00  0.00    +0.295 HD
ENDBRANCH  28  29
ENDBRANCH   4  28
BRANCH   5  32
ATOM     31  OXT UNL     1      31.702 -22.181 -14.591  0.00  0.00    -0.243 OA
ATOM     32  C   UNL     1      32.212 -22.592 -13.527  0.00  0.00    +0.354 C 
BRANCH  32  33
ATOM     33  O   UNL     1      31.646 -22.270 -12.321  0.00  0.00    -0.476 OA
ATOM     34  H   UNL     1      31.593 -21.374 -12.053  0.00  0.00    +0.295 HD
ENDBRANCH  32  33
ENDBRANCH   5  32
TORSDOF 6
ENDMDL
MODEL 9
REMARK VINA RESULT:      -7.2     13.042     15.691
REMARK  Name = 11326613
REMARK  6 active torsions:
REMARK  status: ('A' for Active; 'I' for Inactive)
REMARK    1  A    between atoms: C_2  and  C_8
REMARK    2  A    between atoms: C_3  and  C_18
REMARK    3  A    between atoms: CA_4  and  C_28
REMARK    4  A    between atoms: CA_5  and  C_32
REMARK    5  A    between atoms: C_28  and  O_29
REMARK    6  A    between atoms: C_32  and  O_33
REMARK                            x       y       z     vdW  Elec       q    Type
REMARK                         _______ _______ _______ _____ _____    ______ ____
ROOT
ATOM      1  N   UNL     1      35.550 -22.254 -17.656  0.00  0.00    -0.343 N 
ATOM      2  C   UNL     1      34.341 -23.320 -16.125  0.00  0.00    +0.025 A 
ATOM      3  C   UNL     1      35.608 -23.010 -15.569  0.00  0.00    +0.025 A 
ATOM      4  CA  UNL     1      34.335 -22.841 -17.418  0.00  0.00    +0.133 A 
ATOM      5  CA  UNL     1      36.335 -22.352 -16.536  0.00  0.00    +0.133 A 
ATOM      6  H   UNL     1      35.818 -21.828 -18.502  0.00  0.00    +0.166 HD
ENDROOT
BRANCH   2   8
ATOM      7  N   UNL     1      32.139 -25.430 -14.160  0.00  0.00    -0.312 N 
ATOM      8  C   UNL     1      33.271 -24.014 -15.443  0.00  0.00    +0.017 C 
ATOM      9  C   UNL     1      31.885 -23.706 -15.554  0.00  0.00    +0.015 C 
ATOM     10  C   UNL     1      31.198 -24.609 -14.740  0.00  0.00    +0.048 C 
ATOM     11  C   UNL     1      33.395 -25.078 -14.578  0.00  0.00    +0.062 C 
ATOM     12  C   UNL     1      31.149 -22.743 -16.272  0.00  0.00    +0.001 C 
ATOM     13  C   UNL     1      29.805 -24.597 -14.608  0.00  0.00    +0.015 C 
ATOM     14  C   UNL     1      29.755 -22.719 -16.149  0.00  0.00    +0.000 C 
ATOM     15  C   UNL     1      29.095 -23.633 -15.329  0.00  0.00    +0.001 C 
ATOM     16  H   UNL     1      31.939 -26.164 -13.535  0.00  0.00    +0.152 HD
ENDBRANCH   2   8
BRANCH   3  18
ATOM     17  N   UNL     1      36.229 -23.390 -12.016  0.00  0.00    -0.312 N 
ATOM     18  C   UNL     1      36.037 -23.338 -14.223  0.00  0.00    +0.017 C 
ATOM     19  C   UNL     1      37.048 -24.279 -13.890  0.00  0.00    +0.015 C 
ATOM     20  C   UNL     1      37.150 -24.293 -12.497  0.00  0.00    +0.048 C 
ATOM     21  C   UNL     1      35.551 -22.807 -13.053  0.00  0.00    +0.062 C 
ATOM     22  C   UNL     1      37.890 -25.125 -14.640  0.00  0.00    +0.001 C 
ATOM     23  C   UNL     1      38.055 -25.113 -11.814  0.00  0.00    +0.015 C 
ATOM     24  C   UNL     1      38.801 -25.950 -13.969  0.00  0.00    +0.000 C 
ATOM     25  C   UNL     1      38.880 -25.943 -12.578  0.00  0.00    +0.001 C 
ATOM     26  H   UNL     1      36.080 -23.191 -11.063  0.00  0.00    +0.152 HD
ENDBRANCH   3  18
BRANCH   4  28
ATOM     27  OXT UNL     1      32.461 -22.004 -18.648  0.00  0.00    -0.243 OA
ATOM     28  C   UNL     1      33.291 -22.902 -18.394  0.00  0.00    +0.354 C 
BRANCH  28  29
ATOM     29  O   UNL     1      33.256 -24.089 -19.079  0.00  0.00    -0.476 OA
ATOM     30  H   UNL     1      32.439 -24.427 -19.390  0.00  0.00    +0.295 HD
ENDBRANCH  28  29
ENDBRANCH   4  28
BRANCH   5  32
ATOM     31  OXT UNL     1      38.689 -22.465 -16.123  0.00  0.00    -0.243 OA
ATOM     32  C   UNL     1      37.666 -21.834 -16.467  0.00  0.00    +0.354 C 
BRANCH  32  33
ATOM     33  O   UNL     1      37.757 -20.514 -16.826  0.00  0.00    -0.476 OA
ATOM     34  H   UNL     1      37.026 -19.943 -16.696  0.00  0.00    +0.295 HD
ENDBRANCH  32  33
ENDBRANCH   5  32
TORSDOF 6
ENDMDL
