MODEL 1
REMARK VINA RESULT:     -11.0      0.000      0.000
REMARK  Name = 11270500
REMARK  6 active torsions:
REMARK  status: ('A' for Active; 'I' for Inactive)
REMARK    1  A    between atoms: N_1  and  C_23
REMARK    2  A    between atoms: C_4  and  C_11
REMARK    3  A    between atoms: N_9  and  C_15
REMARK    4  A    between atoms: C_18  and  N_25
REMARK    5  A    between atoms: C_31  and  C_32
REMARK    6  A    between atoms: C_32  and  O_33
REMARK                            x       y       z     vdW  Elec       q    Type
REMARK                         _______ _______ _______ _____ _____    ______ ____
ROOT
ATOM      1  N   UNL     1      34.447 -16.768 -25.243  0.00  0.00    -0.247 N 
ATOM      2  N   UNL     1      33.526 -14.853 -24.249  0.00  0.00    -0.336 NA
ATOM      3  N   UNL     1      33.788 -15.001 -26.639  0.00  0.00    -0.170 NA
ATOM      4  C   UNL     1      33.000 -13.622 -24.420  0.00  0.00    +0.161 C 
ATOM      5  C   UNL     1      33.894 -15.481 -25.384  0.00  0.00    +0.149 C 
ATOM      6  C   UNL     1      32.838 -13.022 -25.652  0.00  0.00    +0.056 C 
ATOM      7  C   UNL     1      33.254 -13.766 -26.738  0.00  0.00    +0.114 C 
ATOM      8  H   UNL     1      34.701 -17.185 -26.097  0.00  0.00    +0.165 HD
ENDROOT
BRANCH   4  11
ATOM      9  N   UNL     1      32.598 -11.602 -23.029  0.00  0.00    -0.274 N 
ATOM     10  N   UNL     1      31.907 -12.466 -21.103  0.00  0.00    -0.232 NA
ATOM     11  C   UNL     1      32.608 -12.959 -23.205  0.00  0.00    +0.103 C 
ATOM     12  C   UNL     1      32.170 -11.355 -21.754  0.00  0.00    +0.113 C 
ATOM     13  C   UNL     1      32.179 -13.468 -22.000  0.00  0.00    +0.117 C 
ATOM     14  C   UNL     1      32.038  -9.985 -21.219  0.00  0.00    +0.069 C 
BRANCH   9  15
ATOM     15  C   UNL     1      32.969 -10.607 -24.010  0.00  0.00    +0.078 C 
ATOM     16  C   UNL     1      32.167  -9.315 -23.847  0.00  0.00    +0.022 C 
ATOM     17  C   UNL     1      34.476 -10.340 -24.014  0.00  0.00    +0.022 C 
ENDBRANCH   9  15
ENDBRANCH   4  11
BRANCH   1  23
ATOM     18  C   UNL     1      35.228 -19.202 -21.860  0.00  0.00    +0.048 C 
ATOM     19  C   UNL     1      35.331 -17.792 -21.793  0.00  0.00    +0.016 C 
ATOM     20  C   UNL     1      34.855 -19.766 -23.103  0.00  0.00    +0.016 C 
ATOM     21  C   UNL     1      35.074 -16.992 -22.906  0.00  0.00    +0.017 C 
ATOM     22  C   UNL     1      34.599 -18.965 -24.216  0.00  0.00    +0.017 C 
ATOM     23  C   UNL     1      34.708 -17.578 -24.118  0.00  0.00    +0.058 C 
BRANCH  18  25
ATOM     24  O   UNL     1      35.327 -23.218 -16.848  0.00  0.00    -0.272 OA
ATOM     25  N   UNL     1      35.481 -20.002 -20.749  0.00  0.00    -0.304 N 
ATOM     26  N   UNL     1      35.975 -21.604 -18.388  0.00  0.00    -0.274 N 
ATOM     27  C   UNL     1      36.852 -20.290 -20.318  0.00  0.00    +0.112 C 
ATOM     28  C   UNL     1      34.377 -20.611 -20.000  0.00  0.00    +0.112 C 
ATOM     29  C   UNL     1      36.903 -20.554 -18.814  0.00  0.00    +0.115 C 
ATOM     30  C   UNL     1      34.848 -21.873 -19.278  0.00  0.00    +0.115 C 
ATOM     31  C   UNL     1      36.107 -22.333 -17.207  0.00  0.00    +0.256 C 
BRANCH  31  32
ATOM     32  C   UNL     1      37.297 -21.993 -16.344  0.00  0.00    +0.223 C 
BRANCH  32  33
ATOM     33  O   UNL     1      37.987 -23.198 -16.119  0.00  0.00    -0.374 OA
ATOM     34  H   UNL     1      38.643 -23.069 -15.415  0.00  0.00    +0.211 HD
ENDBRANCH  32  33
ENDBRANCH  31  32
ENDBRANCH  18  25
ENDBRANCH   1  23
TORSDOF 6
ENDMDL
MODEL 2
REMARK VINA RESULT:     -11.0      1.116      2.126
REMARK  Name = 11270500
REMARK  6 active torsions:
REMARK  status: ('A' for Active; 'I' for Inactive)
REMARK    1  A    between atoms: N_1  and  C_23
REMARK    2  A    between atoms: C_4  and  C_11
REMARK    3  A    between atoms: N_9  and  C_15
REMARK    4  A    between atoms: C_18  and  N_25
REMARK    5  A    between atoms: C_31  and  C_32
REMARK    6  A    between atoms: C_32  and  O_33
REMARK                            x       y       z     vdW  Elec       q    Type
REMARK                         _______ _______ _______ _____ _____    ______ ____
ROOT
ATOM      1  N   UNL     1      34.520 -17.069 -25.172  0.00  0.00    -0.247 N 
ATOM      2  N   UNL     1      33.551 -15.150 -24.233  0.00  0.00    -0.336 NA
ATOM      3  N   UNL     1      33.850 -15.344 -26.616  0.00  0.00    -0.170 NA
ATOM      4  C   UNL     1      33.006 -13.932 -24.438  0.00  0.00    +0.161 C 
ATOM      5  C   UNL     1      33.946 -15.795 -25.349  0.00  0.00    +0.149 C 
ATOM      6  C   UNL     1      32.851 -13.362 -25.685  0.00  0.00    +0.056 C 
ATOM      7  C   UNL     1      33.296 -14.121 -26.748  0.00  0.00    +0.114 C 
ATOM      8  H   UNL     1      34.793 -17.499 -26.014  0.00  0.00    +0.165 HD
ENDROOT
BRANCH   4  11
ATOM      9  N   UNL     1      32.726 -13.746 -21.975  0.00  0.00    -0.274 N 
ATOM     10  N   UNL     1      31.754 -11.761 -21.745  0.00  0.00    -0.232 NA
ATOM     11  C   UNL     1      32.586 -13.250 -23.243  0.00  0.00    +0.103 C 
ATOM     12  C   UNL     1      32.214 -12.818 -21.111  0.00  0.00    +0.113 C 
ATOM     13  C   UNL     1      31.982 -12.024 -23.072  0.00  0.00    +0.117 C 
ATOM     14  C   UNL     1      32.201 -13.026 -19.649  0.00  0.00    +0.069 C 
BRANCH   9  15
ATOM     15  C   UNL     1      33.310 -15.017 -21.611  0.00  0.00    +0.078 C 
ATOM     16  C   UNL     1      34.593 -14.845 -20.795  0.00  0.00    +0.022 C 
ATOM     17  C   UNL     1      32.306 -15.926 -20.899  0.00  0.00    +0.022 C 
ENDBRANCH   9  15
ENDBRANCH   4  11
BRANCH   1  23
ATOM     18  C   UNL     1      35.297 -19.414 -21.727  0.00  0.00    +0.048 C 
ATOM     19  C   UNL     1      35.977 -18.194 -21.957  0.00  0.00    +0.016 C 
ATOM     20  C   UNL     1      34.347 -19.818 -22.694  0.00  0.00    +0.016 C 
ATOM     21  C   UNL     1      35.722 -17.423 -23.091  0.00  0.00    +0.017 C 
ATOM     22  C   UNL     1      34.092 -19.047 -23.828  0.00  0.00    +0.017 C 
ATOM     23  C   UNL     1      34.779 -17.849 -24.026  0.00  0.00    +0.058 C 
BRANCH  18  25
ATOM     24  O   UNL     1      35.412 -23.337 -16.642  0.00  0.00    -0.272 OA
ATOM     25  N   UNL     1      35.549 -20.182 -20.594  0.00  0.00    -0.304 N 
ATOM     26  N   UNL     1      36.036 -21.721 -18.189  0.00  0.00    -0.274 N 
ATOM     27  C   UNL     1      36.916 -20.400 -20.113  0.00  0.00    +0.112 C 
ATOM     28  C   UNL     1      34.450 -20.829 -19.870  0.00  0.00    +0.112 C 
ATOM     29  C   UNL     1      36.929 -20.637 -18.604  0.00  0.00    +0.115 C 
ATOM     30  C   UNL     1      34.953 -22.056 -19.110  0.00  0.00    +0.115 C 
ATOM     31  C   UNL     1      36.163 -22.424 -16.992  0.00  0.00    +0.256 C 
BRANCH  31  32
ATOM     32  C   UNL     1      37.306 -22.015 -16.096  0.00  0.00    +0.223 C 
BRANCH  32  33
ATOM     33  O   UNL     1      38.198 -23.102 -16.063  0.00  0.00    -0.374 OA
ATOM     34  H   UNL     1      39.057 -22.827 -16.421  0.00  0.00    +0.211 HD
ENDBRANCH  32  33
ENDBRANCH  31  32
ENDBRANCH  18  25
ENDBRANCH   1  23
TORSDOF 6
ENDMDL
MODEL 3
REMARK VINA RESULT:     -10.4      4.561     11.138
REMARK  Name = 11270500
REMARK  6 active torsions:
REMARK  status: ('A' for Active; 'I' for Inactive)
REMARK    1  A    between atoms: N_1  and  C_23
REMARK    2  A    between atoms: C_4  and  C_11
REMARK    3  A    between atoms: N_9  and  C_15
REMARK    4  A    between atoms: C_18  and  N_25
REMARK    5  A    between atoms: C_31  and  C_32
REMARK    6  A    between atoms: C_32  and  O_33
REMARK                            x       y       z     vdW  Elec       q    Type
REMARK                         _______ _______ _______ _____ _____    ______ ____
ROOT
ATOM      1  N   UNL     1      36.723 -21.742 -18.317  0.00  0.00    -0.247 N 
ATOM      2  N   UNL     1      34.708 -22.444 -17.342  0.00  0.00    -0.336 NA
ATOM      3  N   UNL     1      36.824 -23.273 -16.542  0.00  0.00    -0.170 NA
ATOM      4  C   UNL     1      34.099 -23.205 -16.408  0.00  0.00    +0.161 C 
ATOM      5  C   UNL     1      36.054 -22.523 -17.355  0.00  0.00    +0.149 C 
ATOM      6  C   UNL     1      34.776 -24.014 -15.518  0.00  0.00    +0.056 C 
ATOM      7  C   UNL     1      36.151 -24.008 -15.632  0.00  0.00    +0.114 C 
ATOM      8  H   UNL     1      37.703 -21.833 -18.288  0.00  0.00    +0.165 HD
ENDROOT
BRANCH   4  11
ATOM      9  N   UNL     1      31.871 -23.440 -15.332  0.00  0.00    -0.274 N 
ATOM     10  N   UNL     1      30.483 -22.785 -16.939  0.00  0.00    -0.232 NA
ATOM     11  C   UNL     1      32.663 -23.115 -16.400  0.00  0.00    +0.103 C 
ATOM     12  C   UNL     1      30.572 -23.225 -15.703  0.00  0.00    +0.113 C 
ATOM     13  C   UNL     1      31.781 -22.715 -17.378  0.00  0.00    +0.117 C 
ATOM     14  C   UNL     1      29.440 -23.475 -14.788  0.00  0.00    +0.069 C 
BRANCH   9  15
ATOM     15  C   UNL     1      32.320 -23.920 -14.045  0.00  0.00    +0.078 C 
ATOM     16  C   UNL     1      32.096 -22.889 -12.938  0.00  0.00    +0.022 C 
ATOM     17  C   UNL     1      31.699 -25.274 -13.691  0.00  0.00    +0.022 C 
ENDBRANCH   9  15
ENDBRANCH   4  11
BRANCH   1  23
ATOM     18  C   UNL     1      35.348 -19.072 -21.310  0.00  0.00    +0.048 C 
ATOM     19  C   UNL     1      34.482 -20.020 -20.712  0.00  0.00    +0.016 C 
ATOM     20  C   UNL     1      36.691 -19.054 -20.867  0.00  0.00    +0.016 C 
ATOM     21  C   UNL     1      34.935 -20.898 -19.728  0.00  0.00    +0.017 C 
ATOM     22  C   UNL     1      37.144 -19.933 -19.883  0.00  0.00    +0.017 C 
ATOM     23  C   UNL     1      36.266 -20.855 -19.313  0.00  0.00    +0.058 C 
BRANCH  18  25
ATOM     24  O   UNL     1      33.640 -15.784 -26.556  0.00  0.00    -0.272 OA
ATOM     25  N   UNL     1      34.896 -18.193 -22.290  0.00  0.00    -0.304 N 
ATOM     26  N   UNL     1      34.034 -16.331 -24.334  0.00  0.00    -0.274 N 
ATOM     27  C   UNL     1      33.961 -17.113 -21.966  0.00  0.00    +0.112 C 
ATOM     28  C   UNL     1      35.317 -18.349 -23.686  0.00  0.00    +0.112 C 
ATOM     29  C   UNL     1      34.136 -15.937 -22.927  0.00  0.00    +0.115 C 
ATOM     30  C   UNL     1      34.283 -17.740 -24.632  0.00  0.00    +0.115 C 
ATOM     31  C   UNL     1      33.727 -15.453 -25.372  0.00  0.00    +0.256 C 
BRANCH  31  32
ATOM     32  C   UNL     1      33.487 -14.016 -24.980  0.00  0.00    +0.223 C 
BRANCH  32  33
ATOM     33  O   UNL     1      33.267 -13.306 -26.174  0.00  0.00    -0.374 OA
ATOM     34  H   UNL     1      33.031 -12.388 -25.966  0.00  0.00    +0.211 HD
ENDBRANCH  32  33
ENDBRANCH  31  32
ENDBRANCH  18  25
ENDBRANCH   1  23
TORSDOF 6
ENDMDL
MODEL 4
REMARK VINA RESULT:      -9.8      2.958      4.520
REMARK  Name = 11270500
REMARK  6 active torsions:
REMARK  status: ('A' for Active; 'I' for Inactive)
REMARK    1  A    between atoms: N_1  and  C_23
REMARK    2  A    between atoms: C_4  and  C_11
REMARK    3  A    between atoms: N_9  and  C_15
REMARK    4  A    between atoms: C_18  and  N_25
REMARK    5  A    between atoms: C_31  and  C_32
REMARK    6  A    between atoms: C_32  and  O_33
REMARK                            x       y       z     vdW  Elec       q    Type
REMARK                         _______ _______ _______ _____ _____    ______ ____
ROOT
ATOM      1  N   UNL     1      35.129 -19.881 -22.347  0.00  0.00    -0.247 N 
ATOM      2  N   UNL     1      34.313 -17.703 -22.044  0.00  0.00    -0.336 NA
ATOM      3  N   UNL     1      35.512 -18.308 -24.044  0.00  0.00    -0.170 NA
ATOM      4  C   UNL     1      34.186 -16.455 -22.541  0.00  0.00    +0.161 C 
ATOM      5  C   UNL     1      34.978 -18.569 -22.835  0.00  0.00    +0.149 C 
ATOM      6  C   UNL     1      34.687 -16.063 -23.766  0.00  0.00    +0.056 C 
ATOM      7  C   UNL     1      35.348 -17.042 -24.481  0.00  0.00    +0.114 C 
ATOM      8  H   UNL     1      35.621 -20.476 -22.958  0.00  0.00    +0.165 HD
ENDROOT
BRANCH   4  11
ATOM      9  N   UNL     1      33.092 -14.276 -22.061  0.00  0.00    -0.274 N 
ATOM     10  N   UNL     1      32.393 -14.533 -19.968  0.00  0.00    -0.232 NA
ATOM     11  C   UNL     1      33.476 -15.536 -21.692  0.00  0.00    +0.103 C 
ATOM     12  C   UNL     1      32.446 -13.713 -20.995  0.00  0.00    +0.113 C 
ATOM     13  C   UNL     1      33.032 -15.669 -20.395  0.00  0.00    +0.117 C 
ATOM     14  C   UNL     1      31.894 -12.344 -21.041  0.00  0.00    +0.069 C 
BRANCH   9  15
ATOM     15  C   UNL     1      33.324 -13.649 -23.343  0.00  0.00    +0.078 C 
ATOM     16  C   UNL     1      32.172 -13.897 -24.318  0.00  0.00    +0.022 C 
ATOM     17  C   UNL     1      33.634 -12.157 -23.204  0.00  0.00    +0.022 C 
ENDBRANCH   9  15
ENDBRANCH   4  11
BRANCH   1  23
ATOM     18  C   UNL     1      33.884 -21.778 -18.765  0.00  0.00    +0.048 C 
ATOM     19  C   UNL     1      32.959 -21.119 -19.611  0.00  0.00    +0.016 C 
ATOM     20  C   UNL     1      35.241 -21.775 -19.164  0.00  0.00    +0.016 C 
ATOM     21  C   UNL     1      33.369 -20.495 -20.788  0.00  0.00    +0.017 C 
ATOM     22  C   UNL     1      35.651 -21.151 -20.342  0.00  0.00    +0.017 C 
ATOM     23  C   UNL     1      34.715 -20.511 -21.155  0.00  0.00    +0.058 C 
BRANCH  18  25
ATOM     24  O   UNL     1      33.086 -24.639 -13.069  0.00  0.00    -0.272 OA
ATOM     25  N   UNL     1      33.476 -22.404 -17.591  0.00  0.00    -0.304 N 
ATOM     26  N   UNL     1      32.644 -23.781 -15.183  0.00  0.00    -0.274 N 
ATOM     27  C   UNL     1      32.067 -22.411 -17.185  0.00  0.00    +0.112 C 
ATOM     28  C   UNL     1      34.454 -23.043 -16.705  0.00  0.00    +0.112 C 
ATOM     29  C   UNL     1      31.753 -23.643 -16.337  0.00  0.00    +0.115 C 
ATOM     30  C   UNL     1      33.930 -23.093 -15.270  0.00  0.00    +0.115 C 
ATOM     31  C   UNL     1      32.336 -24.521 -14.042  0.00  0.00    +0.256 C 
BRANCH  31  32
ATOM     32  C   UNL     1      30.990 -25.203 -14.032  0.00  0.00    +0.223 C 
BRANCH  32  33
ATOM     33  O   UNL     1      30.411 -24.929 -12.780  0.00  0.00    -0.374 OA
ATOM     34  H   UNL     1      30.025 -25.742 -12.417  0.00  0.00    +0.211 HD
ENDBRANCH  32  33
ENDBRANCH  31  32
ENDBRANCH  18  25
ENDBRANCH   1  23
TORSDOF 6
ENDMDL
MODEL 5
REMARK VINA RESULT:      -9.2      1.565      2.179
REMARK  Name = 11270500
REMARK  6 active torsions:
REMARK  status: ('A' for Active; 'I' for Inactive)
REMARK    1  A    between atoms: N_1  and  C_23
REMARK    2  A    between atoms: C_4  and  C_11
REMARK    3  A    between atoms: N_9  and  C_15
REMARK    4  A    between atoms: C_18  and  N_25
REMARK    5  A    between atoms: C_31  and  C_32
REMARK    6  A    between atoms: C_32  and  O_33
REMARK                            x       y       z     vdW  Elec       q    Type
REMARK                         _______ _______ _______ _____ _____    ______ ____
ROOT
ATOM      1  N   UNL     1      34.727 -18.059 -23.688  0.00  0.00    -0.247 N 
ATOM      2  N   UNL     1      33.799 -16.096 -22.799  0.00  0.00    -0.336 NA
ATOM      3  N   UNL     1      34.252 -16.292 -25.157  0.00  0.00    -0.170 NA
ATOM      4  C   UNL     1      33.335 -14.850 -23.029  0.00  0.00    +0.161 C 
ATOM      5  C   UNL     1      34.236 -16.755 -23.892  0.00  0.00    +0.149 C 
ATOM      6  C   UNL     1      33.298 -14.264 -24.278  0.00  0.00    +0.056 C 
ATOM      7  C   UNL     1      33.774 -15.040 -25.316  0.00  0.00    +0.114 C 
ATOM      8  H   UNL     1      35.035 -18.498 -24.514  0.00  0.00    +0.165 HD
ENDROOT
BRANCH   4  11
ATOM      9  N   UNL     1      32.421 -12.861 -21.852  0.00  0.00    -0.274 N 
ATOM     10  N   UNL     1      32.264 -13.569 -19.751  0.00  0.00    -0.232 NA
ATOM     11  C   UNL     1      32.870 -14.154 -21.859  0.00  0.00    +0.103 C 
ATOM     12  C   UNL     1      32.068 -12.555 -20.566  0.00  0.00    +0.113 C 
ATOM     13  C   UNL     1      32.763 -14.567 -20.550  0.00  0.00    +0.117 C 
ATOM     14  C   UNL     1      31.538 -11.230 -20.189  0.00  0.00    +0.069 C 
BRANCH   9  15
ATOM     15  C   UNL     1      32.332 -11.977 -22.992  0.00  0.00    +0.078 C 
ATOM     16  C   UNL     1      31.197 -10.963 -22.843  0.00  0.00    +0.022 C 
ATOM     17  C   UNL     1      33.667 -11.291 -23.290  0.00  0.00    +0.022 C 
ENDBRANCH   9  15
ENDBRANCH   4  11
BRANCH   1  23
ATOM     18  C   UNL     1      35.141 -20.468 -20.224  0.00  0.00    +0.048 C 
ATOM     19  C   UNL     1      33.888 -20.303 -20.862  0.00  0.00    +0.016 C 
ATOM     20  C   UNL     1      36.249 -19.794 -20.790  0.00  0.00    +0.016 C 
ATOM     21  C   UNL     1      33.752 -19.510 -22.001  0.00  0.00    +0.017 C 
ATOM     22  C   UNL     1      36.113 -19.001 -21.929  0.00  0.00    +0.017 C 
ATOM     23  C   UNL     1      34.864 -18.859 -22.535  0.00  0.00    +0.058 C 
BRANCH  18  25
ATOM     24  O   UNL     1      34.743 -24.496 -15.237  0.00  0.00    -0.272 OA
ATOM     25  N   UNL     1      35.278 -21.262 -19.089  0.00  0.00    -0.304 N 
ATOM     26  N   UNL     1      35.524 -22.855 -16.683  0.00  0.00    -0.274 N 
ATOM     27  C   UNL     1      36.592 -21.503 -18.486  0.00  0.00    +0.112 C 
ATOM     28  C   UNL     1      34.111 -21.913 -18.487  0.00  0.00    +0.112 C 
ATOM     29  C   UNL     1      36.460 -21.770 -16.987  0.00  0.00    +0.115 C 
ATOM     30  C   UNL     1      34.530 -23.160 -17.709  0.00  0.00    +0.115 C 
ATOM     31  C   UNL     1      35.531 -23.583 -15.494  0.00  0.00    +0.256 C 
BRANCH  31  32
ATOM     32  C   UNL     1      36.587 -23.203 -14.486  0.00  0.00    +0.223 C 
BRANCH  32  33
ATOM     33  O   UNL     1      35.939 -23.117 -13.240  0.00  0.00    -0.374 OA
ATOM     34  H   UNL     1      35.045 -23.486 -13.315  0.00  0.00    +0.211 HD
ENDBRANCH  32  33
ENDBRANCH  31  32
ENDBRANCH  18  25
ENDBRANCH   1  23
TORSDOF 6
ENDMDL
MODEL 6
REMARK VINA RESULT:      -9.1      4.748      8.577
REMARK  Name = 11270500
REMARK  6 active torsions:
REMARK  status: ('A' for Active; 'I' for Inactive)
REMARK    1  A    between atoms: N_1  and  C_23
REMARK    2  A    between atoms: C_4  and  C_11
REMARK    3  A    between atoms: N_9  and  C_15
REMARK    4  A    between atoms: C_18  and  N_25
REMARK    5  A    between atoms: C_31  and  C_32
REMARK    6  A    between atoms: C_32  and  O_33
REMARK                            x       y       z     vdW  Elec       q    Type
REMARK                         _______ _______ _______ _____ _____    ______ ____
ROOT
ATOM      1  N   UNL     1      31.185  -8.276 -22.172  0.00  0.00    -0.247 N 
ATOM      2  N   UNL     1      32.269  -6.890 -23.723  0.00  0.00    -0.336 NA
ATOM      3  N   UNL     1      30.718  -5.977 -22.121  0.00  0.00    -0.170 NA
ATOM      4  C   UNL     1      32.453  -5.642 -24.201  0.00  0.00    +0.161 C 
ATOM      5  C   UNL     1      31.401  -6.987 -22.696  0.00  0.00    +0.149 C 
ATOM      6  C   UNL     1      31.815  -4.526 -23.698  0.00  0.00    +0.056 C 
ATOM      7  C   UNL     1      30.949  -4.756 -22.648  0.00  0.00    +0.114 C 
ATOM      8  H   UNL     1      30.543  -8.297 -21.425  0.00  0.00    +0.165 HD
ENDROOT
BRANCH   4  11
ATOM      9  N   UNL     1      33.317  -4.605 -26.288  0.00  0.00    -0.274 N 
ATOM     10  N   UNL     1      35.089  -5.861 -26.758  0.00  0.00    -0.232 NA
ATOM     11  C   UNL     1      33.381  -5.545 -25.296  0.00  0.00    +0.103 C 
ATOM     12  C   UNL     1      34.362  -4.834 -27.141  0.00  0.00    +0.113 C 
ATOM     13  C   UNL     1      34.483  -6.308 -25.611  0.00  0.00    +0.117 C 
ATOM     14  C   UNL     1      34.601  -3.999 -28.335  0.00  0.00    +0.069 C 
BRANCH   9  15
ATOM     15  C   UNL     1      32.329  -3.558 -26.415  0.00  0.00    +0.078 C 
ATOM     16  C   UNL     1      32.871  -2.201 -25.963  0.00  0.00    +0.022 C 
ATOM     17  C   UNL     1      31.745  -3.490 -27.828  0.00  0.00    +0.022 C 
ENDBRANCH   9  15
ENDBRANCH   4  11
BRANCH   1  23
ATOM     18  C   UNL     1      32.751 -12.086 -23.177  0.00  0.00    +0.048 C 
ATOM     19  C   UNL     1      31.721 -11.942 -22.216  0.00  0.00    +0.016 C 
ATOM     20  C   UNL     1      33.236 -10.905 -23.787  0.00  0.00    +0.016 C 
ATOM     21  C   UNL     1      31.207 -10.688 -21.885  0.00  0.00    +0.017 C 
ATOM     22  C   UNL     1      32.722  -9.652 -23.456  0.00  0.00    +0.017 C 
ATOM     23  C   UNL     1      31.706  -9.543 -22.505  0.00  0.00    +0.058 C 
BRANCH  18  25
ATOM     24  O   UNL     1      34.711 -17.640 -25.740  0.00  0.00    -0.272 OA
ATOM     25  N   UNL     1      33.263 -13.336 -23.510  0.00  0.00    -0.304 N 
ATOM     26  N   UNL     1      34.252 -15.972 -24.190  0.00  0.00    -0.274 N 
ATOM     27  C   UNL     1      34.245 -14.007 -22.654  0.00  0.00    +0.112 C 
ATOM     28  C   UNL     1      32.860 -14.002 -24.753  0.00  0.00    +0.112 C 
ATOM     29  C   UNL     1      34.144 -15.525 -22.799  0.00  0.00    +0.115 C 
ATOM     30  C   UNL     1      33.939 -14.980 -25.216  0.00  0.00    +0.115 C 
ATOM     31  C   UNL     1      34.620 -17.262 -24.570  0.00  0.00    +0.256 C 
BRANCH  31  32
ATOM     32  C   UNL     1      34.924 -18.226 -23.450  0.00  0.00    +0.223 C 
BRANCH  32  33
ATOM     33  O   UNL     1      36.318 -18.193 -23.260  0.00  0.00    -0.374 OA
ATOM     34  H   UNL     1      36.735 -17.735 -24.007  0.00  0.00    +0.211 HD
ENDBRANCH  32  33
ENDBRANCH  31  32
ENDBRANCH  18  25
ENDBRANCH   1  23
TORSDOF 6
ENDMDL
MODEL 7
REMARK VINA RESULT:      -8.7      2.425      3.841
REMARK  Name = 11270500
REMARK  6 active torsions:
REMARK  status: ('A' for Active; 'I' for Inactive)
REMARK    1  A    between atoms: N_1  and  C_23
REMARK    2  A    between atoms: C_4  and  C_11
REMARK    3  A    between atoms: N_9  and  C_15
REMARK    4  A    between atoms: C_18  and  N_25
REMARK    5  A    between atoms: C_31  and  C_32
REMARK    6  A    between atoms: C_32  and  O_33
REMARK                            x       y       z     vdW  Elec       q    Type
REMARK                         _______ _______ _______ _____ _____    ______ ____
ROOT
ATOM      1  N   UNL     1      35.371 -19.744 -22.598  0.00  0.00    -0.247 N 
ATOM      2  N   UNL     1      34.414 -17.647 -22.164  0.00  0.00    -0.336 NA
ATOM      3  N   UNL     1      35.267 -18.189 -24.351  0.00  0.00    -0.170 NA
ATOM      4  C   UNL     1      34.070 -16.432 -22.639  0.00  0.00    +0.161 C 
ATOM      5  C   UNL     1      35.000 -18.467 -23.060  0.00  0.00    +0.149 C 
ATOM      6  C   UNL     1      34.289 -16.028 -23.941  0.00  0.00    +0.056 C 
ATOM      7  C   UNL     1      34.898 -16.957 -24.760  0.00  0.00    +0.114 C 
ATOM      8  H   UNL     1      35.795 -20.305 -23.286  0.00  0.00    +0.165 HD
ENDROOT
BRANCH   4  11
ATOM      9  N   UNL     1      33.052 -14.277 -21.934  0.00  0.00    -0.274 N 
ATOM     10  N   UNL     1      32.521 -14.661 -19.812  0.00  0.00    -0.232 NA
ATOM     11  C   UNL     1      33.445 -15.562 -21.679  0.00  0.00    +0.103 C 
ATOM     12  C   UNL     1      32.503 -13.778 -20.785  0.00  0.00    +0.113 C 
ATOM     13  C   UNL     1      33.107 -15.774 -20.361  0.00  0.00    +0.117 C 
ATOM     14  C   UNL     1      31.969 -12.404 -20.700  0.00  0.00    +0.069 C 
BRANCH   9  15
ATOM     15  C   UNL     1      33.188 -13.571 -23.189  0.00  0.00    +0.078 C 
ATOM     16  C   UNL     1      31.835 -13.334 -23.862  0.00  0.00    +0.022 C 
ATOM     17  C   UNL     1      33.976 -12.270 -23.031  0.00  0.00    +0.022 C 
ENDBRANCH   9  15
ENDBRANCH   4  11
BRANCH   1  23
ATOM     18  C   UNL     1      35.022 -21.645 -18.824  0.00  0.00    +0.048 C 
ATOM     19  C   UNL     1      36.287 -21.356 -19.390  0.00  0.00    +0.016 C 
ATOM     20  C   UNL     1      33.879 -21.275 -19.571  0.00  0.00    +0.016 C 
ATOM     21  C   UNL     1      36.401 -20.731 -20.631  0.00  0.00    +0.017 C 
ATOM     22  C   UNL     1      33.994 -20.650 -20.813  0.00  0.00    +0.017 C 
ATOM     23  C   UNL     1      35.255 -20.378 -21.343  0.00  0.00    +0.058 C 
BRANCH  18  25
ATOM     24  O   UNL     1      33.448 -24.761 -13.432  0.00  0.00    -0.272 OA
ATOM     25  N   UNL     1      34.907 -22.266 -17.583  0.00  0.00    -0.304 N 
ATOM     26  N   UNL     1      34.632 -23.486 -14.972  0.00  0.00    -0.274 N 
ATOM     27  C   UNL     1      36.091 -22.590 -16.785  0.00  0.00    +0.112 C 
ATOM     28  C   UNL     1      33.592 -22.648 -17.058  0.00  0.00    +0.112 C 
ATOM     29  C   UNL     1      35.754 -22.602 -15.294  0.00  0.00    +0.115 C 
ATOM     30  C   UNL     1      33.722 -23.806 -16.069  0.00  0.00    +0.115 C 
ATOM     31  C   UNL     1      34.393 -24.016 -13.705  0.00  0.00    +0.256 C 
BRANCH  31  32
ATOM     32  C   UNL     1      35.377 -23.635 -12.626  0.00  0.00    +0.223 C 
BRANCH  32  33
ATOM     33  O   UNL     1      34.779 -23.976 -11.399  0.00  0.00    -0.374 OA
ATOM     34  H   UNL     1      34.487 -24.901 -11.427  0.00  0.00    +0.211 HD
ENDBRANCH  32  33
ENDBRANCH  31  32
ENDBRANCH  18  25
ENDBRANCH   1  23
TORSDOF 6
ENDMDL
MODEL 8
REMARK VINA RESULT:      -8.6      7.396     13.355
REMARK  Name = 11270500
REMARK  6 active torsions:
REMARK  status: ('A' for Active; 'I' for Inactive)
REMARK    1  A    between atoms: N_1  and  C_23
REMARK    2  A    between atoms: C_4  and  C_11
REMARK    3  A    between atoms: N_9  and  C_15
REMARK    4  A    between atoms: C_18  and  N_25
REMARK    5  A    between atoms: C_31  and  C_32
REMARK    6  A    between atoms: C_32  and  O_33
REMARK                            x       y       z     vdW  Elec       q    Type
REMARK                         _______ _______ _______ _____ _____    ______ ____
ROOT
ATOM      1  N   UNL     1      31.891  -8.271 -21.254  0.00  0.00    -0.247 N 
ATOM      2  N   UNL     1      32.318 -10.485 -21.900  0.00  0.00    -0.336 NA
ATOM      3  N   UNL     1      31.415  -9.985 -19.724  0.00  0.00    -0.170 NA
ATOM      4  C   UNL     1      32.288 -11.793 -21.572  0.00  0.00    +0.161 C 
ATOM      5  C   UNL     1      31.874  -9.644 -20.945  0.00  0.00    +0.149 C 
ATOM      6  C   UNL     1      31.841 -12.268 -20.356  0.00  0.00    +0.056 C 
ATOM      7  C   UNL     1      31.412 -11.308 -19.461  0.00  0.00    +0.114 C 
ATOM      8  H   UNL     1      31.559  -7.698 -20.526  0.00  0.00    +0.165 HD
ENDROOT
BRANCH   4  11
ATOM      9  N   UNL     1      33.193 -13.964 -22.375  0.00  0.00    -0.274 N 
ATOM     10  N   UNL     1      33.398 -13.627 -24.561  0.00  0.00    -0.232 NA
ATOM     11  C   UNL     1      32.763 -12.684 -22.597  0.00  0.00    +0.103 C 
ATOM     12  C   UNL     1      33.563 -14.489 -23.583  0.00  0.00    +0.113 C 
ATOM     13  C   UNL     1      32.901 -12.501 -23.954  0.00  0.00    +0.117 C 
ATOM     14  C   UNL     1      34.081 -15.866 -23.717  0.00  0.00    +0.069 C 
BRANCH   9  15
ATOM     15  C   UNL     1      33.247 -14.642 -21.100  0.00  0.00    +0.078 C 
ATOM     16  C   UNL     1      32.303 -15.845 -21.050  0.00  0.00    +0.022 C 
ATOM     17  C   UNL     1      34.677 -15.031 -20.717  0.00  0.00    +0.022 C 
ENDBRANCH   9  15
ENDBRANCH   4  11
BRANCH   1  23
ATOM     18  C   UNL     1      33.094  -6.115 -24.701  0.00  0.00    +0.048 C 
ATOM     19  C   UNL     1      31.761  -6.063 -24.227  0.00  0.00    +0.016 C 
ATOM     20  C   UNL     1      34.008  -6.917 -23.977  0.00  0.00    +0.016 C 
ATOM     21  C   UNL     1      31.366  -6.773 -23.093  0.00  0.00    +0.017 C 
ATOM     22  C   UNL     1      33.612  -7.627 -22.844  0.00  0.00    +0.017 C 
ATOM     23  C   UNL     1      32.291  -7.554 -22.401  0.00  0.00    +0.058 C 
BRANCH  18  25
ATOM     24  O   UNL     1      35.820  -3.512 -29.902  0.00  0.00    -0.272 OA
ATOM     25  N   UNL     1      33.491  -5.404 -25.830  0.00  0.00    -0.304 N 
ATOM     26  N   UNL     1      34.363  -3.876 -28.130  0.00  0.00    -0.274 N 
ATOM     27  C   UNL     1      32.541  -4.575 -26.577  0.00  0.00    +0.112 C 
ATOM     28  C   UNL     1      34.868  -5.497 -26.327  0.00  0.00    +0.112 C 
ATOM     29  C   UNL     1      33.260  -3.424 -27.278  0.00  0.00    +0.115 C 
ATOM     30  C   UNL     1      34.923  -5.189 -27.822  0.00  0.00    +0.115 C 
ATOM     31  C   UNL     1      34.892  -3.132 -29.184  0.00  0.00    +0.256 C 
BRANCH  31  32
ATOM     32  C   UNL     1      34.259  -1.786 -29.434  0.00  0.00    +0.223 C 
BRANCH  32  33
ATOM     33  O   UNL     1      32.995  -2.035 -30.000  0.00  0.00    -0.374 OA
ATOM     34  H   UNL     1      32.971  -1.685 -30.905  0.00  0.00    +0.211 HD
ENDBRANCH  32  33
ENDBRANCH  31  32
ENDBRANCH  18  25
ENDBRANCH   1  23
TORSDOF 6
ENDMDL
MODEL 9
REMARK VINA RESULT:      -8.6      1.728      2.823
REMARK  Name = 11270500
REMARK  6 active torsions:
REMARK  status: ('A' for Active; 'I' for Inactive)
REMARK    1  A    between atoms: N_1  and  C_23
REMARK    2  A    between atoms: C_4  and  C_11
REMARK    3  A    between atoms: N_9  and  C_15
REMARK    4  A    between atoms: C_18  and  N_25
REMARK    5  A    between atoms: C_31  and  C_32
REMARK    6  A    between atoms: C_32  and  O_33
REMARK                            x       y       z     vdW  Elec       q    Type
REMARK                         _______ _______ _______ _____ _____    ______ ____
ROOT
ATOM      1  N   UNL     1      34.292 -14.000 -24.868  0.00  0.00    -0.247 N 
ATOM      2  N   UNL     1      33.293 -12.426 -23.444  0.00  0.00    -0.336 NA
ATOM      3  N   UNL     1      33.853 -11.858 -25.718  0.00  0.00    -0.170 NA
ATOM      4  C   UNL     1      32.820 -11.172 -23.286  0.00  0.00    +0.161 C 
ATOM      5  C   UNL     1      33.789 -12.700 -24.668  0.00  0.00    +0.149 C 
ATOM      6  C   UNL     1      32.828 -10.218 -24.284  0.00  0.00    +0.056 C 
ATOM      7  C   UNL     1      33.363 -10.621 -25.491  0.00  0.00    +0.114 C 
ATOM      8  H   UNL     1      34.643 -14.153 -25.775  0.00  0.00    +0.165 HD
ENDROOT
BRANCH   4  11
ATOM      9  N   UNL     1      32.138  -9.629 -21.461  0.00  0.00    -0.274 N 
ATOM     10  N   UNL     1      31.420 -11.024 -19.888  0.00  0.00    -0.232 NA
ATOM     11  C   UNL     1      32.292 -10.886 -21.979  0.00  0.00    +0.103 C 
ATOM     12  C   UNL     1      31.611  -9.762 -20.206  0.00  0.00    +0.113 C 
ATOM     13  C   UNL     1      31.842 -11.728 -20.987  0.00  0.00    +0.117 C 
ATOM     14  C   UNL     1      31.313  -8.597 -19.350  0.00  0.00    +0.069 C 
BRANCH   9  15
ATOM     15  C   UNL     1      32.468  -8.384 -22.118  0.00  0.00    +0.078 C 
ATOM     16  C   UNL     1      31.221  -7.644 -22.603  0.00  0.00    +0.022 C 
ATOM     17  C   UNL     1      33.351  -7.492 -21.242  0.00  0.00    +0.022 C 
ENDBRANCH   9  15
ENDBRANCH   4  11
BRANCH   1  23
ATOM     18  C   UNL     1      34.587 -17.387 -22.335  0.00  0.00    +0.048 C 
ATOM     19  C   UNL     1      34.482 -16.078 -21.806  0.00  0.00    +0.016 C 
ATOM     20  C   UNL     1      34.590 -17.518 -23.743  0.00  0.00    +0.016 C 
ATOM     21  C   UNL     1      34.386 -14.964 -22.640  0.00  0.00    +0.017 C 
ATOM     22  C   UNL     1      34.494 -16.404 -24.577  0.00  0.00    +0.017 C 
ATOM     23  C   UNL     1      34.391 -15.127 -24.025  0.00  0.00    +0.058 C 
BRANCH  18  25
ATOM     24  O   UNL     1      36.123 -22.342 -18.546  0.00  0.00    -0.272 OA
ATOM     25  N   UNL     1      34.680 -18.500 -21.503  0.00  0.00    -0.304 N 
ATOM     26  N   UNL     1      34.886 -20.863 -19.842  0.00  0.00    -0.274 N 
ATOM     27  C   UNL     1      33.511 -19.004 -20.778  0.00  0.00    +0.112 C 
ATOM     28  C   UNL     1      35.965 -19.177 -21.301  0.00  0.00    +0.112 C 
ATOM     29  C   UNL     1      33.639 -20.506 -20.521  0.00  0.00    +0.115 C 
ATOM     30  C   UNL     1      35.985 -19.907 -19.959  0.00  0.00    +0.115 C 
ATOM     31  C   UNL     1      35.073 -22.040 -19.118  0.00  0.00    +0.256 C 
BRANCH  31  32
ATOM     32  C   UNL     1      33.891 -22.975 -19.048  0.00  0.00    +0.223 C 
BRANCH  32  33
ATOM     33  O   UNL     1      33.295 -22.774 -17.790  0.00  0.00    -0.374 OA
ATOM     34  H   UNL     1      32.329 -22.780 -17.884  0.00  0.00    +0.211 HD
ENDBRANCH  32  33
ENDBRANCH  31  32
ENDBRANCH  18  25
ENDBRANCH   1  23
TORSDOF 6
ENDMDL
