MODEL 1
REMARK VINA RESULT:      -8.8      0.000      0.000
REMARK  Name = 11957393
REMARK  4 active torsions:
REMARK  status: ('A' for Active; 'I' for Inactive)
REMARK    1  A    between atoms: N_3  and  C_18
REMARK    2  A    between atoms: C_21  and  O_24
REMARK    3  A    between atoms: C_22  and  O_26
REMARK    4  A    between atoms: C_23  and  O_28
REMARK                            x       y       z     vdW  Elec       q    Type
REMARK                         _______ _______ _______ _____ _____    ______ ____
ROOT
ATOM      1  N   UNL     1      32.792  -8.569 -21.686  0.00  0.00    -0.224 N 
ATOM      2  N   UNL     1      32.527 -10.944 -21.362  0.00  0.00    -0.321 NA
ATOM      3  N   UNL     1      32.093 -13.164 -20.768  0.00  0.00    -0.247 N 
ATOM      4  N   UNL     1      31.244 -11.493 -19.367  0.00  0.00    -0.170 NA
ATOM      5  C   UNL     1      32.330  -9.663 -21.004  0.00  0.00    +0.206 C 
ATOM      6  C   UNL     1      31.633  -9.211 -19.890  0.00  0.00    +0.067 C 
ATOM      7  C   UNL     1      32.404  -7.427 -21.036  0.00  0.00    +0.073 C 
ATOM      8  C   UNL     1      31.684  -7.793 -19.918  0.00  0.00    +0.022 C 
ATOM      9  C   UNL     1      31.946 -11.787 -20.483  0.00  0.00    +0.150 C 
ATOM     10  C   UNL     1      31.081 -10.185 -19.060  0.00  0.00    +0.116 C 
ATOM     11  H   UNL     1      31.659 -13.754 -20.109  0.00  0.00    +0.165 HD
ATOM     12  N   UNL     1      33.842  -9.805 -23.380  0.00  0.00    -0.228 NA
ATOM     13  C   UNL     1      33.542  -8.598 -22.864  0.00  0.00    +0.141 C 
ATOM     14  C   UNL     1      33.921  -7.389 -23.414  0.00  0.00    +0.035 C 
ATOM     15  C   UNL     1      34.666  -7.423 -24.587  0.00  0.00    +0.004 C 
ATOM     16  C   UNL     1      34.568  -9.798 -24.521  0.00  0.00    +0.100 C 
ATOM     17  C   UNL     1      35.001  -8.646 -25.157  0.00  0.00    +0.021 C 
ENDROOT
BRANCH   3  18
ATOM     18  C   UNL     1      32.739 -13.857 -21.808  0.00  0.00    +0.064 C 
ATOM     19  C   UNL     1      32.400 -13.599 -23.139  0.00  0.00    +0.055 C 
ATOM     20  C   UNL     1      33.721 -14.805 -21.515  0.00  0.00    +0.055 C 
ATOM     21  C   UNL     1      34.361 -15.492 -22.547  0.00  0.00    +0.177 C 
ATOM     22  C   UNL     1      33.039 -14.286 -24.170  0.00  0.00    +0.177 C 
ATOM     23  C   UNL     1      34.021 -15.233 -23.874  0.00  0.00    +0.206 C 
BRANCH  21  24
ATOM     24  O   UNL     1      35.317 -16.415 -22.244  0.00  0.00    -0.468 OA
ATOM     25  C   UNL     1      34.931 -17.493 -21.395  0.00  0.00    +0.253 C 
ENDBRANCH  21  24
BRANCH  22  26
ATOM     26  O   UNL     1      32.697 -14.023 -25.462  0.00  0.00    -0.468 OA
ATOM     27  C   UNL     1      33.386 -12.955 -26.111  0.00  0.00    +0.253 C 
ENDBRANCH  22  26
BRANCH  23  28
ATOM     28  O   UNL     1      34.646 -15.905 -24.882  0.00  0.00    -0.465 OA
ATOM     29  C   UNL     1      34.149 -17.203 -25.200  0.00  0.00    +0.253 C 
ENDBRANCH  23  28
ENDBRANCH   3  18
TORSDOF 4
ENDMDL
MODEL 2
REMARK VINA RESULT:      -8.8      0.014      2.387
REMARK  Name = 11957393
REMARK  4 active torsions:
REMARK  status: ('A' for Active; 'I' for Inactive)
REMARK    1  A    between atoms: N_3  and  C_18
REMARK    2  A    between atoms: C_21  and  O_24
REMARK    3  A    between atoms: C_22  and  O_26
REMARK    4  A    between atoms: C_23  and  O_28
REMARK                            x       y       z     vdW  Elec       q    Type
REMARK                         _______ _______ _______ _____ _____    ______ ____
ROOT
ATOM      1  N   UNL     1      32.790  -8.575 -21.670  0.00  0.00    -0.224 N 
ATOM      2  N   UNL     1      32.524 -10.950 -21.350  0.00  0.00    -0.321 NA
ATOM      3  N   UNL     1      32.090 -13.171 -20.761  0.00  0.00    -0.247 N 
ATOM      4  N   UNL     1      31.242 -11.502 -19.356  0.00  0.00    -0.170 NA
ATOM      5  C   UNL     1      32.328  -9.670 -20.990  0.00  0.00    +0.206 C 
ATOM      6  C   UNL     1      31.631  -9.219 -19.875  0.00  0.00    +0.067 C 
ATOM      7  C   UNL     1      32.403  -7.433 -21.017  0.00  0.00    +0.073 C 
ATOM      8  C   UNL     1      31.683  -7.802 -19.900  0.00  0.00    +0.022 C 
ATOM      9  C   UNL     1      31.944 -11.794 -20.473  0.00  0.00    +0.150 C 
ATOM     10  C   UNL     1      31.079 -10.195 -19.046  0.00  0.00    +0.116 C 
ATOM     11  H   UNL     1      31.656 -13.762 -20.103  0.00  0.00    +0.165 HD
ATOM     12  N   UNL     1      33.840  -9.807 -23.366  0.00  0.00    -0.228 NA
ATOM     13  C   UNL     1      33.540  -8.601 -22.848  0.00  0.00    +0.141 C 
ATOM     14  C   UNL     1      33.920  -7.391 -23.396  0.00  0.00    +0.035 C 
ATOM     15  C   UNL     1      34.665  -7.423 -24.569  0.00  0.00    +0.004 C 
ATOM     16  C   UNL     1      34.566  -9.798 -24.506  0.00  0.00    +0.100 C 
ATOM     17  C   UNL     1      34.999  -8.645 -25.141  0.00  0.00    +0.021 C 
ENDROOT
BRANCH   3  18
ATOM     18  C   UNL     1      32.736 -13.862 -21.802  0.00  0.00    +0.064 C 
ATOM     19  C   UNL     1      33.721 -14.809 -21.511  0.00  0.00    +0.055 C 
ATOM     20  C   UNL     1      32.395 -13.603 -23.132  0.00  0.00    +0.055 C 
ATOM     21  C   UNL     1      33.035 -14.288 -24.164  0.00  0.00    +0.177 C 
ATOM     22  C   UNL     1      34.362 -15.493 -22.543  0.00  0.00    +0.177 C 
ATOM     23  C   UNL     1      34.018 -15.233 -23.871  0.00  0.00    +0.206 C 
BRANCH  21  24
ATOM     24  O   UNL     1      32.691 -14.025 -25.456  0.00  0.00    -0.468 OA
ATOM     25  C   UNL     1      33.374 -12.954 -26.103  0.00  0.00    +0.253 C 
ENDBRANCH  21  24
BRANCH  22  26
ATOM     26  O   UNL     1      35.319 -16.413 -22.243  0.00  0.00    -0.468 OA
ATOM     27  C   UNL     1      34.930 -17.509 -21.417  0.00  0.00    +0.253 C 
ENDBRANCH  22  26
BRANCH  23  28
ATOM     28  O   UNL     1      34.644 -15.902 -24.881  0.00  0.00    -0.465 OA
ATOM     29  C   UNL     1      34.149 -17.201 -25.200  0.00  0.00    +0.253 C 
ENDBRANCH  23  28
ENDBRANCH   3  18
TORSDOF 4
ENDMDL
MODEL 3
REMARK VINA RESULT:      -8.5     11.564     14.821
REMARK  Name = 11957393
REMARK  4 active torsions:
REMARK  status: ('A' for Active; 'I' for Inactive)
REMARK    1  A    between atoms: N_3  and  C_18
REMARK    2  A    between atoms: C_21  and  O_24
REMARK    3  A    between atoms: C_22  and  O_26
REMARK    4  A    between atoms: C_23  and  O_28
REMARK                            x       y       z     vdW  Elec       q    Type
REMARK                         _______ _______ _______ _____ _____    ______ ____
ROOT
ATOM      1  N   UNL     1      33.143 -22.434 -17.802  0.00  0.00    -0.224 N 
ATOM      2  N   UNL     1      35.437 -22.620 -17.085  0.00  0.00    -0.321 NA
ATOM      3  N   UNL     1      37.740 -22.635 -16.677  0.00  0.00    -0.247 N 
ATOM      4  N   UNL     1      37.006 -21.613 -18.652  0.00  0.00    -0.170 NA
ATOM      5  C   UNL     1      34.488 -22.228 -17.952  0.00  0.00    +0.206 C 
ATOM      6  C   UNL     1      34.686 -21.550 -19.149  0.00  0.00    +0.067 C 
ATOM      7  C   UNL     1      32.475 -21.902 -18.874  0.00  0.00    +0.073 C 
ATOM      8  C   UNL     1      33.406 -21.347 -19.726  0.00  0.00    +0.022 C 
ATOM      9  C   UNL     1      36.665 -22.268 -17.520  0.00  0.00    +0.150 C 
ATOM     10  C   UNL     1      36.005 -21.245 -19.484  0.00  0.00    +0.116 C 
ATOM     11  H   UNL     1      38.623 -22.364 -17.021  0.00  0.00    +0.165 HD
ATOM     12  N   UNL     1      33.328 -23.553 -15.749  0.00  0.00    -0.228 NA
ATOM     13  C   UNL     1      32.531 -23.084 -16.728  0.00  0.00    +0.141 C 
ATOM     14  C   UNL     1      31.155 -23.199 -16.745  0.00  0.00    +0.035 C 
ATOM     15  C   UNL     1      30.550 -23.846 -15.673  0.00  0.00    +0.004 C 
ATOM     16  C   UNL     1      32.705 -24.176 -14.724  0.00  0.00    +0.100 C 
ATOM     17  C   UNL     1      31.334 -24.347 -14.639  0.00  0.00    +0.021 C 
ENDROOT
BRANCH   3  18
ATOM     18  C   UNL     1      37.796 -23.310 -15.445  0.00  0.00    +0.064 C 
ATOM     19  C   UNL     1      38.652 -24.402 -15.282  0.00  0.00    +0.055 C 
ATOM     20  C   UNL     1      36.995 -22.892 -14.380  0.00  0.00    +0.055 C 
ATOM     21  C   UNL     1      37.050 -23.563 -13.158  0.00  0.00    +0.177 C 
ATOM     22  C   UNL     1      38.706 -25.073 -14.061  0.00  0.00    +0.177 C 
ATOM     23  C   UNL     1      37.905 -24.653 -12.998  0.00  0.00    +0.206 C 
BRANCH  21  24
ATOM     24  O   UNL     1      36.263 -23.143 -12.128  0.00  0.00    -0.468 OA
ATOM     25  C   UNL     1      34.980 -23.752 -12.003  0.00  0.00    +0.253 C 
ENDBRANCH  21  24
BRANCH  22  26
ATOM     26  O   UNL     1      39.546 -26.136 -13.918  0.00  0.00    -0.468 OA
ATOM     27  C   UNL     1      40.714 -26.154 -14.735  0.00  0.00    +0.253 C 
ENDBRANCH  22  26
BRANCH  23  28
ATOM     28  O   UNL     1      37.959 -25.308 -11.803  0.00  0.00    -0.465 OA
ATOM     29  C   UNL     1      37.201 -26.511 -11.690  0.00  0.00    +0.253 C 
ENDBRANCH  23  28
ENDBRANCH   3  18
TORSDOF 4
ENDMDL
MODEL 4
REMARK VINA RESULT:      -8.5     11.583     14.789
REMARK  Name = 11957393
REMARK  4 active torsions:
REMARK  status: ('A' for Active; 'I' for Inactive)
REMARK    1  A    between atoms: N_3  and  C_18
REMARK    2  A    between atoms: C_21  and  O_24
REMARK    3  A    between atoms: C_22  and  O_26
REMARK    4  A    between atoms: C_23  and  O_28
REMARK                            x       y       z     vdW  Elec       q    Type
REMARK                         _______ _______ _______ _____ _____    ______ ____
ROOT
ATOM      1  N   UNL     1      33.152 -22.460 -17.791  0.00  0.00    -0.224 N 
ATOM      2  N   UNL     1      35.446 -22.631 -17.069  0.00  0.00    -0.321 NA
ATOM      3  N   UNL     1      37.748 -22.631 -16.657  0.00  0.00    -0.247 N 
ATOM      4  N   UNL     1      37.011 -21.612 -18.631  0.00  0.00    -0.170 NA
ATOM      5  C   UNL     1      34.496 -22.244 -17.938  0.00  0.00    +0.206 C 
ATOM      6  C   UNL     1      34.692 -21.563 -19.133  0.00  0.00    +0.067 C 
ATOM      7  C   UNL     1      32.483 -21.930 -18.863  0.00  0.00    +0.073 C 
ATOM      8  C   UNL     1      33.412 -21.368 -19.713  0.00  0.00    +0.022 C 
ATOM      9  C   UNL     1      36.672 -22.270 -17.501  0.00  0.00    +0.150 C 
ATOM     10  C   UNL     1      36.010 -21.249 -19.465  0.00  0.00    +0.116 C 
ATOM     11  H   UNL     1      38.630 -22.354 -16.999  0.00  0.00    +0.165 HD
ATOM     12  N   UNL     1      33.341 -23.581 -15.739  0.00  0.00    -0.228 NA
ATOM     13  C   UNL     1      32.542 -23.115 -16.719  0.00  0.00    +0.141 C 
ATOM     14  C   UNL     1      31.167 -23.240 -16.739  0.00  0.00    +0.035 C 
ATOM     15  C   UNL     1      30.565 -23.893 -15.669  0.00  0.00    +0.004 C 
ATOM     16  C   UNL     1      32.720 -24.209 -14.717  0.00  0.00    +0.100 C 
ATOM     17  C   UNL     1      31.349 -24.390 -14.635  0.00  0.00    +0.021 C 
ENDROOT
BRANCH   3  18
ATOM     18  C   UNL     1      37.806 -23.308 -15.426  0.00  0.00    +0.064 C 
ATOM     19  C   UNL     1      37.011 -22.889 -14.357  0.00  0.00    +0.055 C 
ATOM     20  C   UNL     1      38.659 -24.403 -15.268  0.00  0.00    +0.055 C 
ATOM     21  C   UNL     1      38.716 -25.075 -14.046  0.00  0.00    +0.177 C 
ATOM     22  C   UNL     1      37.069 -23.559 -13.135  0.00  0.00    +0.177 C 
ATOM     23  C   UNL     1      37.921 -24.654 -12.980  0.00  0.00    +0.206 C 
BRANCH  21  24
ATOM     24  O   UNL     1      39.552 -26.142 -13.907  0.00  0.00    -0.468 OA
ATOM     25  C   UNL     1      40.703 -26.176 -14.749  0.00  0.00    +0.253 C 
ENDBRANCH  21  24
BRANCH  22  26
ATOM     26  O   UNL     1      36.287 -23.138 -12.103  0.00  0.00    -0.468 OA
ATOM     27  C   UNL     1      35.005 -23.748 -11.969  0.00  0.00    +0.253 C 
ENDBRANCH  22  26
BRANCH  23  28
ATOM     28  O   UNL     1      37.977 -25.310 -11.787  0.00  0.00    -0.465 OA
ATOM     29  C   UNL     1      37.222 -26.515 -11.675  0.00  0.00    +0.253 C 
ENDBRANCH  23  28
ENDBRANCH   3  18
TORSDOF 4
ENDMDL
MODEL 5
REMARK VINA RESULT:      -8.4      8.690     13.276
REMARK  Name = 11957393
REMARK  4 active torsions:
REMARK  status: ('A' for Active; 'I' for Inactive)
REMARK    1  A    between atoms: N_3  and  C_18
REMARK    2  A    between atoms: C_21  and  O_24
REMARK    3  A    between atoms: C_22  and  O_26
REMARK    4  A    between atoms: C_23  and  O_28
REMARK                            x       y       z     vdW  Elec       q    Type
REMARK                         _______ _______ _______ _____ _____    ______ ____
ROOT
ATOM      1  N   UNL     1      33.130 -24.360 -14.235  0.00  0.00    -0.224 N 
ATOM      2  N   UNL     1      32.722 -23.192 -16.305  0.00  0.00    -0.321 NA
ATOM      3  N   UNL     1      31.995 -22.104 -18.244  0.00  0.00    -0.247 N 
ATOM      4  N   UNL     1      30.351 -22.952 -16.808  0.00  0.00    -0.170 NA
ATOM      5  C   UNL     1      32.310 -23.830 -15.196  0.00  0.00    +0.206 C 
ATOM      6  C   UNL     1      30.995 -24.071 -14.816  0.00  0.00    +0.067 C 
ATOM      7  C   UNL     1      32.369 -24.933 -13.249  0.00  0.00    +0.073 C 
ATOM      8  C   UNL     1      31.042 -24.770 -13.583  0.00  0.00    +0.022 C 
ATOM      9  C   UNL     1      31.671 -22.789 -17.049  0.00  0.00    +0.150 C 
ATOM     10  C   UNL     1      30.001 -23.603 -15.675  0.00  0.00    +0.116 C 
ATOM     11  H   UNL     1      31.207 -21.823 -18.765  0.00  0.00    +0.165 HD
ATOM     12  N   UNL     1      35.127 -23.726 -15.289  0.00  0.00    -0.228 NA
ATOM     13  C   UNL     1      34.526 -24.329 -14.245  0.00  0.00    +0.141 C 
ATOM     14  C   UNL     1      35.190 -24.917 -13.187  0.00  0.00    +0.035 C 
ATOM     15  C   UNL     1      36.580 -24.882 -13.201  0.00  0.00    +0.004 C 
ATOM     16  C   UNL     1      36.478 -23.712 -15.269  0.00  0.00    +0.100 C 
ATOM     17  C   UNL     1      37.244 -24.271 -14.259  0.00  0.00    +0.021 C 
ENDROOT
BRANCH   3  18
ATOM     18  C   UNL     1      33.220 -21.747 -18.833  0.00  0.00    +0.064 C 
ATOM     19  C   UNL     1      33.240 -21.005 -20.017  0.00  0.00    +0.055 C 
ATOM     20  C   UNL     1      34.424 -22.132 -18.237  0.00  0.00    +0.055 C 
ATOM     21  C   UNL     1      35.639 -21.778 -18.822  0.00  0.00    +0.177 C 
ATOM     22  C   UNL     1      34.455 -20.652 -20.602  0.00  0.00    +0.177 C 
ATOM     23  C   UNL     1      35.656 -21.037 -20.004  0.00  0.00    +0.206 C 
BRANCH  21  24
ATOM     24  O   UNL     1      36.805 -22.160 -18.228  0.00  0.00    -0.468 OA
ATOM     25  C   UNL     1      37.277 -21.354 -17.151  0.00  0.00    +0.253 C 
ENDBRANCH  21  24
BRANCH  22  26
ATOM     26  O   UNL     1      34.457 -19.929 -21.756  0.00  0.00    -0.468 OA
ATOM     27  C   UNL     1      34.172 -18.535 -21.649  0.00  0.00    +0.253 C 
ENDBRANCH  22  26
BRANCH  23  28
ATOM     28  O   UNL     1      36.844 -20.691 -20.575  0.00  0.00    -0.465 OA
ATOM     29  C   UNL     1      37.289 -19.350 -20.381  0.00  0.00    +0.253 C 
ENDBRANCH  23  28
ENDBRANCH   3  18
TORSDOF 4
ENDMDL
MODEL 6
REMARK VINA RESULT:      -8.4      8.707     13.477
REMARK  Name = 11957393
REMARK  4 active torsions:
REMARK  status: ('A' for Active; 'I' for Inactive)
REMARK    1  A    between atoms: N_3  and  C_18
REMARK    2  A    between atoms: C_21  and  O_24
REMARK    3  A    between atoms: C_22  and  O_26
REMARK    4  A    between atoms: C_23  and  O_28
REMARK                            x       y       z     vdW  Elec       q    Type
REMARK                         _______ _______ _______ _____ _____    ______ ____
ROOT
ATOM      1  N   UNL     1      33.133 -24.361 -14.230  0.00  0.00    -0.224 N 
ATOM      2  N   UNL     1      32.727 -23.195 -16.301  0.00  0.00    -0.321 NA
ATOM      3  N   UNL     1      32.001 -22.108 -18.241  0.00  0.00    -0.247 N 
ATOM      4  N   UNL     1      30.357 -22.951 -16.804  0.00  0.00    -0.170 NA
ATOM      5  C   UNL     1      32.314 -23.831 -15.191  0.00  0.00    +0.206 C 
ATOM      6  C   UNL     1      30.999 -24.069 -14.811  0.00  0.00    +0.067 C 
ATOM      7  C   UNL     1      32.372 -24.931 -13.243  0.00  0.00    +0.073 C 
ATOM      8  C   UNL     1      31.044 -24.766 -13.576  0.00  0.00    +0.022 C 
ATOM      9  C   UNL     1      31.677 -22.791 -17.046  0.00  0.00    +0.150 C 
ATOM     10  C   UNL     1      30.005 -23.599 -15.670  0.00  0.00    +0.116 C 
ATOM     11  H   UNL     1      31.215 -21.826 -18.762  0.00  0.00    +0.165 HD
ATOM     12  N   UNL     1      35.131 -23.733 -15.285  0.00  0.00    -0.228 NA
ATOM     13  C   UNL     1      34.529 -24.333 -14.240  0.00  0.00    +0.141 C 
ATOM     14  C   UNL     1      35.193 -24.921 -13.181  0.00  0.00    +0.035 C 
ATOM     15  C   UNL     1      36.582 -24.889 -13.196  0.00  0.00    +0.004 C 
ATOM     16  C   UNL     1      36.482 -23.722 -15.265  0.00  0.00    +0.100 C 
ATOM     17  C   UNL     1      37.247 -24.280 -14.254  0.00  0.00    +0.021 C 
ENDROOT
BRANCH   3  18
ATOM     18  C   UNL     1      33.228 -21.754 -18.831  0.00  0.00    +0.064 C 
ATOM     19  C   UNL     1      34.431 -22.134 -18.230  0.00  0.00    +0.055 C 
ATOM     20  C   UNL     1      33.248 -21.022 -20.020  0.00  0.00    +0.055 C 
ATOM     21  C   UNL     1      34.465 -20.670 -20.605  0.00  0.00    +0.177 C 
ATOM     22  C   UNL     1      35.647 -21.781 -18.814  0.00  0.00    +0.177 C 
ATOM     23  C   UNL     1      35.664 -21.050 -20.003  0.00  0.00    +0.206 C 
BRANCH  21  24
ATOM     24  O   UNL     1      34.468 -19.956 -21.765  0.00  0.00    -0.468 OA
ATOM     25  C   UNL     1      34.184 -18.562 -21.668  0.00  0.00    +0.253 C 
ENDBRANCH  21  24
BRANCH  22  26
ATOM     26  O   UNL     1      36.811 -22.159 -18.216  0.00  0.00    -0.468 OA
ATOM     27  C   UNL     1      37.282 -21.347 -17.142  0.00  0.00    +0.253 C 
ENDBRANCH  22  26
BRANCH  23  28
ATOM     28  O   UNL     1      36.853 -20.707 -20.575  0.00  0.00    -0.465 OA
ATOM     29  C   UNL     1      37.300 -19.366 -20.383  0.00  0.00    +0.253 C 
ENDBRANCH  23  28
ENDBRANCH   3  18
TORSDOF 4
ENDMDL
MODEL 7
REMARK VINA RESULT:      -8.4     11.765     14.661
REMARK  Name = 11957393
REMARK  4 active torsions:
REMARK  status: ('A' for Active; 'I' for Inactive)
REMARK    1  A    between atoms: N_3  and  C_18
REMARK    2  A    between atoms: C_21  and  O_24
REMARK    3  A    between atoms: C_22  and  O_26
REMARK    4  A    between atoms: C_23  and  O_28
REMARK                            x       y       z     vdW  Elec       q    Type
REMARK                         _______ _______ _______ _____ _____    ______ ____
ROOT
ATOM      1  N   UNL     1      31.716 -22.779 -16.845  0.00  0.00    -0.224 N 
ATOM      2  N   UNL     1      32.978 -23.836 -15.083  0.00  0.00    -0.321 NA
ATOM      3  N   UNL     1      33.901 -24.909 -13.222  0.00  0.00    -0.247 N 
ATOM      4  N   UNL     1      31.576 -24.642 -13.263  0.00  0.00    -0.170 NA
ATOM      5  C   UNL     1      31.827 -23.422 -15.642  0.00  0.00    +0.206 C 
ATOM      6  C   UNL     1      30.550 -23.564 -15.113  0.00  0.00    +0.067 C 
ATOM      7  C   UNL     1      30.396 -22.508 -17.100  0.00  0.00    +0.073 C 
ATOM      8  C   UNL     1      29.650 -22.983 -16.043  0.00  0.00    +0.022 C 
ATOM      9  C   UNL     1      32.752 -24.435 -13.896  0.00  0.00    +0.150 C 
ATOM     10  C   UNL     1      30.453 -24.202 -13.876  0.00  0.00    +0.116 C 
ATOM     11  H   UNL     1      33.704 -25.342 -12.359  0.00  0.00    +0.165 HD
ATOM     12  N   UNL     1      34.017 -22.780 -17.299  0.00  0.00    -0.228 NA
ATOM     13  C   UNL     1      32.774 -22.444 -17.693  0.00  0.00    +0.141 C 
ATOM     14  C   UNL     1      32.471 -21.794 -18.874  0.00  0.00    +0.035 C 
ATOM     15  C   UNL     1      33.528 -21.464 -19.715  0.00  0.00    +0.004 C 
ATOM     16  C   UNL     1      35.018 -22.443 -18.142  0.00  0.00    +0.100 C 
ATOM     17  C   UNL     1      34.828 -21.790 -19.349  0.00  0.00    +0.021 C 
ENDROOT
BRANCH   3  18
ATOM     18  C   UNL     1      35.270 -24.884 -13.543  0.00  0.00    +0.064 C 
ATOM     19  C   UNL     1      35.773 -25.729 -14.536  0.00  0.00    +0.055 C 
ATOM     20  C   UNL     1      36.132 -24.016 -12.869  0.00  0.00    +0.055 C 
ATOM     21  C   UNL     1      37.490 -23.992 -13.187  0.00  0.00    +0.177 C 
ATOM     22  C   UNL     1      37.131 -25.705 -14.853  0.00  0.00    +0.177 C 
ATOM     23  C   UNL     1      37.990 -24.835 -14.179  0.00  0.00    +0.206 C 
BRANCH  21  24
ATOM     24  O   UNL     1      38.318 -23.138 -12.522  0.00  0.00    -0.468 OA
ATOM     25  C   UNL     1      37.765 -22.432 -11.414  0.00  0.00    +0.253 C 
ENDBRANCH  21  24
BRANCH  22  26
ATOM     26  O   UNL     1      37.606 -26.534 -15.823  0.00  0.00    -0.468 OA
ATOM     27  C   UNL     1      36.718 -27.539 -16.310  0.00  0.00    +0.253 C 
ENDBRANCH  22  26
BRANCH  23  28
ATOM     28  O   UNL     1      39.317 -24.811 -14.490  0.00  0.00    -0.465 OA
ATOM     29  C   UNL     1      40.139 -25.812 -13.893  0.00  0.00    +0.253 C 
ENDBRANCH  23  28
ENDBRANCH   3  18
TORSDOF 4
ENDMDL
MODEL 8
REMARK VINA RESULT:      -8.4     11.796     14.719
REMARK  Name = 11957393
REMARK  4 active torsions:
REMARK  status: ('A' for Active; 'I' for Inactive)
REMARK    1  A    between atoms: N_3  and  C_18
REMARK    2  A    between atoms: C_21  and  O_24
REMARK    3  A    between atoms: C_22  and  O_26
REMARK    4  A    between atoms: C_23  and  O_28
REMARK                            x       y       z     vdW  Elec       q    Type
REMARK                         _______ _______ _______ _____ _____    ______ ____
ROOT
ATOM      1  N   UNL     1      31.721 -22.811 -16.812  0.00  0.00    -0.224 N 
ATOM      2  N   UNL     1      32.987 -23.872 -15.056  0.00  0.00    -0.321 NA
ATOM      3  N   UNL     1      33.915 -24.951 -13.199  0.00  0.00    -0.247 N 
ATOM      4  N   UNL     1      31.589 -24.685 -13.235  0.00  0.00    -0.170 NA
ATOM      5  C   UNL     1      31.835 -23.457 -15.610  0.00  0.00    +0.206 C 
ATOM      6  C   UNL     1      30.559 -23.603 -15.080  0.00  0.00    +0.067 C 
ATOM      7  C   UNL     1      30.401 -22.540 -17.063  0.00  0.00    +0.073 C 
ATOM      8  C   UNL     1      29.656 -23.020 -16.006  0.00  0.00    +0.022 C 
ATOM      9  C   UNL     1      32.764 -24.475 -13.870  0.00  0.00    +0.150 C 
ATOM     10  C   UNL     1      30.464 -24.245 -13.845  0.00  0.00    +0.116 C 
ATOM     11  H   UNL     1      33.720 -25.386 -12.337  0.00  0.00    +0.165 HD
ATOM     12  N   UNL     1      34.021 -22.808 -17.270  0.00  0.00    -0.228 NA
ATOM     13  C   UNL     1      32.777 -22.472 -17.661  0.00  0.00    +0.141 C 
ATOM     14  C   UNL     1      32.471 -21.819 -18.838  0.00  0.00    +0.035 C 
ATOM     15  C   UNL     1      33.526 -21.485 -19.681  0.00  0.00    +0.004 C 
ATOM     16  C   UNL     1      35.020 -22.468 -18.114  0.00  0.00    +0.100 C 
ATOM     17  C   UNL     1      34.828 -21.812 -19.318  0.00  0.00    +0.021 C 
ENDROOT
BRANCH   3  18
ATOM     18  C   UNL     1      35.283 -24.923 -13.522  0.00  0.00    +0.064 C 
ATOM     19  C   UNL     1      36.145 -24.053 -12.850  0.00  0.00    +0.055 C 
ATOM     20  C   UNL     1      35.785 -25.766 -14.517  0.00  0.00    +0.055 C 
ATOM     21  C   UNL     1      37.142 -25.738 -14.838  0.00  0.00    +0.177 C 
ATOM     22  C   UNL     1      37.502 -24.025 -13.171  0.00  0.00    +0.177 C 
ATOM     23  C   UNL     1      38.001 -24.869 -14.165  0.00  0.00    +0.206 C 
BRANCH  21  24
ATOM     24  O   UNL     1      37.618 -26.566 -15.810  0.00  0.00    -0.468 OA
ATOM     25  C   UNL     1      36.714 -27.539 -16.330  0.00  0.00    +0.253 C 
ENDBRANCH  21  24
BRANCH  22  26
ATOM     26  O   UNL     1      38.330 -23.172 -12.506  0.00  0.00    -0.468 OA
ATOM     27  C   UNL     1      37.772 -22.449 -11.411  0.00  0.00    +0.253 C 
ENDBRANCH  22  26
BRANCH  23  28
ATOM     28  O   UNL     1      39.328 -24.842 -14.479  0.00  0.00    -0.465 OA
ATOM     29  C   UNL     1      40.168 -25.785 -13.816  0.00  0.00    +0.253 C 
ENDBRANCH  23  28
ENDBRANCH   3  18
TORSDOF 4
ENDMDL
MODEL 9
REMARK VINA RESULT:      -8.2      1.069      2.610
REMARK  Name = 11957393
REMARK  4 active torsions:
REMARK  status: ('A' for Active; 'I' for Inactive)
REMARK    1  A    between atoms: N_3  and  C_18
REMARK    2  A    between atoms: C_21  and  O_24
REMARK    3  A    between atoms: C_22  and  O_26
REMARK    4  A    between atoms: C_23  and  O_28
REMARK                            x       y       z     vdW  Elec       q    Type
REMARK                         _______ _______ _______ _____ _____    ______ ____
ROOT
ATOM      1  N   UNL     1      33.006  -9.250 -22.677  0.00  0.00    -0.224 N 
ATOM      2  N   UNL     1      32.691 -11.553 -22.038  0.00  0.00    -0.321 NA
ATOM      3  N   UNL     1      32.186 -13.665 -21.170  0.00  0.00    -0.247 N 
ATOM      4  N   UNL     1      31.233 -11.812 -20.105  0.00  0.00    -0.170 NA
ATOM      5  C   UNL     1      32.476 -10.235 -21.887  0.00  0.00    +0.206 C 
ATOM      6  C   UNL     1      31.688  -9.628 -20.917  0.00  0.00    +0.067 C 
ATOM      7  C   UNL     1      32.573  -8.026 -22.235  0.00  0.00    +0.073 C 
ATOM      8  C   UNL     1      31.755  -8.229 -21.144  0.00  0.00    +0.022 C 
ATOM      9  C   UNL     1      32.027 -12.262 -21.101  0.00  0.00    +0.150 C 
ATOM     10  C   UNL     1      31.056 -10.474 -20.006  0.00  0.00    +0.116 C 
ATOM     11  H   UNL     1      31.690 -14.155 -20.474  0.00  0.00    +0.165 HD
ATOM     12  N   UNL     1      34.189 -10.714 -24.076  0.00  0.00    -0.228 NA
ATOM     13  C   UNL     1      33.856  -9.446 -23.768  0.00  0.00    +0.141 C 
ATOM     14  C   UNL     1      34.293  -8.329 -24.451  0.00  0.00    +0.035 C 
ATOM     15  C   UNL     1      35.138  -8.529 -25.537  0.00  0.00    +0.004 C 
ATOM     16  C   UNL     1      35.012 -10.870 -25.137  0.00  0.00    +0.100 C 
ATOM     17  C   UNL     1      35.510  -9.821 -25.892  0.00  0.00    +0.021 C 
ENDROOT
BRANCH   3  18
ATOM     18  C   UNL     1      32.913 -14.499 -22.038  0.00  0.00    +0.064 C 
ATOM     19  C   UNL     1      33.571 -15.627 -21.540  0.00  0.00    +0.055 C 
ATOM     20  C   UNL     1      32.981 -14.203 -23.402  0.00  0.00    +0.055 C 
ATOM     21  C   UNL     1      33.703 -15.029 -24.262  0.00  0.00    +0.177 C 
ATOM     22  C   UNL     1      34.294 -16.453 -22.401  0.00  0.00    +0.177 C 
ATOM     23  C   UNL     1      34.359 -16.155 -23.763  0.00  0.00    +0.206 C 
BRANCH  21  24
ATOM     24  O   UNL     1      33.760 -14.727 -25.590  0.00  0.00    -0.468 OA
ATOM     25  C   UNL     1      32.523 -14.688 -26.298  0.00  0.00    +0.253 C 
ENDBRANCH  21  24
BRANCH  22  26
ATOM     26  O   UNL     1      34.929 -17.549 -21.900  0.00  0.00    -0.468 OA
ATOM     27  C   UNL     1      34.113 -18.554 -21.301  0.00  0.00    +0.253 C 
ENDBRANCH  22  26
BRANCH  23  28
ATOM     28  O   UNL     1      35.064 -16.963 -24.604  0.00  0.00    -0.465 OA
ATOM     29  C   UNL     1      34.386 -18.104 -25.125  0.00  0.00    +0.253 C 
ENDBRANCH  23  28
ENDBRANCH   3  18
TORSDOF 4
ENDMDL
