MODEL 1
REMARK VINA RESULT:      -9.0      0.000      0.000
REMARK  Name = 9843750
REMARK  6 active torsions:
REMARK  status: ('A' for Active; 'I' for Inactive)
REMARK    1  A    between atoms: N_2  and  C_7
REMARK    2  A    between atoms: C_3  and  C_18
REMARK    3  A    between atoms: C_18  and  N_21
REMARK    4  A    between atoms: C_22  and  C_24
REMARK    5  A    between atoms: C_24  and  C_25
REMARK    6  A    between atoms: C_24  and  O_28
REMARK                            x       y       z     vdW  Elec       q    Type
REMARK                         _______ _______ _______ _____ _____    ______ ____
ROOT
ATOM      1  O   UNL     1      34.585 -11.716 -25.812  0.00  0.00    -0.273 OA
ATOM      2  N   UNL     1      33.839 -12.611 -23.806  0.00  0.00    -0.294 N 
ATOM      3  C   UNL     1      34.059 -11.583 -24.710  0.00  0.00    +0.241 C 
ATOM      4  H   UNL     1      33.408 -12.402 -22.946  0.00  0.00    +0.150 HD
ENDROOT
BRANCH   2   7
ATOM      5  O   UNL     1      32.022 -13.997 -25.084  0.00  0.00    -0.273 OA
ATOM      6  N   UNL     1      33.516 -15.632 -25.765  0.00  0.00    -0.276 N 
ATOM      7  C   UNL     1      34.217 -13.982 -24.078  0.00  0.00    +0.171 C 
ATOM      8  C   UNL     1      34.398 -14.853 -22.846  0.00  0.00    +0.000 C 
ATOM      9  C   UNL     1      34.825 -17.036 -24.222  0.00  0.00    +0.048 C 
ATOM     10  C   UNL     1      34.694 -16.234 -22.940  0.00  0.00    -0.022 C 
ATOM     11  C   UNL     1      34.794 -16.305 -25.559  0.00  0.00    +0.098 C 
ATOM     12  C   UNL     1      33.140 -14.512 -25.022  0.00  0.00    +0.248 C 
ATOM     13  C   UNL     1      34.321 -14.278 -21.558  0.00  0.00    -0.003 C 
ATOM     14  C   UNL     1      34.867 -16.980 -21.752  0.00  0.00    -0.004 C 
ATOM     15  C   UNL     1      32.574 -16.264 -26.679  0.00  0.00    +0.115 C 
ATOM     16  C   UNL     1      34.502 -15.035 -20.399  0.00  0.00    -0.000 C 
ATOM     17  C   UNL     1      34.773 -16.389 -20.495  0.00  0.00    -0.000 C 
ENDBRANCH   2   7
BRANCH   3  18
ATOM     18  C   UNL     1      33.524 -10.252 -24.198  0.00  0.00    +0.149 C 
ATOM     19  C   UNL     1      34.661  -9.290 -23.891  0.00  0.00    +0.031 C 
BRANCH  18  21
ATOM     20  O   UNL     1      31.179  -8.806 -23.309  0.00  0.00    -0.272 OA
ATOM     21  N   UNL     1      32.728 -10.513 -23.027  0.00  0.00    -0.296 N 
ATOM     22  C   UNL     1      31.613  -9.765 -22.674  0.00  0.00    +0.250 C 
ATOM     23  H   UNL     1      32.990 -11.264 -22.444  0.00  0.00    +0.150 HD
BRANCH  22  24
ATOM     24  C   UNL     1      30.969 -10.241 -21.375  0.00  0.00    +0.186 C 
BRANCH  24  25
ATOM     25  C   UNL     1      31.913 -10.082 -20.165  0.00  0.00    +0.036 C 
ATOM     26  C   UNL     1      31.347 -10.724 -18.892  0.00  0.00    +0.003 C 
ATOM     27  C   UNL     1      32.199  -8.600 -19.899  0.00  0.00    +0.003 C 
ENDBRANCH  24  25
BRANCH  24  28
ATOM     28  O   UNL     1      30.587 -11.600 -21.522  0.00  0.00    -0.376 OA
ATOM     29  H   UNL     1      31.304 -12.092 -21.951  0.00  0.00    +0.211 HD
ENDBRANCH  24  28
ENDBRANCH  22  24
ENDBRANCH  18  21
ENDBRANCH   3  18
TORSDOF 6
ENDMDL
MODEL 2
REMARK VINA RESULT:      -8.7      3.033      7.279
REMARK  Name = 9843750
REMARK  6 active torsions:
REMARK  status: ('A' for Active; 'I' for Inactive)
REMARK    1  A    between atoms: N_2  and  C_7
REMARK    2  A    between atoms: C_3  and  C_18
REMARK    3  A    between atoms: C_18  and  N_21
REMARK    4  A    between atoms: C_22  and  C_24
REMARK    5  A    between atoms: C_24  and  C_25
REMARK    6  A    between atoms: C_24  and  O_28
REMARK                            x       y       z     vdW  Elec       q    Type
REMARK                         _______ _______ _______ _____ _____    ______ ____
ROOT
ATOM      1  O   UNL     1      35.122 -15.287 -22.695  0.00  0.00    -0.273 OA
ATOM      2  N   UNL     1      33.112 -14.142 -22.510  0.00  0.00    -0.294 N 
ATOM      3  C   UNL     1      33.968 -15.208 -22.279  0.00  0.00    +0.241 C 
ATOM      4  H   UNL     1      32.204 -14.172 -22.132  0.00  0.00    +0.150 HD
ENDROOT
BRANCH   2   7
ATOM      5  O   UNL     1      31.524 -12.079 -22.237  0.00  0.00    -0.273 OA
ATOM      6  N   UNL     1      33.078 -10.568 -23.056  0.00  0.00    -0.276 N 
ATOM      7  C   UNL     1      33.503 -12.983 -23.285  0.00  0.00    +0.171 C 
ATOM      8  C   UNL     1      33.440 -13.169 -24.792  0.00  0.00    +0.000 C 
ATOM      9  C   UNL     1      34.058 -10.682 -25.314  0.00  0.00    +0.048 C 
ATOM     10  C   UNL     1      33.717 -12.112 -25.692  0.00  0.00    -0.022 C 
ATOM     11  C   UNL     1      34.283 -10.337 -23.846  0.00  0.00    +0.098 C 
ATOM     12  C   UNL     1      32.601 -11.853 -22.793  0.00  0.00    +0.248 C 
ATOM     13  C   UNL     1      33.146 -14.440 -25.334  0.00  0.00    -0.003 C 
ATOM     14  C   UNL     1      33.658 -12.362 -27.081  0.00  0.00    -0.004 C 
ATOM     15  C   UNL     1      32.302  -9.397 -22.674  0.00  0.00    +0.115 C 
ATOM     16  C   UNL     1      33.099 -14.663 -26.711  0.00  0.00    -0.000 C 
ATOM     17  C   UNL     1      33.353 -13.621 -27.587  0.00  0.00    -0.000 C 
ENDBRANCH   2   7
BRANCH   3  18
ATOM     18  C   UNL     1      33.327 -16.271 -21.396  0.00  0.00    +0.149 C 
ATOM     19  C   UNL     1      32.758 -15.655 -20.128  0.00  0.00    +0.031 C 
BRANCH  18  21
ATOM     20  O   UNL     1      33.973 -18.640 -22.929  0.00  0.00    -0.272 OA
ATOM     21  N   UNL     1      34.329 -17.260 -21.094  0.00  0.00    -0.296 N 
ATOM     22  C   UNL     1      34.573 -18.373 -21.890  0.00  0.00    +0.250 C 
ATOM     23  H   UNL     1      34.870 -17.142 -20.280  0.00  0.00    +0.150 HD
BRANCH  22  24
ATOM     24  C   UNL     1      35.670 -19.270 -21.328  0.00  0.00    +0.186 C 
BRANCH  24  25
ATOM     25  C   UNL     1      35.111 -20.599 -20.777  0.00  0.00    +0.036 C 
ATOM     26  C   UNL     1      33.707 -20.443 -20.180  0.00  0.00    +0.003 C 
ATOM     27  C   UNL     1      36.052 -21.177 -19.713  0.00  0.00    +0.003 C 
ENDBRANCH  24  25
BRANCH  24  28
ATOM     28  O   UNL     1      36.360 -18.569 -20.305  0.00  0.00    -0.376 OA
ATOM     29  H   UNL     1      37.023 -19.152 -19.904  0.00  0.00    +0.211 HD
ENDBRANCH  24  28
ENDBRANCH  22  24
ENDBRANCH  18  21
ENDBRANCH   3  18
TORSDOF 6
ENDMDL
MODEL 3
REMARK VINA RESULT:      -8.5      1.950      6.161
REMARK  Name = 9843750
REMARK  6 active torsions:
REMARK  status: ('A' for Active; 'I' for Inactive)
REMARK    1  A    between atoms: N_2  and  C_7
REMARK    2  A    between atoms: C_3  and  C_18
REMARK    3  A    between atoms: C_18  and  N_21
REMARK    4  A    between atoms: C_22  and  C_24
REMARK    5  A    between atoms: C_24  and  C_25
REMARK    6  A    between atoms: C_24  and  O_28
REMARK                            x       y       z     vdW  Elec       q    Type
REMARK                         _______ _______ _______ _____ _____    ______ ____
ROOT
ATOM      1  O   UNL     1      33.087 -11.918 -26.179  0.00  0.00    -0.273 OA
ATOM      2  N   UNL     1      33.172 -12.334 -23.898  0.00  0.00    -0.294 N 
ATOM      3  C   UNL     1      33.310 -12.673 -25.235  0.00  0.00    +0.241 C 
ATOM      4  H   UNL     1      33.376 -13.011 -23.213  0.00  0.00    +0.150 HD
ENDROOT
BRANCH   2   7
ATOM      5  O   UNL     1      35.073 -10.534 -23.861  0.00  0.00    -0.273 OA
ATOM      6  N   UNL     1      33.601  -8.744 -23.844  0.00  0.00    -0.276 N 
ATOM      7  C   UNL     1      32.741 -11.021 -23.467  0.00  0.00    +0.171 C 
ATOM      8  C   UNL     1      32.272 -10.941 -22.024  0.00  0.00    +0.000 C 
ATOM      9  C   UNL     1      31.927  -8.349 -22.081  0.00  0.00    +0.048 C 
ATOM     10  C   UNL     1      31.888  -9.718 -21.424  0.00  0.00    -0.022 C 
ATOM     11  C   UNL     1      32.257  -8.249 -23.565  0.00  0.00    +0.098 C 
ATOM     12  C   UNL     1      33.925 -10.099 -23.754  0.00  0.00    +0.248 C 
ATOM     13  C   UNL     1      32.161 -12.120 -21.252  0.00  0.00    -0.003 C 
ATOM     14  C   UNL     1      31.445  -9.721 -20.083  0.00  0.00    -0.004 C 
ATOM     15  C   UNL     1      34.638  -7.750 -24.078  0.00  0.00    +0.115 C 
ATOM     16  C   UNL     1      31.715 -12.098 -19.930  0.00  0.00    -0.000 C 
ATOM     17  C   UNL     1      31.358 -10.896 -19.343  0.00  0.00    -0.000 C 
ENDBRANCH   2   7
BRANCH   3  18
ATOM     18  C   UNL     1      33.823 -14.096 -25.411  0.00  0.00    +0.149 C 
ATOM     19  C   UNL     1      33.003 -14.845 -26.449  0.00  0.00    +0.031 C 
BRANCH  18  21
ATOM     20  O   UNL     1      35.043 -16.615 -24.671  0.00  0.00    -0.272 OA
ATOM     21  N   UNL     1      33.768 -14.750 -24.129  0.00  0.00    -0.296 N 
ATOM     22  C   UNL     1      34.387 -15.965 -23.861  0.00  0.00    +0.250 C 
ATOM     23  H   UNL     1      33.266 -14.312 -23.404  0.00  0.00    +0.150 HD
BRANCH  22  24
ATOM     24  C   UNL     1      34.151 -16.443 -22.431  0.00  0.00    +0.186 C 
BRANCH  24  25
ATOM     25  C   UNL     1      33.577 -15.329 -21.531  0.00  0.00    +0.036 C 
ATOM     26  C   UNL     1      34.599 -14.813 -20.511  0.00  0.00    +0.003 C 
ATOM     27  C   UNL     1      32.331 -15.827 -20.790  0.00  0.00    +0.003 C 
ENDBRANCH  24  25
BRANCH  24  28
ATOM     28  O   UNL     1      35.376 -16.921 -21.897  0.00  0.00    -0.376 OA
ATOM     29  H   UNL     1      35.225 -17.268 -21.004  0.00  0.00    +0.211 HD
ENDBRANCH  24  28
ENDBRANCH  22  24
ENDBRANCH  18  21
ENDBRANCH   3  18
TORSDOF 6
ENDMDL
MODEL 4
REMARK VINA RESULT:      -8.3     12.387     15.417
REMARK  Name = 9843750
REMARK  6 active torsions:
REMARK  status: ('A' for Active; 'I' for Inactive)
REMARK    1  A    between atoms: N_2  and  C_7
REMARK    2  A    between atoms: C_3  and  C_18
REMARK    3  A    between atoms: C_18  and  N_21
REMARK    4  A    between atoms: C_22  and  C_24
REMARK    5  A    between atoms: C_24  and  C_25
REMARK    6  A    between atoms: C_24  and  O_28
REMARK                            x       y       z     vdW  Elec       q    Type
REMARK                         _______ _______ _______ _____ _____    ______ ____
ROOT
ATOM      1  O   UNL     1      33.453 -23.202 -11.847  0.00  0.00    -0.273 OA
ATOM      2  N   UNL     1      33.897 -24.201 -13.893  0.00  0.00    -0.294 N 
ATOM      3  C   UNL     1      34.141 -23.935 -12.555  0.00  0.00    +0.241 C 
ATOM      4  H   UNL     1      34.509 -24.804 -14.376  0.00  0.00    +0.150 HD
ENDROOT
BRANCH   2   7
ATOM      5  O   UNL     1      31.926 -25.870 -14.324  0.00  0.00    -0.273 OA
ATOM      6  N   UNL     1      30.386 -24.193 -14.751  0.00  0.00    -0.276 N 
ATOM      7  C   UNL     1      32.778 -23.629 -14.611  0.00  0.00    +0.171 C 
ATOM      8  C   UNL     1      33.082 -23.203 -16.038  0.00  0.00    +0.000 C 
ATOM      9  C   UNL     1      30.607 -22.544 -16.568  0.00  0.00    +0.048 C 
ATOM     10  C   UNL     1      32.081 -22.694 -16.900  0.00  0.00    -0.022 C 
ATOM     11  C   UNL     1      30.138 -22.809 -15.142  0.00  0.00    +0.098 C 
ATOM     12  C   UNL     1      31.674 -24.682 -14.533  0.00  0.00    +0.248 C 
ATOM     13  C   UNL     1      34.407 -23.263 -16.525  0.00  0.00    -0.003 C 
ATOM     14  C   UNL     1      32.439 -22.300 -18.209  0.00  0.00    -0.004 C 
ATOM     15  C   UNL     1      29.241 -25.093 -14.741  0.00  0.00    +0.115 C 
ATOM     16  C   UNL     1      34.737 -22.862 -17.821  0.00  0.00    -0.000 C 
ATOM     17  C   UNL     1      33.750 -22.382 -18.666  0.00  0.00    -0.000 C 
ENDBRANCH   2   7
BRANCH   3  18
ATOM     18  C   UNL     1      35.350 -24.700 -12.033  0.00  0.00    +0.149 C 
ATOM     19  C   UNL     1      36.088 -23.896 -10.975  0.00  0.00    +0.031 C 
BRANCH  18  21
ATOM     20  O   UNL     1      37.286 -26.842 -12.243  0.00  0.00    -0.272 OA
ATOM     21  N   UNL     1      36.204 -24.999 -13.154  0.00  0.00    -0.296 N 
ATOM     22  C   UNL     1      37.109 -26.053 -13.168  0.00  0.00    +0.250 C 
ATOM     23  H   UNL     1      36.142 -24.426 -13.952  0.00  0.00    +0.150 HD
BRANCH  22  24
ATOM     24  C   UNL     1      37.904 -26.129 -14.468  0.00  0.00    +0.186 C 
BRANCH  24  25
ATOM     25  C   UNL     1      38.937 -24.989 -14.589  0.00  0.00    +0.036 C 
ATOM     26  C   UNL     1      38.497 -23.901 -15.577  0.00  0.00    +0.003 C 
ATOM     27  C   UNL     1      40.299 -25.543 -15.020  0.00  0.00    +0.003 C 
ENDBRANCH  24  25
BRANCH  24  28
ATOM     28  O   UNL     1      37.001 -26.089 -15.563  0.00  0.00    -0.376 OA
ATOM     29  H   UNL     1      37.473 -25.801 -16.360  0.00  0.00    +0.211 HD
ENDBRANCH  24  28
ENDBRANCH  22  24
ENDBRANCH  18  21
ENDBRANCH   3  18
TORSDOF 6
ENDMDL
MODEL 5
REMARK VINA RESULT:      -8.1      3.964      7.193
REMARK  Name = 9843750
REMARK  6 active torsions:
REMARK  status: ('A' for Active; 'I' for Inactive)
REMARK    1  A    between atoms: N_2  and  C_7
REMARK    2  A    between atoms: C_3  and  C_18
REMARK    3  A    between atoms: C_18  and  N_21
REMARK    4  A    between atoms: C_22  and  C_24
REMARK    5  A    between atoms: C_24  and  C_25
REMARK    6  A    between atoms: C_24  and  O_28
REMARK                            x       y       z     vdW  Elec       q    Type
REMARK                         _______ _______ _______ _____ _____    ______ ____
ROOT
ATOM      1  O   UNL     1      30.431  -7.272 -23.925  0.00  0.00    -0.273 OA
ATOM      2  N   UNL     1      32.025  -7.627 -22.276  0.00  0.00    -0.294 N 
ATOM      3  C   UNL     1      31.316  -6.852 -23.181  0.00  0.00    +0.241 C 
ATOM      4  H   UNL     1      32.716  -7.196 -21.723  0.00  0.00    +0.150 HD
ENDROOT
BRANCH   2   7
ATOM      5  O   UNL     1      32.572  -8.539 -19.884  0.00  0.00    -0.273 OA
ATOM      6  N   UNL     1      31.323 -10.471 -20.158  0.00  0.00    -0.276 N 
ATOM      7  C   UNL     1      31.788  -9.045 -22.111  0.00  0.00    +0.171 C 
ATOM      8  C   UNL     1      32.680  -9.946 -22.949  0.00  0.00    +0.000 C 
ATOM      9  C   UNL     1      31.751 -12.156 -21.904  0.00  0.00    +0.048 C 
ATOM     10  C   UNL     1      32.629 -11.358 -22.850  0.00  0.00    -0.022 C 
ATOM     11  C   UNL     1      30.703 -11.426 -21.071  0.00  0.00    +0.098 C 
ATOM     12  C   UNL     1      31.934  -9.301 -20.612  0.00  0.00    +0.248 C 
ATOM     13  C   UNL     1      33.562  -9.381 -23.898  0.00  0.00    -0.003 C 
ATOM     14  C   UNL     1      33.475 -12.134 -23.673  0.00  0.00    -0.004 C 
ATOM     15  C   UNL     1      31.414 -10.857 -18.757  0.00  0.00    +0.115 C 
ATOM     16  C   UNL     1      34.384 -10.169 -24.704  0.00  0.00    -0.000 C 
ATOM     17  C   UNL     1      34.343 -11.549 -24.590  0.00  0.00    -0.000 C 
ENDBRANCH   2   7
BRANCH   3  18
ATOM     18  C   UNL     1      31.726  -5.387 -23.121  0.00  0.00    +0.149 C 
ATOM     19  C   UNL     1      30.820  -4.606 -22.183  0.00  0.00    +0.031 C 
BRANCH  18  21
ATOM     20  O   UNL     1      33.632  -5.827 -25.255  0.00  0.00    -0.272 OA
ATOM     21  N   UNL     1      31.677  -4.856 -24.458  0.00  0.00    -0.296 N 
ATOM     22  C   UNL     1      32.640  -5.120 -25.424  0.00  0.00    +0.250 C 
ATOM     23  H   UNL     1      30.920  -4.275 -24.701  0.00  0.00    +0.150 HD
BRANCH  22  24
ATOM     24  C   UNL     1      32.358  -4.414 -26.747  0.00  0.00    +0.186 C 
BRANCH  24  25
ATOM     25  C   UNL     1      33.576  -4.439 -27.693  0.00  0.00    +0.036 C 
ATOM     26  C   UNL     1      34.512  -3.244 -27.477  0.00  0.00    +0.003 C 
ATOM     27  C   UNL     1      33.119  -4.465 -29.156  0.00  0.00    +0.003 C 
ENDBRANCH  24  25
BRANCH  24  28
ATOM     28  O   UNL     1      31.973  -3.074 -26.480  0.00  0.00    -0.376 OA
ATOM     29  H   UNL     1      31.007  -3.004 -26.511  0.00  0.00    +0.211 HD
ENDBRANCH  24  28
ENDBRANCH  22  24
ENDBRANCH  18  21
ENDBRANCH   3  18
TORSDOF 6
ENDMDL
MODEL 6
REMARK VINA RESULT:      -8.1     11.074     13.565
REMARK  Name = 9843750
REMARK  6 active torsions:
REMARK  status: ('A' for Active; 'I' for Inactive)
REMARK    1  A    between atoms: N_2  and  C_7
REMARK    2  A    between atoms: C_3  and  C_18
REMARK    3  A    between atoms: C_18  and  N_21
REMARK    4  A    between atoms: C_22  and  C_24
REMARK    5  A    between atoms: C_24  and  C_25
REMARK    6  A    between atoms: C_24  and  O_28
REMARK                            x       y       z     vdW  Elec       q    Type
REMARK                         _______ _______ _______ _____ _____    ______ ____
ROOT
ATOM      1  O   UNL     1      32.619 -22.120 -13.858  0.00  0.00    -0.273 OA
ATOM      2  N   UNL     1      33.246 -23.712 -15.425  0.00  0.00    -0.294 N 
ATOM      3  C   UNL     1      32.383 -23.139 -14.504  0.00  0.00    +0.241 C 
ATOM      4  H   UNL     1      32.964 -24.532 -15.892  0.00  0.00    +0.150 HD
ENDROOT
BRANCH   2   7
ATOM      5  O   UNL     1      33.828 -23.664 -17.977  0.00  0.00    -0.273 OA
ATOM      6  N   UNL     1      35.508 -22.088 -17.729  0.00  0.00    -0.276 N 
ATOM      7  C   UNL     1      34.546 -23.152 -15.729  0.00  0.00    +0.171 C 
ATOM      8  C   UNL     1      35.727 -23.950 -15.202  0.00  0.00    +0.000 C 
ATOM      9  C   UNL     1      37.513 -22.413 -16.335  0.00  0.00    +0.048 C 
ATOM     10  C   UNL     1      37.066 -23.581 -15.475  0.00  0.00    -0.022 C 
ATOM     11  C   UNL     1      36.469 -21.429 -16.850  0.00  0.00    +0.098 C 
ATOM     12  C   UNL     1      34.568 -23.000 -17.248  0.00  0.00    +0.248 C 
ATOM     13  C   UNL     1      35.506 -25.072 -14.371  0.00  0.00    -0.003 C 
ATOM     14  C   UNL     1      38.115 -24.359 -14.937  0.00  0.00    -0.004 C 
ATOM     15  C   UNL     1      35.663 -21.870 -19.161  0.00  0.00    +0.115 C 
ATOM     16  C   UNL     1      36.559 -25.821 -13.846  0.00  0.00    -0.000 C 
ATOM     17  C   UNL     1      37.867 -25.467 -14.132  0.00  0.00    -0.000 C 
ENDBRANCH   2   7
BRANCH   3  18
ATOM     18  C   UNL     1      31.066 -23.898 -14.409  0.00  0.00    +0.149 C 
ATOM     19  C   UNL     1      31.306 -25.396 -14.320  0.00  0.00    +0.031 C 
BRANCH  18  21
ATOM     20  O   UNL     1      28.328 -24.666 -14.948  0.00  0.00    -0.272 OA
ATOM     21  N   UNL     1      30.276 -23.561 -15.565  0.00  0.00    -0.296 N 
ATOM     22  C   UNL     1      28.961 -23.975 -15.742  0.00  0.00    +0.250 C 
ATOM     23  H   UNL     1      30.689 -23.007 -16.266  0.00  0.00    +0.150 HD
BRANCH  22  24
ATOM     24  C   UNL     1      28.367 -23.499 -17.064  0.00  0.00    +0.186 C 
BRANCH  24  25
ATOM     25  C   UNL     1      27.575 -22.183 -16.906  0.00  0.00    +0.036 C 
ATOM     26  C   UNL     1      26.754 -22.144 -15.612  0.00  0.00    +0.003 C 
ATOM     27  C   UNL     1      26.642 -21.972 -18.103  0.00  0.00    +0.003 C 
ENDBRANCH  24  25
BRANCH  24  28
ATOM     28  O   UNL     1      27.525 -24.516 -17.584  0.00  0.00    -0.376 OA
ATOM     29  H   UNL     1      27.987 -25.368 -17.547  0.00  0.00    +0.211 HD
ENDBRANCH  24  28
ENDBRANCH  22  24
ENDBRANCH  18  21
ENDBRANCH   3  18
TORSDOF 6
ENDMDL
MODEL 7
REMARK VINA RESULT:      -8.0      2.235      7.330
REMARK  Name = 9843750
REMARK  6 active torsions:
REMARK  status: ('A' for Active; 'I' for Inactive)
REMARK    1  A    between atoms: N_2  and  C_7
REMARK    2  A    between atoms: C_3  and  C_18
REMARK    3  A    between atoms: C_18  and  N_21
REMARK    4  A    between atoms: C_22  and  C_24
REMARK    5  A    between atoms: C_24  and  C_25
REMARK    6  A    between atoms: C_24  and  O_28
REMARK                            x       y       z     vdW  Elec       q    Type
REMARK                         _______ _______ _______ _____ _____    ______ ____
ROOT
ATOM      1  O   UNL     1      35.165  -9.549 -23.924  0.00  0.00    -0.273 OA
ATOM      2  N   UNL     1      33.012 -10.164 -23.318  0.00  0.00    -0.294 N 
ATOM      3  C   UNL     1      34.196 -10.298 -24.026  0.00  0.00    +0.241 C 
ATOM      4  H   UNL     1      32.291 -10.818 -23.470  0.00  0.00    +0.150 HD
ENDROOT
BRANCH   2   7
ATOM      5  O   UNL     1      31.322 -10.764 -21.410  0.00  0.00    -0.273 OA
ATOM      6  N   UNL     1      32.039  -9.056 -20.017  0.00  0.00    -0.276 N 
ATOM      7  C   UNL     1      32.792  -9.100 -22.361  0.00  0.00    +0.171 C 
ATOM      8  C   UNL     1      32.124  -7.858 -22.926  0.00  0.00    +0.000 C 
ATOM      9  C   UNL     1      31.950  -6.666 -20.604  0.00  0.00    +0.048 C 
ATOM     10  C   UNL     1      31.771  -6.756 -22.109  0.00  0.00    -0.022 C 
ATOM     11  C   UNL     1      32.713  -7.770 -19.881  0.00  0.00    +0.098 C 
ATOM     12  C   UNL     1      31.986  -9.741 -21.232  0.00  0.00    +0.248 C 
ATOM     13  C   UNL     1      31.883  -7.756 -24.314  0.00  0.00    -0.003 C 
ATOM     14  C   UNL     1      31.169  -5.626 -22.705  0.00  0.00    -0.004 C 
ATOM     15  C   UNL     1      31.288  -9.536 -18.865  0.00  0.00    +0.115 C 
ATOM     16  C   UNL     1      31.292  -6.625 -24.881  0.00  0.00    -0.000 C 
ATOM     17  C   UNL     1      30.932  -5.558 -24.074  0.00  0.00    -0.000 C 
ENDBRANCH   2   7
BRANCH   3  18
ATOM     18  C   UNL     1      34.184 -11.525 -24.927  0.00  0.00    +0.149 C 
ATOM     19  C   UNL     1      32.943 -11.543 -25.806  0.00  0.00    +0.031 C 
BRANCH  18  21
ATOM     20  O   UNL     1      33.462 -14.237 -25.635  0.00  0.00    -0.272 OA
ATOM     21  N   UNL     1      34.249 -12.694 -24.088  0.00  0.00    -0.296 N 
ATOM     22  C   UNL     1      33.880 -13.964 -24.512  0.00  0.00    +0.250 C 
ATOM     23  H   UNL     1      34.572 -12.586 -23.164  0.00  0.00    +0.150 HD
BRANCH  22  24
ATOM     24  C   UNL     1      34.025 -15.016 -23.417  0.00  0.00    +0.186 C 
BRANCH  24  25
ATOM     25  C   UNL     1      33.870 -14.413 -22.005  0.00  0.00    +0.036 C 
ATOM     26  C   UNL     1      34.600 -15.232 -20.934  0.00  0.00    +0.003 C 
ATOM     27  C   UNL     1      32.388 -14.299 -21.630  0.00  0.00    +0.003 C 
ENDBRANCH  24  25
BRANCH  24  28
ATOM     28  O   UNL     1      35.292 -15.643 -23.545  0.00  0.00    -0.376 OA
ATOM     29  H   UNL     1      35.833 -15.438 -22.767  0.00  0.00    +0.211 HD
ENDBRANCH  24  28
ENDBRANCH  22  24
ENDBRANCH  18  21
ENDBRANCH   3  18
TORSDOF 6
ENDMDL
MODEL 8
REMARK VINA RESULT:      -7.9      2.396      4.777
REMARK  Name = 9843750
REMARK  6 active torsions:
REMARK  status: ('A' for Active; 'I' for Inactive)
REMARK    1  A    between atoms: N_2  and  C_7
REMARK    2  A    between atoms: C_3  and  C_18
REMARK    3  A    between atoms: C_18  and  N_21
REMARK    4  A    between atoms: C_22  and  C_24
REMARK    5  A    between atoms: C_24  and  C_25
REMARK    6  A    between atoms: C_24  and  O_28
REMARK                            x       y       z     vdW  Elec       q    Type
REMARK                         _______ _______ _______ _____ _____    ______ ____
ROOT
ATOM      1  O   UNL     1      30.676 -11.249 -22.332  0.00  0.00    -0.273 OA
ATOM      2  N   UNL     1      32.992 -11.298 -22.456  0.00  0.00    -0.294 N 
ATOM      3  C   UNL     1      31.780 -10.961 -21.874  0.00  0.00    +0.241 C 
ATOM      4  H   UNL     1      33.826 -11.020 -22.010  0.00  0.00    +0.150 HD
ENDROOT
BRANCH   2   7
ATOM      5  O   UNL     1      34.078 -13.667 -22.209  0.00  0.00    -0.273 OA
ATOM      6  N   UNL     1      33.230 -14.444 -24.221  0.00  0.00    -0.276 N 
ATOM      7  C   UNL     1      33.083 -12.043 -23.693  0.00  0.00    +0.171 C 
ATOM      8  C   UNL     1      34.003 -11.437 -24.741  0.00  0.00    +0.000 C 
ATOM      9  C   UNL     1      33.723 -13.430 -26.411  0.00  0.00    +0.048 C 
ATOM     10  C   UNL     1      34.260 -12.079 -25.976  0.00  0.00    -0.022 C 
ATOM     11  C   UNL     1      32.688 -14.131 -25.539  0.00  0.00    +0.098 C 
ATOM     12  C   UNL     1      33.507 -13.451 -23.280  0.00  0.00    +0.248 C 
ATOM     13  C   UNL     1      34.591 -10.172 -24.516  0.00  0.00    -0.003 C 
ATOM     14  C   UNL     1      35.112 -11.449 -26.911  0.00  0.00    -0.004 C 
ATOM     15  C   UNL     1      33.613 -15.826 -23.972  0.00  0.00    +0.115 C 
ATOM     16  C   UNL     1      35.424  -9.567 -25.458  0.00  0.00    -0.000 C 
ATOM     17  C   UNL     1      35.688 -10.208 -26.658  0.00  0.00    -0.000 C 
ENDBRANCH   2   7
BRANCH   3  18
ATOM     18  C   UNL     1      31.967 -10.221 -20.556  0.00  0.00    +0.149 C 
ATOM     19  C   UNL     1      31.153 -10.870 -19.448  0.00  0.00    +0.031 C 
BRANCH  18  21
ATOM     20  O   UNL     1      33.487  -8.140 -21.876  0.00  0.00    -0.272 OA
ATOM     21  N   UNL     1      31.578  -8.849 -20.757  0.00  0.00    -0.296 N 
ATOM     22  C   UNL     1      32.374  -7.913 -21.405  0.00  0.00    +0.250 C 
ATOM     23  H   UNL     1      30.700  -8.560 -20.418  0.00  0.00    +0.150 HD
BRANCH  22  24
ATOM     24  C   UNL     1      31.732  -6.531 -21.461  0.00  0.00    +0.186 C 
BRANCH  24  25
ATOM     25  C   UNL     1      31.836  -5.895 -22.863  0.00  0.00    +0.036 C 
ATOM     26  C   UNL     1      31.243  -4.481 -22.912  0.00  0.00    +0.003 C 
ATOM     27  C   UNL     1      31.133  -6.774 -23.903  0.00  0.00    +0.003 C 
ENDBRANCH  24  25
BRANCH  24  28
ATOM     28  O   UNL     1      32.355  -5.694 -20.497  0.00  0.00    -0.376 OA
ATOM     29  H   UNL     1      33.175  -5.332 -20.867  0.00  0.00    +0.211 HD
ENDBRANCH  24  28
ENDBRANCH  22  24
ENDBRANCH  18  21
ENDBRANCH   3  18
TORSDOF 6
ENDMDL
MODEL 9
REMARK VINA RESULT:      -7.7      2.051      3.120
REMARK  Name = 9843750
REMARK  6 active torsions:
REMARK  status: ('A' for Active; 'I' for Inactive)
REMARK    1  A    between atoms: N_2  and  C_7
REMARK    2  A    between atoms: C_3  and  C_18
REMARK    3  A    between atoms: C_18  and  N_21
REMARK    4  A    between atoms: C_22  and  C_24
REMARK    5  A    between atoms: C_24  and  C_25
REMARK    6  A    between atoms: C_24  and  O_28
REMARK                            x       y       z     vdW  Elec       q    Type
REMARK                         _______ _______ _______ _____ _____    ______ ____
ROOT
ATOM      1  O   UNL     1      34.124 -11.158 -24.830  0.00  0.00    -0.273 OA
ATOM      2  N   UNL     1      33.545 -12.554 -23.070  0.00  0.00    -0.294 N 
ATOM      3  C   UNL     1      33.632 -11.332 -23.717  0.00  0.00    +0.241 C 
ATOM      4  H   UNL     1      33.131 -12.589 -22.177  0.00  0.00    +0.150 HD
ENDROOT
BRANCH   2   7
ATOM      5  O   UNL     1      31.813 -13.792 -24.594  0.00  0.00    -0.273 OA
ATOM      6  N   UNL     1      33.423 -15.073 -25.660  0.00  0.00    -0.276 N 
ATOM      7  C   UNL     1      34.038 -13.783 -23.655  0.00  0.00    +0.171 C 
ATOM      8  C   UNL     1      34.351 -14.887 -22.658  0.00  0.00    +0.000 C 
ATOM      9  C   UNL     1      34.921 -16.650 -24.504  0.00  0.00    +0.048 C 
ATOM     10  C   UNL     1      34.770 -16.175 -23.070  0.00  0.00    -0.022 C 
ATOM     11  C   UNL     1      34.765 -15.643 -25.638  0.00  0.00    +0.098 C 
ATOM     12  C   UNL     1      32.976 -14.193 -24.673  0.00  0.00    +0.248 C 
ATOM     13  C   UNL     1      34.275 -14.628 -21.271  0.00  0.00    -0.003 C 
ATOM     14  C   UNL     1      35.062 -17.148 -22.088  0.00  0.00    -0.004 C 
ATOM     15  C   UNL     1      32.506 -15.574 -26.675  0.00  0.00    +0.115 C 
ATOM     16  C   UNL     1      34.574 -15.604 -20.320  0.00  0.00    -0.000 C 
ATOM     17  C   UNL     1      34.966 -16.868 -20.728  0.00  0.00    -0.000 C 
ENDBRANCH   2   7
BRANCH   3  18
ATOM     18  C   UNL     1      32.997 -10.211 -22.905  0.00  0.00    +0.149 C 
ATOM     19  C   UNL     1      31.511 -10.460 -22.702  0.00  0.00    +0.031 C 
BRANCH  18  21
ATOM     20  O   UNL     1      33.381  -7.589 -21.739  0.00  0.00    -0.272 OA
ATOM     21  N   UNL     1      33.230  -8.971 -23.600  0.00  0.00    -0.296 N 
ATOM     22  C   UNL     1      33.404  -7.752 -22.957  0.00  0.00    +0.250 C 
ATOM     23  H   UNL     1      33.268  -8.989 -24.584  0.00  0.00    +0.150 HD
BRANCH  22  24
ATOM     24  C   UNL     1      33.611  -6.596 -23.931  0.00  0.00    +0.186 C 
BRANCH  24  25
ATOM     25  C   UNL     1      32.309  -6.213 -24.666  0.00  0.00    +0.036 C 
ATOM     26  C   UNL     1      32.497  -5.015 -25.605  0.00  0.00    +0.003 C 
ATOM     27  C   UNL     1      31.198  -5.896 -23.659  0.00  0.00    +0.003 C 
ENDBRANCH  24  25
BRANCH  24  28
ATOM     28  O   UNL     1      34.613  -6.958 -24.868  0.00  0.00    -0.376 OA
ATOM     29  H   UNL     1      34.201  -7.397 -25.629  0.00  0.00    +0.211 HD
ENDBRANCH  24  28
ENDBRANCH  22  24
ENDBRANCH  18  21
ENDBRANCH   3  18
TORSDOF 6
ENDMDL
