MODEL 1
REMARK VINA RESULT:      -7.8      0.000      0.000
REMARK  Name = 1832
REMARK  4 active torsions:
REMARK  status: ('A' for Active; 'I' for Inactive)
REMARK    1  A    between atoms: C_2  and  C_13
REMARK    2  A    between atoms: C_8  and  O_11
REMARK    3  A    between atoms: C_13  and  C_14
REMARK    4  A    between atoms: C_14  and  N_15
REMARK                            x       y       z     vdW  Elec       q    Type
REMARK                         _______ _______ _______ _____ _____    ______ ____
ROOT
ATOM      1  N   UNL     1      32.643 -20.518 -20.627  0.00  0.00    -0.312 N 
ATOM      2  C   UNL     1      34.564 -19.585 -21.233  0.00  0.00    -0.008 C 
ATOM      3  C   UNL     1      34.831 -20.516 -20.191  0.00  0.00    +0.014 C 
ATOM      4  C   UNL     1      33.609 -21.087 -19.828  0.00  0.00    +0.048 C 
ATOM      5  C   UNL     1      33.211 -19.609 -21.479  0.00  0.00    +0.058 C 
ATOM      6  C   UNL     1      35.999 -20.930 -19.519  0.00  0.00    +0.038 C 
ATOM      7  C   UNL     1      33.496 -22.055 -18.824  0.00  0.00    +0.018 C 
ATOM      8  C   UNL     1      35.900 -21.897 -18.511  0.00  0.00    +0.139 C 
ATOM      9  C   UNL     1      34.667 -22.450 -18.171  0.00  0.00    +0.038 C 
ATOM     10  H   UNL     1      31.683 -20.733 -20.590  0.00  0.00    +0.152 HD
ENDROOT
BRANCH   8  11
ATOM     11  O   UNL     1      37.025 -22.301 -17.857  0.00  0.00    -0.471 OA
ATOM     12  C   UNL     1      37.094 -22.030 -16.459  0.00  0.00    +0.252 C 
ENDBRANCH   8  11
BRANCH   2  13
ATOM     13  C   UNL     1      35.554 -18.741 -21.932  0.00  0.00    +0.005 C 
BRANCH  13  14
ATOM     14  C   UNL     1      35.286 -18.573 -23.436  0.00  0.00    -0.073 C 
BRANCH  14  15
ATOM     15  N   UNL     1      35.463 -17.214 -23.874  0.00  0.00    +0.384 N 
ATOM     16  C   UNL     1      35.039 -16.259 -22.838  0.00  0.00    -0.101 C 
ATOM     17  C   UNL     1      34.722 -16.951 -25.117  0.00  0.00    -0.101 C 
ATOM     18  H   UNL     1      36.459 -17.087 -24.051  0.00  0.00    -0.080 HD
ENDBRANCH  14  15
ENDBRANCH  13  14
ENDBRANCH   2  13
TORSDOF 4
ENDMDL
MODEL 2
REMARK VINA RESULT:      -7.7      1.818      2.540
REMARK  Name = 1832
REMARK  4 active torsions:
REMARK  status: ('A' for Active; 'I' for Inactive)
REMARK    1  A    between atoms: C_2  and  C_13
REMARK    2  A    between atoms: C_8  and  O_11
REMARK    3  A    between atoms: C_13  and  C_14
REMARK    4  A    between atoms: C_14  and  N_15
REMARK                            x       y       z     vdW  Elec       q    Type
REMARK                         _______ _______ _______ _____ _____    ______ ____
ROOT
ATOM      1  N   UNL     1      37.152 -19.925 -20.221  0.00  0.00    -0.312 N 
ATOM      2  C   UNL     1      35.308 -19.264 -21.265  0.00  0.00    -0.008 C 
ATOM      3  C   UNL     1      34.952 -20.285 -20.339  0.00  0.00    +0.014 C 
ATOM      4  C   UNL     1      36.128 -20.682 -19.697  0.00  0.00    +0.048 C 
ATOM      5  C   UNL     1      36.665 -19.066 -21.169  0.00  0.00    +0.058 C 
ATOM      6  C   UNL     1      33.741 -20.910 -19.983  0.00  0.00    +0.038 C 
ATOM      7  C   UNL     1      36.151 -21.678 -18.714  0.00  0.00    +0.018 C 
ATOM      8  C   UNL     1      33.749 -21.908 -19.001  0.00  0.00    +0.139 C 
ATOM      9  C   UNL     1      34.938 -22.284 -18.377  0.00  0.00    +0.038 C 
ATOM     10  H   UNL     1      38.096 -19.993 -19.952  0.00  0.00    +0.152 HD
ENDROOT
BRANCH   8  11
ATOM     11  O   UNL     1      32.582 -22.517 -18.653  0.00  0.00    -0.471 OA
ATOM     12  C   UNL     1      32.486 -23.024 -17.324  0.00  0.00    +0.252 C 
ENDBRANCH   8  11
BRANCH   2  13
ATOM     13  C   UNL     1      34.392 -18.542 -22.170  0.00  0.00    +0.005 C 
BRANCH  13  14
ATOM     14  C   UNL     1      34.863 -18.493 -23.633  0.00  0.00    -0.073 C 
BRANCH  14  15
ATOM     15  N   UNL     1      35.279 -17.174 -24.028  0.00  0.00    +0.384 N 
ATOM     16  C   UNL     1      34.966 -16.181 -22.989  0.00  0.00    -0.101 C 
ATOM     17  C   UNL     1      34.652 -16.772 -25.297  0.00  0.00    -0.101 C 
ATOM     18  H   UNL     1      36.291 -17.208 -24.157  0.00  0.00    -0.080 HD
ENDBRANCH  14  15
ENDBRANCH  13  14
ENDBRANCH   2  13
TORSDOF 4
ENDMDL
MODEL 3
REMARK VINA RESULT:      -7.4      3.715      7.614
REMARK  Name = 1832
REMARK  4 active torsions:
REMARK  status: ('A' for Active; 'I' for Inactive)
REMARK    1  A    between atoms: C_2  and  C_13
REMARK    2  A    between atoms: C_8  and  O_11
REMARK    3  A    between atoms: C_13  and  C_14
REMARK    4  A    between atoms: C_14  and  N_15
REMARK                            x       y       z     vdW  Elec       q    Type
REMARK                         _______ _______ _______ _____ _____    ______ ____
ROOT
ATOM      1  N   UNL     1      34.316 -17.620 -25.314  0.00  0.00    -0.312 N 
ATOM      2  C   UNL     1      34.899 -17.198 -23.214  0.00  0.00    -0.008 C 
ATOM      3  C   UNL     1      34.351 -16.008 -23.771  0.00  0.00    +0.014 C 
ATOM      4  C   UNL     1      33.993 -16.300 -25.089  0.00  0.00    +0.048 C 
ATOM      5  C   UNL     1      34.864 -18.170 -24.186  0.00  0.00    +0.058 C 
ATOM      6  C   UNL     1      34.123 -14.708 -23.279  0.00  0.00    +0.038 C 
ATOM      7  C   UNL     1      33.418 -15.353 -25.943  0.00  0.00    +0.018 C 
ATOM      8  C   UNL     1      33.548 -13.749 -24.122  0.00  0.00    +0.139 C 
ATOM      9  C   UNL     1      33.201 -14.069 -25.433  0.00  0.00    +0.038 C 
ATOM     10  H   UNL     1      34.174 -18.097 -26.163  0.00  0.00    +0.152 HD
ENDROOT
BRANCH   8  11
ATOM     11  O   UNL     1      33.327 -12.490 -23.652  0.00  0.00    -0.471 OA
ATOM     12  C   UNL     1      33.851 -11.410 -24.421  0.00  0.00    +0.252 C 
ENDBRANCH   8  11
BRANCH   2  13
ATOM     13  C   UNL     1      35.415 -17.368 -21.841  0.00  0.00    +0.005 C 
BRANCH  13  14
ATOM     14  C   UNL     1      36.100 -18.722 -21.591  0.00  0.00    -0.073 C 
BRANCH  14  15
ATOM     15  N   UNL     1      35.508 -19.438 -20.493  0.00  0.00    +0.384 N 
ATOM     16  C   UNL     1      36.334 -20.589 -20.097  0.00  0.00    -0.101 C 
ATOM     17  C   UNL     1      34.150 -19.899 -20.824  0.00  0.00    -0.101 C 
ATOM     18  H   UNL     1      35.452 -18.787 -19.710  0.00  0.00    -0.080 HD
ENDBRANCH  14  15
ENDBRANCH  13  14
ENDBRANCH   2  13
TORSDOF 4
ENDMDL
MODEL 4
REMARK VINA RESULT:      -7.4      2.892      5.376
REMARK  Name = 1832
REMARK  4 active torsions:
REMARK  status: ('A' for Active; 'I' for Inactive)
REMARK    1  A    between atoms: C_2  and  C_13
REMARK    2  A    between atoms: C_8  and  O_11
REMARK    3  A    between atoms: C_13  and  C_14
REMARK    4  A    between atoms: C_14  and  N_15
REMARK                            x       y       z     vdW  Elec       q    Type
REMARK                         _______ _______ _______ _____ _____    ______ ____
ROOT
ATOM      1  N   UNL     1      34.081 -16.909 -25.459  0.00  0.00    -0.312 N 
ATOM      2  C   UNL     1      34.165 -15.394 -23.839  0.00  0.00    -0.008 C 
ATOM      3  C   UNL     1      34.557 -16.649 -23.295  0.00  0.00    +0.014 C 
ATOM      4  C   UNL     1      34.495 -17.583 -24.332  0.00  0.00    +0.048 C 
ATOM      5  C   UNL     1      33.879 -15.586 -25.170  0.00  0.00    +0.058 C 
ATOM      6  C   UNL     1      34.960 -17.083 -22.016  0.00  0.00    +0.038 C 
ATOM      7  C   UNL     1      34.817 -18.932 -24.154  0.00  0.00    +0.018 C 
ATOM      8  C   UNL     1      35.285 -18.431 -21.823  0.00  0.00    +0.139 C 
ATOM      9  C   UNL     1      35.214 -19.340 -22.877  0.00  0.00    +0.038 C 
ATOM     10  H   UNL     1      33.949 -17.319 -26.344  0.00  0.00    +0.152 HD
ENDROOT
BRANCH   8  11
ATOM     11  O   UNL     1      35.674 -18.857 -20.589  0.00  0.00    -0.471 OA
ATOM     12  C   UNL     1      35.796 -20.265 -20.397  0.00  0.00    +0.252 C 
ENDBRANCH   8  11
BRANCH   2  13
ATOM     13  C   UNL     1      34.078 -14.111 -23.113  0.00  0.00    +0.005 C 
BRANCH  13  14
ATOM     14  C   UNL     1      32.761 -13.350 -23.337  0.00  0.00    -0.073 C 
BRANCH  14  15
ATOM     15  N   UNL     1      31.978 -13.248 -22.134  0.00  0.00    +0.384 N 
ATOM     16  C   UNL     1      31.668 -11.846 -21.815  0.00  0.00    -0.101 C 
ATOM     17  C   UNL     1      32.667 -13.872 -20.993  0.00  0.00    -0.101 C 
ATOM     18  H   UNL     1      31.105 -13.748 -22.305  0.00  0.00    -0.080 HD
ENDBRANCH  14  15
ENDBRANCH  13  14
ENDBRANCH   2  13
TORSDOF 4
ENDMDL
MODEL 5
REMARK VINA RESULT:      -7.4      2.572      6.276
REMARK  Name = 1832
REMARK  4 active torsions:
REMARK  status: ('A' for Active; 'I' for Inactive)
REMARK    1  A    between atoms: C_2  and  C_13
REMARK    2  A    between atoms: C_8  and  O_11
REMARK    3  A    between atoms: C_13  and  C_14
REMARK    4  A    between atoms: C_14  and  N_15
REMARK                            x       y       z     vdW  Elec       q    Type
REMARK                         _______ _______ _______ _____ _____    ______ ____
ROOT
ATOM      1  N   UNL     1      33.138 -21.914 -19.166  0.00  0.00    -0.312 N 
ATOM      2  C   UNL     1      35.316 -21.814 -18.749  0.00  0.00    -0.008 C 
ATOM      3  C   UNL     1      35.012 -20.857 -19.758  0.00  0.00    +0.014 C 
ATOM      4  C   UNL     1      33.639 -20.941 -20.001  0.00  0.00    +0.048 C 
ATOM      5  C   UNL     1      34.145 -22.446 -18.405  0.00  0.00    +0.058 C 
ATOM      6  C   UNL     1      35.775 -19.925 -20.490  0.00  0.00    +0.038 C 
ATOM      7  C   UNL     1      32.989 -20.137 -20.943  0.00  0.00    +0.018 C 
ATOM      8  C   UNL     1      35.137 -19.114 -21.436  0.00  0.00    +0.139 C 
ATOM      9  C   UNL     1      33.765 -19.220 -21.658  0.00  0.00    +0.038 C 
ATOM     10  H   UNL     1      32.193 -22.187 -19.122  0.00  0.00    +0.152 HD
ENDROOT
BRANCH   8  11
ATOM     11  O   UNL     1      35.869 -18.212 -22.148  0.00  0.00    -0.471 OA
ATOM     12  C   UNL     1      35.205 -17.019 -22.559  0.00  0.00    +0.252 C 
ENDBRANCH   8  11
BRANCH   2  13
ATOM     13  C   UNL     1      36.646 -22.084 -18.168  0.00  0.00    +0.005 C 
BRANCH  13  14
ATOM     14  C   UNL     1      36.719 -21.888 -16.645  0.00  0.00    -0.073 C 
BRANCH  14  15
ATOM     15  N   UNL     1      36.488 -23.112 -15.925  0.00  0.00    +0.384 N 
ATOM     16  C   UNL     1      35.401 -22.959 -14.945  0.00  0.00    -0.101 C 
ATOM     17  C   UNL     1      37.707 -23.568 -15.240  0.00  0.00    -0.101 C 
ATOM     18  H   UNL     1      36.215 -23.814 -16.613  0.00  0.00    -0.080 HD
ENDBRANCH  14  15
ENDBRANCH  13  14
ENDBRANCH   2  13
TORSDOF 4
ENDMDL
MODEL 6
REMARK VINA RESULT:      -7.3      3.622      7.465
REMARK  Name = 1832
REMARK  4 active torsions:
REMARK  status: ('A' for Active; 'I' for Inactive)
REMARK    1  A    between atoms: C_2  and  C_13
REMARK    2  A    between atoms: C_8  and  O_11
REMARK    3  A    between atoms: C_13  and  C_14
REMARK    4  A    between atoms: C_14  and  N_15
REMARK                            x       y       z     vdW  Elec       q    Type
REMARK                         _______ _______ _______ _____ _____    ______ ____
ROOT
ATOM      1  N   UNL     1      34.154 -15.052 -21.109  0.00  0.00    -0.312 N 
ATOM      2  C   UNL     1      34.944 -16.880 -22.092  0.00  0.00    -0.008 C 
ATOM      3  C   UNL     1      34.380 -16.044 -23.096  0.00  0.00    +0.014 C 
ATOM      4  C   UNL     1      33.892 -14.904 -22.453  0.00  0.00    +0.048 C 
ATOM      5  C   UNL     1      34.790 -16.244 -20.882  0.00  0.00    +0.058 C 
ATOM      6  C   UNL     1      34.238 -16.146 -24.494  0.00  0.00    +0.038 C 
ATOM      7  C   UNL     1      33.266 -13.859 -23.141  0.00  0.00    +0.018 C 
ATOM      8  C   UNL     1      33.614 -15.108 -25.196  0.00  0.00    +0.139 C 
ATOM      9  C   UNL     1      33.136 -13.983 -24.527  0.00  0.00    +0.038 C 
ATOM     10  H   UNL     1      33.918 -14.397 -20.414  0.00  0.00    +0.152 HD
ENDROOT
BRANCH   8  11
ATOM     11  O   UNL     1      33.473 -15.202 -26.547  0.00  0.00    -0.471 OA
ATOM     12  C   UNL     1      33.272 -13.986 -27.264  0.00  0.00    +0.252 C 
ENDBRANCH   8  11
BRANCH   2  13
ATOM     13  C   UNL     1      35.582 -18.195 -22.300  0.00  0.00    +0.005 C 
BRANCH  13  14
ATOM     14  C   UNL     1      34.630 -19.390 -22.132  0.00  0.00    -0.073 C 
BRANCH  14  15
ATOM     15  N   UNL     1      34.392 -19.707 -20.749  0.00  0.00    +0.384 N 
ATOM     16  C   UNL     1      35.342 -20.720 -20.262  0.00  0.00    -0.101 C 
ATOM     17  C   UNL     1      33.016 -20.183 -20.538  0.00  0.00    -0.101 C 
ATOM     18  H   UNL     1      34.527 -18.846 -20.219  0.00  0.00    -0.080 HD
ENDBRANCH  14  15
ENDBRANCH  13  14
ENDBRANCH   2  13
TORSDOF 4
ENDMDL
MODEL 7
REMARK VINA RESULT:      -7.3      6.512      8.280
REMARK  Name = 1832
REMARK  4 active torsions:
REMARK  status: ('A' for Active; 'I' for Inactive)
REMARK    1  A    between atoms: C_2  and  C_13
REMARK    2  A    between atoms: C_8  and  O_11
REMARK    3  A    between atoms: C_13  and  C_14
REMARK    4  A    between atoms: C_14  and  N_15
REMARK                            x       y       z     vdW  Elec       q    Type
REMARK                         _______ _______ _______ _____ _____    ______ ____
ROOT
ATOM      1  N   UNL     1      32.245 -25.112 -13.738  0.00  0.00    -0.312 N 
ATOM      2  C   UNL     1      33.280 -23.783 -15.184  0.00  0.00    -0.008 C 
ATOM      3  C   UNL     1      31.879 -23.689 -15.417  0.00  0.00    +0.014 C 
ATOM      4  C   UNL     1      31.253 -24.533 -14.497  0.00  0.00    +0.048 C 
ATOM      5  C   UNL     1      33.473 -24.665 -14.146  0.00  0.00    +0.058 C 
ATOM      6  C   UNL     1      31.082 -22.964 -16.325  0.00  0.00    +0.038 C 
ATOM      7  C   UNL     1      29.864 -24.689 -14.439  0.00  0.00    +0.018 C 
ATOM      8  C   UNL     1      29.690 -23.111 -16.280  0.00  0.00    +0.139 C 
ATOM      9  C   UNL     1      29.092 -23.960 -15.350  0.00  0.00    +0.038 C 
ATOM     10  H   UNL     1      32.092 -25.755 -13.008  0.00  0.00    +0.152 HD
ENDROOT
BRANCH   8  11
ATOM     11  O   UNL     1      28.913 -22.415 -17.155  0.00  0.00    -0.471 OA
ATOM     12  C   UNL     1      27.507 -22.420 -16.920  0.00  0.00    +0.252 C 
ENDBRANCH   8  11
BRANCH   2  13
ATOM     13  C   UNL     1      34.343 -23.068 -15.917  0.00  0.00    +0.005 C 
BRANCH  13  14
ATOM     14  C   UNL     1      35.615 -22.813 -15.091  0.00  0.00    -0.073 C 
BRANCH  14  15
ATOM     15  N   UNL     1      36.813 -23.124 -15.824  0.00  0.00    +0.384 N 
ATOM     16  C   UNL     1      37.753 -23.906 -15.006  0.00  0.00    -0.101 C 
ATOM     17  C   UNL     1      37.478 -21.903 -16.305  0.00  0.00    -0.101 C 
ATOM     18  H   UNL     1      36.531 -23.684 -16.629  0.00  0.00    -0.080 HD
ENDBRANCH  14  15
ENDBRANCH  13  14
ENDBRANCH   2  13
TORSDOF 4
ENDMDL
MODEL 8
REMARK VINA RESULT:      -7.2      1.638      2.464
REMARK  Name = 1832
REMARK  4 active torsions:
REMARK  status: ('A' for Active; 'I' for Inactive)
REMARK    1  A    between atoms: C_2  and  C_13
REMARK    2  A    between atoms: C_8  and  O_11
REMARK    3  A    between atoms: C_13  and  C_14
REMARK    4  A    between atoms: C_14  and  N_15
REMARK                            x       y       z     vdW  Elec       q    Type
REMARK                         _______ _______ _______ _____ _____    ______ ____
ROOT
ATOM      1  N   UNL     1      33.107 -22.453 -18.720  0.00  0.00    -0.312 N 
ATOM      2  C   UNL     1      34.863 -21.359 -19.526  0.00  0.00    -0.008 C 
ATOM      3  C   UNL     1      35.236 -21.945 -18.284  0.00  0.00    +0.014 C 
ATOM      4  C   UNL     1      34.116 -22.625 -17.799  0.00  0.00    +0.048 C 
ATOM      5  C   UNL     1      33.550 -21.689 -19.767  0.00  0.00    +0.058 C 
ATOM      6  C   UNL     1      36.422 -21.963 -17.523  0.00  0.00    +0.038 C 
ATOM      7  C   UNL     1      34.124 -23.324 -16.587  0.00  0.00    +0.018 C 
ATOM      8  C   UNL     1      36.444 -22.658 -16.308  0.00  0.00    +0.139 C 
ATOM      9  C   UNL     1      35.311 -23.328 -15.849  0.00  0.00    +0.038 C 
ATOM     10  H   UNL     1      32.199 -22.825 -18.637  0.00  0.00    +0.152 HD
ENDROOT
BRANCH   8  11
ATOM     11  O   UNL     1      37.587 -22.678 -15.567  0.00  0.00    -0.471 OA
ATOM     12  C   UNL     1      37.999 -23.940 -15.046  0.00  0.00    +0.252 C 
ENDBRANCH   8  11
BRANCH   2  13
ATOM     13  C   UNL     1      35.723 -20.543 -20.406  0.00  0.00    +0.005 C 
BRANCH  13  14
ATOM     14  C   UNL     1      34.955 -19.749 -21.476  0.00  0.00    -0.073 C 
BRANCH  14  15
ATOM     15  N   UNL     1      35.642 -18.546 -21.860  0.00  0.00    +0.384 N 
ATOM     16  C   UNL     1      35.133 -17.380 -21.122  0.00  0.00    -0.101 C 
ATOM     17  C   UNL     1      35.525 -18.301 -23.306  0.00  0.00    -0.101 C 
ATOM     18  H   UNL     1      36.626 -18.679 -21.628  0.00  0.00    -0.080 HD
ENDBRANCH  14  15
ENDBRANCH  13  14
ENDBRANCH   2  13
TORSDOF 4
ENDMDL
MODEL 9
REMARK VINA RESULT:      -7.2      3.228      7.015
REMARK  Name = 1832
REMARK  4 active torsions:
REMARK  status: ('A' for Active; 'I' for Inactive)
REMARK    1  A    between atoms: C_2  and  C_13
REMARK    2  A    between atoms: C_8  and  O_11
REMARK    3  A    between atoms: C_13  and  C_14
REMARK    4  A    between atoms: C_14  and  N_15
REMARK                            x       y       z     vdW  Elec       q    Type
REMARK                         _______ _______ _______ _____ _____    ______ ____
ROOT
ATOM      1  N   UNL     1      34.616 -18.198 -25.094  0.00  0.00    -0.312 N 
ATOM      2  C   UNL     1      35.080 -17.985 -22.933  0.00  0.00    -0.008 C 
ATOM      3  C   UNL     1      34.568 -16.743 -23.402  0.00  0.00    +0.014 C 
ATOM      4  C   UNL     1      34.285 -16.903 -24.761  0.00  0.00    +0.048 C 
ATOM      5  C   UNL     1      35.097 -18.859 -23.995  0.00  0.00    +0.058 C 
ATOM      6  C   UNL     1      34.317 -15.494 -22.800  0.00  0.00    +0.038 C 
ATOM      7  C   UNL     1      33.763 -15.873 -25.550  0.00  0.00    +0.018 C 
ATOM      8  C   UNL     1      33.794 -14.454 -23.578  0.00  0.00    +0.139 C 
ATOM      9  C   UNL     1      33.522 -14.643 -24.932  0.00  0.00    +0.038 C 
ATOM     10  H   UNL     1      34.521 -18.590 -25.992  0.00  0.00    +0.152 HD
ENDROOT
BRANCH   8  11
ATOM     11  O   UNL     1      33.550 -13.244 -23.002  0.00  0.00    -0.471 OA
ATOM     12  C   UNL     1      32.392 -13.140 -22.177  0.00  0.00    +0.252 C 
ENDBRANCH   8  11
BRANCH   2  13
ATOM     13  C   UNL     1      35.516 -18.292 -21.557  0.00  0.00    +0.005 C 
BRANCH  13  14
ATOM     14  C   UNL     1      35.536 -19.793 -21.223  0.00  0.00    -0.073 C 
BRANCH  14  15
ATOM     15  N   UNL     1      34.652 -20.121 -20.137  0.00  0.00    +0.384 N 
ATOM     16  C   UNL     1      35.001 -21.418 -19.536  0.00  0.00    -0.101 C 
ATOM     17  C   UNL     1      33.248 -20.147 -20.578  0.00  0.00    -0.101 C 
ATOM     18  H   UNL     1      34.762 -19.391 -19.433  0.00  0.00    -0.080 HD
ENDBRANCH  14  15
ENDBRANCH  13  14
ENDBRANCH   2  13
TORSDOF 4
ENDMDL
