MODEL 1
REMARK VINA RESULT:     -10.4      0.000      0.000
REMARK  Name = 15981237
REMARK  5 active torsions:
REMARK  status: ('A' for Active; 'I' for Inactive)
REMARK    1  A    between atoms: C_3  and  N_11
REMARK    2  A    between atoms: C_4  and  O_20
REMARK    3  A    between atoms: C_15  and  C_19
REMARK    4  A    between atoms: O_20  and  C_27
REMARK    5  A    between atoms: C_24  and  C_29
REMARK                            x       y       z     vdW  Elec       q    Type
REMARK                         _______ _______ _______ _____ _____    ______ ____
ROOT
ATOM      1 CL   UNL     1      33.388 -13.013 -25.968  0.00  0.00    -0.079 Cl
ATOM      2 CL   UNL     1      31.676 -12.050 -20.896  0.00  0.00    -0.079 Cl
ATOM      3  C   UNL     1      33.783 -15.020 -22.537  0.00  0.00    +0.089 C 
ATOM      4  C   UNL     1      32.602 -12.670 -23.383  0.00  0.00    +0.168 C 
ATOM      5  C   UNL     1      33.865 -14.641 -23.877  0.00  0.00    +0.034 C 
ATOM      6  C   UNL     1      33.105 -14.213 -21.624  0.00  0.00    +0.034 C 
ATOM      7  C   UNL     1      33.268 -13.454 -24.304  0.00  0.00    +0.095 C 
ATOM      8  C   UNL     1      32.508 -13.026 -22.050  0.00  0.00    +0.095 C 
ENDROOT
BRANCH   3  11
ATOM      9  O   UNL     1      34.998 -15.628 -19.906  0.00  0.00    -0.245 OA
ATOM     10  O   UNL     1      35.900 -19.890 -21.320  0.00  0.00    -0.265 OA
ATOM     11  N   UNL     1      34.400 -16.248 -22.096  0.00  0.00    -0.179 N 
ATOM     12  N   UNL     1      34.444 -17.212 -23.072  0.00  0.00    -0.146 NA
ATOM     13  N   UNL     1      35.421 -17.743 -20.574  0.00  0.00    -0.271 N 
ATOM     14  C   UNL     1      34.924 -16.464 -20.809  0.00  0.00    +0.350 A 
ATOM     15  C   UNL     1      34.936 -18.372 -22.809  0.00  0.00    +0.225 A 
ATOM     16  C   UNL     1      35.472 -18.760 -21.488  0.00  0.00    +0.290 A 
ATOM     17  H   UNL     1      35.765 -17.932 -19.670  0.00  0.00    +0.174 HD
BRANCH  15  19
ATOM     18  N   UNL     1      34.857 -19.925 -24.889  0.00  0.00    -0.189 NA
ATOM     19  C   UNL     1      34.892 -19.230 -23.960  0.00  0.00    +0.127 C 
ENDBRANCH  15  19
ENDBRANCH   3  11
BRANCH   4  20
ATOM     20  O   UNL     1      32.007 -11.486 -23.809  0.00  0.00    -0.433 OA
BRANCH  20  27
ATOM     21  O   UNL     1      35.209  -7.341 -23.201  0.00  0.00    -0.269 OA
ATOM     22  N   UNL     1      34.815  -9.419 -24.080  0.00  0.00    -0.200 N 
ATOM     23  N   UNL     1      34.034 -10.510 -24.271  0.00  0.00    -0.141 NA
ATOM     24  C   UNL     1      33.111  -8.325 -22.709  0.00  0.00    +0.037 C 
ATOM     25  C   UNL     1      32.326  -9.392 -22.883  0.00  0.00    +0.060 C 
ATOM     26  C   UNL     1      34.463  -8.308 -23.343  0.00  0.00    +0.261 C 
ATOM     27  C   UNL     1      32.883 -10.465 -23.699  0.00  0.00    +0.244 C 
ATOM     28  H   UNL     1      35.704  -9.418 -24.504  0.00  0.00    +0.178 HD
BRANCH  24  29
ATOM     29  C   UNL     1      32.703  -7.133 -21.902  0.00  0.00    +0.027 C 
ATOM     30  C   UNL     1      31.350  -6.608 -22.375  0.00  0.00    +0.005 C 
ATOM     31  C   UNL     1      32.663  -7.471 -20.412  0.00  0.00    +0.005 C 
ENDBRANCH  24  29
ENDBRANCH  20  27
ENDBRANCH   4  20
TORSDOF 5
ENDMDL
MODEL 2
REMARK VINA RESULT:     -10.4      0.027      1.687
REMARK  Name = 15981237
REMARK  5 active torsions:
REMARK  status: ('A' for Active; 'I' for Inactive)
REMARK    1  A    between atoms: C_3  and  N_11
REMARK    2  A    between atoms: C_4  and  O_20
REMARK    3  A    between atoms: C_15  and  C_19
REMARK    4  A    between atoms: O_20  and  C_27
REMARK    5  A    between atoms: C_24  and  C_29
REMARK                            x       y       z     vdW  Elec       q    Type
REMARK                         _______ _______ _______ _____ _____    ______ ____
ROOT
ATOM      1 CL   UNL     1      31.707 -12.038 -20.866  0.00  0.00    -0.079 Cl
ATOM      2 CL   UNL     1      33.330 -13.040 -25.960  0.00  0.00    -0.079 Cl
ATOM      3  C   UNL     1      33.771 -15.030 -22.524  0.00  0.00    +0.089 C 
ATOM      4  C   UNL     1      32.588 -12.678 -23.363  0.00  0.00    +0.168 C 
ATOM      5  C   UNL     1      33.112 -14.214 -21.604  0.00  0.00    +0.034 C 
ATOM      6  C   UNL     1      33.833 -14.659 -23.867  0.00  0.00    +0.034 C 
ATOM      7  C   UNL     1      32.515 -13.026 -22.028  0.00  0.00    +0.095 C 
ATOM      8  C   UNL     1      33.236 -13.471 -24.291  0.00  0.00    +0.095 C 
ENDROOT
BRANCH   3  11
ATOM      9  O   UNL     1      34.978 -15.643 -19.892  0.00  0.00    -0.245 OA
ATOM     10  O   UNL     1      35.895 -19.899 -21.316  0.00  0.00    -0.265 OA
ATOM     11  N   UNL     1      34.390 -16.258 -22.085  0.00  0.00    -0.179 N 
ATOM     12  N   UNL     1      34.439 -17.218 -23.065  0.00  0.00    -0.146 NA
ATOM     13  N   UNL     1      35.408 -17.755 -20.565  0.00  0.00    -0.271 N 
ATOM     14  C   UNL     1      34.910 -16.477 -20.797  0.00  0.00    +0.350 A 
ATOM     15  C   UNL     1      34.932 -18.379 -22.803  0.00  0.00    +0.225 A 
ATOM     16  C   UNL     1      35.465 -18.769 -21.482  0.00  0.00    +0.290 A 
ATOM     17  H   UNL     1      35.749 -17.946 -19.661  0.00  0.00    +0.174 HD
BRANCH  15  19
ATOM     18  N   UNL     1      34.863 -19.922 -24.890  0.00  0.00    -0.189 NA
ATOM     19  C   UNL     1      34.895 -19.233 -23.957  0.00  0.00    +0.127 C 
ENDBRANCH  15  19
ENDBRANCH   3  11
BRANCH   4  20
ATOM     20  O   UNL     1      31.992 -11.494 -23.786  0.00  0.00    -0.433 OA
BRANCH  20  27
ATOM     21  O   UNL     1      35.208  -7.353 -23.225  0.00  0.00    -0.269 OA
ATOM     22  N   UNL     1      34.807  -9.439 -24.080  0.00  0.00    -0.200 N 
ATOM     23  N   UNL     1      34.022 -10.530 -24.258  0.00  0.00    -0.141 NA
ATOM     24  C   UNL     1      33.106  -8.323 -22.722  0.00  0.00    +0.037 C 
ATOM     25  C   UNL     1      32.318  -9.390 -22.884  0.00  0.00    +0.060 C 
ATOM     26  C   UNL     1      34.458  -8.319 -23.356  0.00  0.00    +0.261 C 
ATOM     27  C   UNL     1      32.871 -10.474 -23.688  0.00  0.00    +0.244 C 
ATOM     28  H   UNL     1      35.696  -9.447 -24.503  0.00  0.00    +0.178 HD
BRANCH  24  29
ATOM     29  C   UNL     1      32.702  -7.121 -21.930  0.00  0.00    +0.027 C 
ATOM     30  C   UNL     1      31.343  -6.607 -22.399  0.00  0.00    +0.005 C 
ATOM     31  C   UNL     1      32.676  -7.437 -20.435  0.00  0.00    +0.005 C 
ENDBRANCH  24  29
ENDBRANCH  20  27
ENDBRANCH   4  20
TORSDOF 5
ENDMDL
MODEL 3
REMARK VINA RESULT:     -10.3      1.920      2.733
REMARK  Name = 15981237
REMARK  5 active torsions:
REMARK  status: ('A' for Active; 'I' for Inactive)
REMARK    1  A    between atoms: C_3  and  N_11
REMARK    2  A    between atoms: C_4  and  O_20
REMARK    3  A    between atoms: C_15  and  C_19
REMARK    4  A    between atoms: O_20  and  C_27
REMARK    5  A    between atoms: C_24  and  C_29
REMARK                            x       y       z     vdW  Elec       q    Type
REMARK                         _______ _______ _______ _____ _____    ______ ____
ROOT
ATOM      1 CL   UNL     1      30.324 -11.735 -20.981  0.00  0.00    -0.079 Cl
ATOM      2 CL   UNL     1      33.966 -10.570 -24.849  0.00  0.00    -0.079 Cl
ATOM      3  C   UNL     1      33.437 -13.741 -22.479  0.00  0.00    +0.089 C 
ATOM      4  C   UNL     1      32.217 -11.297 -22.891  0.00  0.00    +0.168 C 
ATOM      5  C   UNL     1      32.320 -13.383 -21.723  0.00  0.00    +0.034 C 
ATOM      6  C   UNL     1      33.938 -12.866 -23.441  0.00  0.00    +0.034 C 
ATOM      7  C   UNL     1      31.704 -12.149 -21.931  0.00  0.00    +0.095 C 
ATOM      8  C   UNL     1      33.322 -11.631 -23.650  0.00  0.00    +0.095 C 
ENDROOT
BRANCH   3  11
ATOM      9  O   UNL     1      34.728 -14.760 -20.017  0.00  0.00    -0.245 OA
ATOM     10  O   UNL     1      35.621 -18.721 -22.137  0.00  0.00    -0.265 OA
ATOM     11  N   UNL     1      34.075 -15.018 -22.262  0.00  0.00    -0.179 N 
ATOM     12  N   UNL     1      34.098 -15.807 -23.385  0.00  0.00    -0.146 NA
ATOM     13  N   UNL     1      35.147 -16.731 -21.035  0.00  0.00    -0.271 N 
ATOM     14  C   UNL     1      34.635 -15.437 -21.043  0.00  0.00    +0.350 A 
ATOM     15  C   UNL     1      34.605 -16.990 -23.330  0.00  0.00    +0.225 A 
ATOM     16  C   UNL     1      35.181 -17.583 -22.105  0.00  0.00    +0.290 A 
ATOM     17  H   UNL     1      35.517 -17.062 -20.184  0.00  0.00    +0.174 HD
BRANCH  15  19
ATOM     18  N   UNL     1      34.480 -18.180 -25.634  0.00  0.00    -0.189 NA
ATOM     19  C   UNL     1      34.536 -17.647 -24.604  0.00  0.00    +0.127 C 
ENDBRANCH  15  19
ENDBRANCH   3  11
BRANCH   4  20
ATOM     20  O   UNL     1      31.601 -10.066 -23.098  0.00  0.00    -0.433 OA
BRANCH  20  27
ATOM     21  O   UNL     1      32.845  -6.468 -19.449  0.00  0.00    -0.269 OA
ATOM     22  N   UNL     1      32.759  -8.658 -20.114  0.00  0.00    -0.200 N 
ATOM     23  N   UNL     1      32.460  -9.626 -21.014  0.00  0.00    -0.141 NA
ATOM     24  C   UNL     1      31.955  -6.894 -21.604  0.00  0.00    +0.037 C 
ATOM     25  C   UNL     1      31.651  -7.832 -22.505  0.00  0.00    +0.060 C 
ATOM     26  C   UNL     1      32.555  -7.307 -20.300  0.00  0.00    +0.261 C 
ATOM     27  C   UNL     1      31.945  -9.207 -22.116  0.00  0.00    +0.244 C 
ATOM     28  H   UNL     1      33.155  -8.942 -19.258  0.00  0.00    +0.178 HD
BRANCH  24  29
ATOM     29  C   UNL     1      31.721  -5.434 -21.833  0.00  0.00    +0.027 C 
ATOM     30  C   UNL     1      31.989  -5.076 -23.293  0.00  0.00    +0.005 C 
ATOM     31  C   UNL     1      30.301  -5.039 -21.429  0.00  0.00    +0.005 C 
ENDBRANCH  24  29
ENDBRANCH  20  27
ENDBRANCH   4  20
TORSDOF 5
ENDMDL
MODEL 4
REMARK VINA RESULT:      -9.9      5.143      8.306
REMARK  Name = 15981237
REMARK  5 active torsions:
REMARK  status: ('A' for Active; 'I' for Inactive)
REMARK    1  A    between atoms: C_3  and  N_11
REMARK    2  A    between atoms: C_4  and  O_20
REMARK    3  A    between atoms: C_15  and  C_19
REMARK    4  A    between atoms: O_20  and  C_27
REMARK    5  A    between atoms: C_24  and  C_29
REMARK                            x       y       z     vdW  Elec       q    Type
REMARK                         _______ _______ _______ _____ _____    ______ ____
ROOT
ATOM      1 CL   UNL     1      32.257 -20.005 -21.484  0.00  0.00    -0.079 Cl
ATOM      2 CL   UNL     1      37.658 -19.915 -20.854  0.00  0.00    -0.079 Cl
ATOM      3  C   UNL     1      34.710 -21.662 -18.802  0.00  0.00    +0.089 C 
ATOM      4  C   UNL     1      34.943 -20.054 -21.037  0.00  0.00    +0.168 C 
ATOM      5  C   UNL     1      33.569 -21.276 -19.505  0.00  0.00    +0.034 C 
ATOM      6  C   UNL     1      35.968 -21.236 -19.226  0.00  0.00    +0.034 C 
ATOM      7  C   UNL     1      33.687 -20.464 -20.634  0.00  0.00    +0.095 C 
ATOM      8  C   UNL     1      36.087 -20.425 -20.355  0.00  0.00    +0.095 C 
ENDROOT
BRANCH   3  11
ATOM      9  O   UNL     1      32.270 -22.904 -17.676  0.00  0.00    -0.245 OA
ATOM     10  O   UNL     1      34.795 -24.865 -14.396  0.00  0.00    -0.265 OA
ATOM     11  N   UNL     1      34.588 -22.501 -17.633  0.00  0.00    -0.179 N 
ATOM     12  N   UNL     1      35.776 -22.680 -16.969  0.00  0.00    -0.146 NA
ATOM     13  N   UNL     1      33.503 -23.906 -16.072  0.00  0.00    -0.271 N 
ATOM     14  C   UNL     1      33.388 -23.081 -17.186  0.00  0.00    +0.350 A 
ATOM     15  C   UNL     1      35.823 -23.435 -15.928  0.00  0.00    +0.225 A 
ATOM     16  C   UNL     1      34.655 -24.152 -15.376  0.00  0.00    +0.290 A 
ATOM     17  H   UNL     1      32.683 -24.351 -15.756  0.00  0.00    +0.174 HD
BRANCH  15  19
ATOM     18  N   UNL     1      38.222 -23.531 -14.940  0.00  0.00    -0.189 NA
ATOM     19  C   UNL     1      37.150 -23.487 -15.382  0.00  0.00    +0.127 C 
ENDBRANCH  15  19
ENDBRANCH   3  11
BRANCH   4  20
ATOM     20  O   UNL     1      35.061 -19.246 -22.163  0.00  0.00    -0.433 OA
BRANCH  20  27
ATOM     21  O   UNL     1      34.441 -14.115 -21.114  0.00  0.00    -0.269 OA
ATOM     22  N   UNL     1      34.949 -16.230 -20.396  0.00  0.00    -0.200 N 
ATOM     23  N   UNL     1      35.123 -17.557 -20.607  0.00  0.00    -0.141 NA
ATOM     24  C   UNL     1      34.370 -15.838 -22.739  0.00  0.00    +0.037 C 
ATOM     25  C   UNL     1      34.534 -17.144 -22.969  0.00  0.00    +0.060 C 
ATOM     26  C   UNL     1      34.586 -15.312 -21.359  0.00  0.00    +0.261 C 
ATOM     27  C   UNL     1      34.921 -17.949 -21.816  0.00  0.00    +0.244 C 
ATOM     28  H   UNL     1      35.095 -15.894 -19.482  0.00  0.00    +0.178 HD
BRANCH  24  29
ATOM     29  C   UNL     1      33.974 -14.864 -23.804  0.00  0.00    +0.027 C 
ATOM     30  C   UNL     1      33.798 -15.580 -25.140  0.00  0.00    +0.005 C 
ATOM     31  C   UNL     1      32.697 -14.120 -23.414  0.00  0.00    +0.005 C 
ENDBRANCH  24  29
ENDBRANCH  20  27
ENDBRANCH   4  20
TORSDOF 5
ENDMDL
MODEL 5
REMARK VINA RESULT:      -9.9      5.607      8.793
REMARK  Name = 15981237
REMARK  5 active torsions:
REMARK  status: ('A' for Active; 'I' for Inactive)
REMARK    1  A    between atoms: C_3  and  N_11
REMARK    2  A    between atoms: C_4  and  O_20
REMARK    3  A    between atoms: C_15  and  C_19
REMARK    4  A    between atoms: O_20  and  C_27
REMARK    5  A    between atoms: C_24  and  C_29
REMARK                            x       y       z     vdW  Elec       q    Type
REMARK                         _______ _______ _______ _____ _____    ______ ____
ROOT
ATOM      1 CL   UNL     1      37.303 -21.381 -20.219  0.00  0.00    -0.079 Cl
ATOM      2 CL   UNL     1      32.303 -19.686 -21.526  0.00  0.00    -0.079 Cl
ATOM      3  C   UNL     1      33.716 -21.951 -18.555  0.00  0.00    +0.089 C 
ATOM      4  C   UNL     1      34.743 -20.612 -20.744  0.00  0.00    +0.168 C 
ATOM      5  C   UNL     1      35.086 -21.990 -18.817  0.00  0.00    +0.034 C 
ATOM      6  C   UNL     1      32.865 -21.237 -19.398  0.00  0.00    +0.034 C 
ATOM      7  C   UNL     1      35.604 -21.314 -19.923  0.00  0.00    +0.095 C 
ATOM      8  C   UNL     1      33.383 -20.561 -20.503  0.00  0.00    +0.095 C 
ENDROOT
BRANCH   3  11
ATOM      9  O   UNL     1      35.173 -23.515 -16.507  0.00  0.00    -0.245 OA
ATOM     10  O   UNL     1      31.223 -24.330 -14.336  0.00  0.00    -0.265 OA
ATOM     11  N   UNL     1      33.181 -22.651 -17.412  0.00  0.00    -0.179 N 
ATOM     12  N   UNL     1      31.811 -22.591 -17.334  0.00  0.00    -0.146 NA
ATOM     13  N   UNL     1      33.241 -23.899 -15.405  0.00  0.00    -0.271 N 
ATOM     14  C   UNL     1      33.953 -23.344 -16.464  0.00  0.00    +0.350 A 
ATOM     15  C   UNL     1      31.199 -23.141 -16.345  0.00  0.00    +0.225 A 
ATOM     16  C   UNL     1      31.882 -23.856 -15.247  0.00  0.00    +0.290 A 
ATOM     17  H   UNL     1      33.760 -24.363 -14.708  0.00  0.00    +0.174 HD
BRANCH  15  19
ATOM     18  N   UNL     1      28.628 -22.829 -16.535  0.00  0.00    -0.189 NA
ATOM     19  C   UNL     1      29.777 -22.969 -16.451  0.00  0.00    +0.127 C 
ENDBRANCH  15  19
ENDBRANCH   3  11
BRANCH   4  20
ATOM     20  O   UNL     1      35.260 -19.938 -21.846  0.00  0.00    -0.433 OA
BRANCH  20  27
ATOM     21  O   UNL     1      34.757 -14.702 -21.470  0.00  0.00    -0.269 OA
ATOM     22  N   UNL     1      35.095 -16.731 -20.462  0.00  0.00    -0.200 N 
ATOM     23  N   UNL     1      35.233 -18.079 -20.498  0.00  0.00    -0.141 NA
ATOM     24  C   UNL     1      34.780 -16.604 -22.884  0.00  0.00    +0.037 C 
ATOM     25  C   UNL     1      34.911 -17.932 -22.942  0.00  0.00    +0.060 C 
ATOM     26  C   UNL     1      34.874 -15.924 -21.558  0.00  0.00    +0.261 C 
ATOM     27  C   UNL     1      35.141 -18.605 -21.668  0.00  0.00    +0.244 C 
ATOM     28  H   UNL     1      35.160 -16.292 -19.582  0.00  0.00    +0.178 HD
BRANCH  24  29
ATOM     29  C   UNL     1      34.540 -15.753 -24.090  0.00  0.00    +0.027 C 
ATOM     30  C   UNL     1      34.492 -16.616 -25.348  0.00  0.00    +0.005 C 
ATOM     31  C   UNL     1      33.253 -14.943 -23.938  0.00  0.00    +0.005 C 
ENDBRANCH  24  29
ENDBRANCH  20  27
ENDBRANCH   4  20
TORSDOF 5
ENDMDL
MODEL 6
REMARK VINA RESULT:      -9.7      2.803      9.255
REMARK  Name = 15981237
REMARK  5 active torsions:
REMARK  status: ('A' for Active; 'I' for Inactive)
REMARK    1  A    between atoms: C_3  and  N_11
REMARK    2  A    between atoms: C_4  and  O_20
REMARK    3  A    between atoms: C_15  and  C_19
REMARK    4  A    between atoms: O_20  and  C_27
REMARK    5  A    between atoms: C_24  and  C_29
REMARK                            x       y       z     vdW  Elec       q    Type
REMARK                         _______ _______ _______ _____ _____    ______ ____
ROOT
ATOM      1 CL   UNL     1      35.350 -16.868 -20.261  0.00  0.00    -0.079 Cl
ATOM      2 CL   UNL     1      34.280 -17.692 -25.530  0.00  0.00    -0.079 Cl
ATOM      3  C   UNL     1      33.970 -14.491 -23.161  0.00  0.00    +0.089 C 
ATOM      4  C   UNL     1      34.768 -17.124 -22.910  0.00  0.00    +0.168 C 
ATOM      5  C   UNL     1      34.409 -14.972 -21.927  0.00  0.00    +0.034 C 
ATOM      6  C   UNL     1      33.933 -15.338 -24.267  0.00  0.00    +0.034 C 
ATOM      7  C   UNL     1      34.811 -16.302 -21.801  0.00  0.00    +0.095 C 
ATOM      8  C   UNL     1      34.336 -16.668 -24.142  0.00  0.00    +0.095 C 
ENDROOT
BRANCH   3  11
ATOM      9  O   UNL     1      31.777 -13.092 -21.748  0.00  0.00    -0.245 OA
ATOM     10  O   UNL     1      32.859  -9.213 -23.930  0.00  0.00    -0.265 OA
ATOM     11  N   UNL     1      33.553 -13.115 -23.291  0.00  0.00    -0.179 N 
ATOM     12  N   UNL     1      34.267 -12.421 -24.236  0.00  0.00    -0.146 NA
ATOM     13  N   UNL     1      32.317 -11.163 -22.789  0.00  0.00    -0.271 N 
ATOM     14  C   UNL     1      32.517 -12.519 -22.551  0.00  0.00    +0.350 A 
ATOM     15  C   UNL     1      34.026 -11.171 -24.433  0.00  0.00    +0.225 A 
ATOM     16  C   UNL     1      33.006 -10.401 -23.693  0.00  0.00    +0.290 A 
ATOM     17  H   UNL     1      31.619 -10.712 -22.260  0.00  0.00    +0.174 HD
BRANCH  15  19
ATOM     18  N   UNL     1      35.562 -10.200 -26.288  0.00  0.00    -0.189 NA
ATOM     19  C   UNL     1      34.875 -10.634 -25.460  0.00  0.00    +0.127 C 
ENDBRANCH  15  19
ENDBRANCH   3  11
BRANCH   4  20
ATOM     20  O   UNL     1      35.170 -18.450 -22.784  0.00  0.00    -0.433 OA
BRANCH  20  27
ATOM     21  O   UNL     1      32.388 -21.076 -19.154  0.00  0.00    -0.269 OA
ATOM     22  N   UNL     1      32.455 -19.596 -20.901  0.00  0.00    -0.200 N 
ATOM     23  N   UNL     1      33.118 -18.897 -21.854  0.00  0.00    -0.141 NA
ATOM     24  C   UNL     1      34.518 -20.634 -20.095  0.00  0.00    +0.037 C 
ATOM     25  C   UNL     1      35.191 -19.952 -21.026  0.00  0.00    +0.060 C 
ATOM     26  C   UNL     1      33.037 -20.463 -20.001  0.00  0.00    +0.261 C 
ATOM     27  C   UNL     1      34.390 -19.085 -21.884  0.00  0.00    +0.244 C 
ATOM     28  H   UNL     1      31.479 -19.477 -20.849  0.00  0.00    +0.178 HD
BRANCH  24  29
ATOM     29  C   UNL     1      35.176 -21.567 -19.130  0.00  0.00    +0.027 C 
ATOM     30  C   UNL     1      34.678 -22.994 -19.347  0.00  0.00    +0.005 C 
ATOM     31  C   UNL     1      36.697 -21.499 -19.256  0.00  0.00    +0.005 C 
ENDBRANCH  24  29
ENDBRANCH  20  27
ENDBRANCH   4  20
TORSDOF 5
ENDMDL
MODEL 7
REMARK VINA RESULT:      -9.7      1.553      2.514
REMARK  Name = 15981237
REMARK  5 active torsions:
REMARK  status: ('A' for Active; 'I' for Inactive)
REMARK    1  A    between atoms: C_3  and  N_11
REMARK    2  A    between atoms: C_4  and  O_20
REMARK    3  A    between atoms: C_15  and  C_19
REMARK    4  A    between atoms: O_20  and  C_27
REMARK    5  A    between atoms: C_24  and  C_29
REMARK                            x       y       z     vdW  Elec       q    Type
REMARK                         _______ _______ _______ _____ _____    ______ ____
ROOT
ATOM      1 CL   UNL     1      32.151 -12.864 -20.330  0.00  0.00    -0.079 Cl
ATOM      2 CL   UNL     1      32.646 -13.958 -25.634  0.00  0.00    -0.079 Cl
ATOM      3  C   UNL     1      33.751 -15.924 -22.338  0.00  0.00    +0.089 C 
ATOM      4  C   UNL     1      32.474 -13.551 -22.946  0.00  0.00    +0.168 C 
ATOM      5  C   UNL     1      33.319 -15.082 -21.313  0.00  0.00    +0.034 C 
ATOM      6  C   UNL     1      33.539 -15.568 -23.669  0.00  0.00    +0.034 C 
ATOM      7  C   UNL     1      32.674 -13.884 -21.620  0.00  0.00    +0.095 C 
ATOM      8  C   UNL     1      32.894 -14.370 -23.977  0.00  0.00    +0.095 C 
ENDROOT
BRANCH   3  11
ATOM      9  O   UNL     1      36.481 -16.790 -23.090  0.00  0.00    -0.245 OA
ATOM     10  O   UNL     1      35.867 -20.697 -20.779  0.00  0.00    -0.265 OA
ATOM     11  N   UNL     1      34.419 -17.164 -22.020  0.00  0.00    -0.179 N 
ATOM     12  N   UNL     1      33.629 -18.038 -21.314  0.00  0.00    -0.146 NA
ATOM     13  N   UNL     1      36.209 -18.706 -21.929  0.00  0.00    -0.271 N 
ATOM     14  C   UNL     1      35.738 -17.481 -22.390  0.00  0.00    +0.350 A 
ATOM     15  C   UNL     1      34.107 -19.170 -20.931  0.00  0.00    +0.225 A 
ATOM     16  C   UNL     1      35.490 -19.614 -21.199  0.00  0.00    +0.290 A 
ATOM     17  H   UNL     1      37.141 -18.940 -22.146  0.00  0.00    +0.174 HD
BRANCH  15  19
ATOM     18  N   UNL     1      32.332 -20.553 -19.635  0.00  0.00    -0.189 NA
ATOM     19  C   UNL     1      33.125 -19.934 -20.214  0.00  0.00    +0.127 C 
ENDBRANCH  15  19
ENDBRANCH   3  11
BRANCH   4  20
ATOM     20  O   UNL     1      31.830 -12.356 -23.252  0.00  0.00    -0.433 OA
BRANCH  20  27
ATOM     21  O   UNL     1      35.176  -8.304 -23.694  0.00  0.00    -0.269 OA
ATOM     22  N   UNL     1      34.665 -10.498 -24.112  0.00  0.00    -0.200 N 
ATOM     23  N   UNL     1      33.844 -11.573 -24.030  0.00  0.00    -0.141 NA
ATOM     24  C   UNL     1      33.092  -9.086 -22.881  0.00  0.00    +0.037 C 
ATOM     25  C   UNL     1      32.269 -10.134 -22.787  0.00  0.00    +0.060 C 
ATOM     26  C   UNL     1      34.396  -9.250 -23.591  0.00  0.00    +0.261 C 
ATOM     27  C   UNL     1      32.738 -11.369 -23.406  0.00  0.00    +0.244 C 
ATOM     28  H   UNL     1      35.521 -10.617 -24.583  0.00  0.00    +0.178 HD
BRANCH  24  29
ATOM     29  C   UNL     1      32.775  -7.743 -22.305  0.00  0.00    +0.027 C 
ATOM     30  C   UNL     1      31.457  -7.219 -22.871  0.00  0.00    +0.005 C 
ATOM     31  C   UNL     1      32.724  -7.803 -20.779  0.00  0.00    +0.005 C 
ENDBRANCH  24  29
ENDBRANCH  20  27
ENDBRANCH   4  20
TORSDOF 5
ENDMDL
MODEL 8
REMARK VINA RESULT:      -9.5      4.857     10.631
REMARK  Name = 15981237
REMARK  5 active torsions:
REMARK  status: ('A' for Active; 'I' for Inactive)
REMARK    1  A    between atoms: C_3  and  N_11
REMARK    2  A    between atoms: C_4  and  O_20
REMARK    3  A    between atoms: C_15  and  C_19
REMARK    4  A    between atoms: O_20  and  C_27
REMARK    5  A    between atoms: C_24  and  C_29
REMARK                            x       y       z     vdW  Elec       q    Type
REMARK                         _______ _______ _______ _____ _____    ______ ____
ROOT
ATOM      1 CL   UNL     1      32.468 -21.052 -19.711  0.00  0.00    -0.079 Cl
ATOM      2 CL   UNL     1      37.804 -20.694 -20.700  0.00  0.00    -0.079 Cl
ATOM      3  C   UNL     1      34.763 -18.164 -21.245  0.00  0.00    +0.089 C 
ATOM      4  C   UNL     1      35.115 -20.722 -20.263  0.00  0.00    +0.168 C 
ATOM      5  C   UNL     1      33.666 -18.889 -20.778  0.00  0.00    +0.034 C 
ATOM      6  C   UNL     1      36.036 -18.730 -21.217  0.00  0.00    +0.034 C 
ATOM      7  C   UNL     1      33.844 -20.181 -20.282  0.00  0.00    +0.095 C 
ATOM      8  C   UNL     1      36.215 -20.022 -20.722  0.00  0.00    +0.095 C 
ENDROOT
BRANCH   3  11
ATOM      9  O   UNL     1      34.838 -15.598 -19.769  0.00  0.00    -0.245 OA
ATOM     10  O   UNL     1      34.108 -13.336 -23.685  0.00  0.00    -0.265 OA
ATOM     11  N   UNL     1      34.578 -16.827 -21.759  0.00  0.00    -0.179 N 
ATOM     12  N   UNL     1      34.288 -16.799 -23.100  0.00  0.00    -0.146 NA
ATOM     13  N   UNL     1      34.512 -14.465 -21.694  0.00  0.00    -0.271 N 
ATOM     14  C   UNL     1      34.665 -15.654 -20.989  0.00  0.00    +0.350 A 
ATOM     15  C   UNL     1      34.133 -15.671 -23.701  0.00  0.00    +0.225 A 
ATOM     16  C   UNL     1      34.250 -14.358 -23.033  0.00  0.00    +0.290 A 
ATOM     17  H   UNL     1      34.601 -13.626 -21.185  0.00  0.00    +0.174 HD
BRANCH  15  19
ATOM     18  N   UNL     1      33.596 -16.010 -26.219  0.00  0.00    -0.189 NA
ATOM     19  C   UNL     1      33.835 -15.859 -25.093  0.00  0.00    +0.127 C 
ENDBRANCH  15  19
ENDBRANCH   3  11
BRANCH   4  20
ATOM     20  O   UNL     1      35.293 -22.011 -19.769  0.00  0.00    -0.433 OA
BRANCH  20  27
ATOM     21  O   UNL     1      36.795 -21.993 -14.714  0.00  0.00    -0.269 OA
ATOM     22  N   UNL     1      37.134 -21.320 -16.877  0.00  0.00    -0.200 N 
ATOM     23  N   UNL     1      36.795 -21.288 -18.189  0.00  0.00    -0.141 NA
ATOM     24  C   UNL     1      35.231 -22.753 -16.324  0.00  0.00    +0.037 C 
ATOM     25  C   UNL     1      34.880 -22.736 -17.613  0.00  0.00    +0.060 C 
ATOM     26  C   UNL     1      36.445 -21.997 -15.893  0.00  0.00    +0.261 C 
ATOM     27  C   UNL     1      35.741 -21.958 -18.497  0.00  0.00    +0.244 C 
ATOM     28  H   UNL     1      37.936 -20.817 -16.604  0.00  0.00    +0.178 HD
BRANCH  24  29
ATOM     29  C   UNL     1      34.465 -23.498 -15.277  0.00  0.00    +0.027 C 
ATOM     30  C   UNL     1      32.978 -23.523 -15.623  0.00  0.00    +0.005 C 
ATOM     31  C   UNL     1      35.007 -24.918 -15.113  0.00  0.00    +0.005 C 
ENDBRANCH  24  29
ENDBRANCH  20  27
ENDBRANCH   4  20
TORSDOF 5
ENDMDL
MODEL 9
REMARK VINA RESULT:      -9.3      2.926      4.943
REMARK  Name = 15981237
REMARK  5 active torsions:
REMARK  status: ('A' for Active; 'I' for Inactive)
REMARK    1  A    between atoms: C_3  and  N_11
REMARK    2  A    between atoms: C_4  and  O_20
REMARK    3  A    between atoms: C_15  and  C_19
REMARK    4  A    between atoms: O_20  and  C_27
REMARK    5  A    between atoms: C_24  and  C_29
REMARK                            x       y       z     vdW  Elec       q    Type
REMARK                         _______ _______ _______ _____ _____    ______ ____
ROOT
ATOM      1 CL   UNL     1      34.945 -14.739 -20.439  0.00  0.00    -0.079 Cl
ATOM      2 CL   UNL     1      34.675 -17.409 -25.169  0.00  0.00    -0.079 Cl
ATOM      3  C   UNL     1      34.363 -18.581 -21.364  0.00  0.00    +0.089 C 
ATOM      4  C   UNL     1      34.785 -16.213 -22.724  0.00  0.00    +0.168 C 
ATOM      5  C   UNL     1      34.530 -17.391 -20.656  0.00  0.00    +0.034 C 
ATOM      6  C   UNL     1      34.410 -18.577 -22.757  0.00  0.00    +0.034 C 
ATOM      7  C   UNL     1      34.743 -16.195 -21.343  0.00  0.00    +0.095 C 
ATOM      8  C   UNL     1      34.623 -17.382 -23.445  0.00  0.00    +0.095 C 
ENDROOT
BRANCH   3  11
ATOM      9  O   UNL     1      31.897 -20.214 -21.230  0.00  0.00    -0.245 OA
ATOM     10  O   UNL     1      34.076 -23.271 -18.606  0.00  0.00    -0.265 OA
ATOM     11  N   UNL     1      34.143 -19.818 -20.652  0.00  0.00    -0.179 N 
ATOM     12  N   UNL     1      35.234 -20.224 -19.924  0.00  0.00    -0.146 NA
ATOM     13  N   UNL     1      32.964 -21.748 -19.964  0.00  0.00    -0.271 N 
ATOM     14  C   UNL     1      32.943 -20.551 -20.671  0.00  0.00    +0.350 A 
ATOM     15  C   UNL     1      35.193 -21.331 -19.267  0.00  0.00    +0.225 A 
ATOM     16  C   UNL     1      34.021 -22.229 -19.239  0.00  0.00    +0.290 A 
ATOM     17  H   UNL     1      32.147 -22.298 -19.987  0.00  0.00    +0.174 HD
BRANCH  15  19
ATOM     18  N   UNL     1      37.425 -21.763 -18.013  0.00  0.00    -0.189 NA
ATOM     19  C   UNL     1      36.427 -21.571 -18.574  0.00  0.00    +0.127 C 
ENDBRANCH  15  19
ENDBRANCH   3  11
BRANCH   4  20
ATOM     20  O   UNL     1      34.998 -15.021 -23.408  0.00  0.00    -0.433 OA
BRANCH  20  27
ATOM     21  O   UNL     1      31.181 -11.460 -22.657  0.00  0.00    -0.269 OA
ATOM     22  N   UNL     1      31.994 -13.579 -22.345  0.00  0.00    -0.200 N 
ATOM     23  N   UNL     1      32.942 -14.534 -22.506  0.00  0.00    -0.141 NA
ATOM     24  C   UNL     1      33.304 -11.936 -23.597  0.00  0.00    +0.037 C 
ATOM     25  C   UNL     1      34.250 -12.863 -23.769  0.00  0.00    +0.060 C 
ATOM     26  C   UNL     1      32.072 -12.291 -22.832  0.00  0.00    +0.261 C 
ATOM     27  C   UNL     1      33.979 -14.167 -23.175  0.00  0.00    +0.244 C 
ATOM     28  H   UNL     1      31.186 -13.824 -21.838  0.00  0.00    +0.178 HD
BRANCH  24  29
ATOM     29  C   UNL     1      33.414 -10.545 -24.138  0.00  0.00    +0.027 C 
ATOM     30  C   UNL     1      33.246  -9.524 -23.015  0.00  0.00    +0.005 C 
ATOM     31  C   UNL     1      34.745 -10.345 -24.860  0.00  0.00    +0.005 C 
ENDBRANCH  24  29
ENDBRANCH  20  27
ENDBRANCH   4  20
TORSDOF 5
ENDMDL
