MODEL 1
REMARK VINA RESULT:     -10.2      0.000      0.000
REMARK  Name = 2343
REMARK  6 active torsions:
REMARK  status: ('A' for Active; 'I' for Inactive)
REMARK    1  A    between atoms: C_10  and  S_15
REMARK    2  A    between atoms: C_11  and  C_21
REMARK    3  A    between atoms: S_15  and  N_18
REMARK    4  A    between atoms: C_21  and  S_22
REMARK    5  A    between atoms: S_22  and  C_23
REMARK    6  A    between atoms: C_23  and  C_24
REMARK                            x       y       z     vdW  Elec       q    Type
REMARK                         _______ _______ _______ _____ _____    ______ ____
ROOT
ATOM      1 CL   UNL     1      38.545 -24.312 -14.219  0.00  0.00    -0.081 Cl
ATOM      2  S   UNL     1      32.296 -23.973 -14.237  0.00  0.00    +0.103 S 
ATOM      3  O   UNL     1      31.834 -25.344 -14.119  0.00  0.00    -0.146 OA
ATOM      4  O   UNL     1      31.961 -22.992 -13.221  0.00  0.00    -0.146 OA
ATOM      5  N   UNL     1      34.112 -23.204 -16.509  0.00  0.00    -0.298 N 
ATOM      6  N   UNL     1      31.858 -23.393 -15.694  0.00  0.00    -0.116 NA
ATOM      7  C   UNL     1      34.059 -24.069 -14.233  0.00  0.00    +0.144 C 
ATOM      8  C   UNL     1      34.766 -23.675 -15.368  0.00  0.00    +0.069 C 
ATOM      9  C   UNL     1      34.696 -24.541 -13.085  0.00  0.00    +0.042 C 
ATOM     10  C   UNL     1      36.086 -24.621 -13.069  0.00  0.00    +0.134 C 
ATOM     11  C   UNL     1      32.743 -23.097 -16.597  0.00  0.00    +0.141 C 
ATOM     12  C   UNL     1      36.163 -23.763 -15.332  0.00  0.00    +0.029 C 
ATOM     13  C   UNL     1      36.820 -24.233 -14.191  0.00  0.00    +0.078 C 
ATOM     14  H   UNL     1      34.654 -22.938 -17.286  0.00  0.00    +0.153 HD
ENDROOT
BRANCH  10  15
ATOM     15  S   UNL     1      36.858 -25.219 -11.614  0.00  0.00    +0.058 S 
ATOM     16  O   UNL     1      37.226 -26.609 -11.834  0.00  0.00    -0.153 OA
ATOM     17  O   UNL     1      37.867 -24.255 -11.203  0.00  0.00    -0.153 OA
BRANCH  15  18
ATOM     18  N   UNL     1      35.554 -25.157 -10.514  0.00  0.00    -0.203 NA
ATOM     19  H   UNL     1      35.841 -25.567  -9.625  0.00  0.00    +0.144 HD
ATOM     20  H   UNL     1      34.765 -25.682 -10.891  0.00  0.00    +0.144 HD
ENDBRANCH  15  18
ENDBRANCH  10  15
BRANCH  11  21
ATOM     21  C   UNL     1      32.213 -22.565 -17.911  0.00  0.00    +0.121 C 
BRANCH  21  22
ATOM     22  S   UNL     1      33.608 -22.405 -19.032  0.00  0.00    -0.128 S 
BRANCH  22  23
ATOM     23  C   UNL     1      33.080 -20.921 -19.924  0.00  0.00    +0.084 C 
BRANCH  23  24
ATOM     24  C   UNL     1      34.247 -20.136 -20.459  0.00  0.00    -0.011 C 
ATOM     25  C   UNL     1      35.541 -20.523 -20.133  0.00  0.00    -0.003 C 
ATOM     26  C   UNL     1      34.016 -19.033 -21.270  0.00  0.00    -0.003 C 
ATOM     27  C   UNL     1      36.622 -19.795 -20.628  0.00  0.00    -0.000 C 
ATOM     28  C   UNL     1      35.098 -18.304 -21.766  0.00  0.00    -0.000 C 
ATOM     29  C   UNL     1      36.401 -18.685 -21.444  0.00  0.00    -0.000 C 
ENDBRANCH  23  24
ENDBRANCH  22  23
ENDBRANCH  21  22
ENDBRANCH  11  21
TORSDOF 6
ENDMDL
MODEL 2
REMARK VINA RESULT:      -9.9      3.186      4.750
REMARK  Name = 2343
REMARK  6 active torsions:
REMARK  status: ('A' for Active; 'I' for Inactive)
REMARK    1  A    between atoms: C_10  and  S_15
REMARK    2  A    between atoms: C_11  and  C_21
REMARK    3  A    between atoms: S_15  and  N_18
REMARK    4  A    between atoms: C_21  and  S_22
REMARK    5  A    between atoms: S_22  and  C_23
REMARK    6  A    between atoms: C_23  and  C_24
REMARK                            x       y       z     vdW  Elec       q    Type
REMARK                         _______ _______ _______ _____ _____    ______ ____
ROOT
ATOM      1 CL   UNL     1      29.614 -23.462 -16.472  0.00  0.00    -0.081 Cl
ATOM      2  S   UNL     1      35.842 -23.004 -16.055  0.00  0.00    +0.103 S 
ATOM      3  O   UNL     1      36.089 -22.058 -14.981  0.00  0.00    -0.146 OA
ATOM      4  O   UNL     1      36.323 -24.370 -15.960  0.00  0.00    -0.146 OA
ATOM      5  N   UNL     1      34.165 -22.175 -18.411  0.00  0.00    -0.298 N 
ATOM      6  N   UNL     1      36.363 -22.357 -17.456  0.00  0.00    -0.116 NA
ATOM      7  C   UNL     1      34.085 -23.132 -16.173  0.00  0.00    +0.144 C 
ATOM      8  C   UNL     1      33.447 -22.704 -17.335  0.00  0.00    +0.069 C 
ATOM      9  C   UNL     1      33.383 -23.662 -15.090  0.00  0.00    +0.042 C 
ATOM     10  C   UNL     1      31.997 -23.769 -15.171  0.00  0.00    +0.134 C 
ATOM     11  C   UNL     1      35.535 -22.040 -18.402  0.00  0.00    +0.141 C 
ATOM     12  C   UNL     1      32.052 -22.820 -17.397  0.00  0.00    +0.029 C 
ATOM     13  C   UNL     1      31.332 -23.348 -16.323  0.00  0.00    +0.078 C 
ATOM     14  H   UNL     1      33.669 -21.886 -19.210  0.00  0.00    +0.153 HD
ENDROOT
BRANCH  10  15
ATOM     15  S   UNL     1      31.144 -24.437 -13.795  0.00  0.00    +0.058 S 
ATOM     16  O   UNL     1      30.710 -23.335 -12.951  0.00  0.00    -0.153 OA
ATOM     17  O   UNL     1      30.173 -25.404 -14.285  0.00  0.00    -0.153 OA
BRANCH  15  18
ATOM     18  N   UNL     1      32.409 -25.274 -13.010  0.00  0.00    -0.203 NA
ATOM     19  H   UNL     1      33.123 -24.609 -12.713  0.00  0.00    +0.144 HD
ATOM     20  H   UNL     1      32.821 -25.949 -13.655  0.00  0.00    +0.144 HD
ENDBRANCH  15  18
ENDBRANCH  10  15
BRANCH  11  21
ATOM     21  C   UNL     1      36.139 -21.449 -19.657  0.00  0.00    +0.121 C 
BRANCH  21  22
ATOM     22  S   UNL     1      34.870 -20.458 -20.455  0.00  0.00    -0.128 S 
BRANCH  22  23
ATOM     23  C   UNL     1      35.903 -19.082 -21.018  0.00  0.00    +0.084 C 
BRANCH  23  24
ATOM     24  C   UNL     1      35.434 -18.520 -22.332  0.00  0.00    -0.011 C 
ATOM     25  C   UNL     1      34.981 -19.383 -23.323  0.00  0.00    -0.003 C 
ATOM     26  C   UNL     1      35.460 -17.148 -22.540  0.00  0.00    -0.003 C 
ATOM     27  C   UNL     1      34.547 -18.862 -24.542  0.00  0.00    -0.000 C 
ATOM     28  C   UNL     1      35.024 -16.627 -23.759  0.00  0.00    -0.000 C 
ATOM     29  C   UNL     1      34.568 -17.485 -24.760  0.00  0.00    -0.000 C 
ENDBRANCH  23  24
ENDBRANCH  22  23
ENDBRANCH  21  22
ENDBRANCH  11  21
TORSDOF 6
ENDMDL
MODEL 3
REMARK VINA RESULT:      -9.8      3.033      4.359
REMARK  Name = 2343
REMARK  6 active torsions:
REMARK  status: ('A' for Active; 'I' for Inactive)
REMARK    1  A    between atoms: C_10  and  S_15
REMARK    2  A    between atoms: C_11  and  C_21
REMARK    3  A    between atoms: S_15  and  N_18
REMARK    4  A    between atoms: C_21  and  S_22
REMARK    5  A    between atoms: S_22  and  C_23
REMARK    6  A    between atoms: C_23  and  C_24
REMARK                            x       y       z     vdW  Elec       q    Type
REMARK                         _______ _______ _______ _____ _____    ______ ____
ROOT
ATOM      1 CL   UNL     1      37.616 -22.911 -14.020  0.00  0.00    -0.081 Cl
ATOM      2  S   UNL     1      33.841 -22.451 -18.991  0.00  0.00    +0.103 S 
ATOM      3  O   UNL     1      33.787 -23.786 -19.560  0.00  0.00    -0.146 OA
ATOM      4  O   UNL     1      32.636 -21.808 -18.500  0.00  0.00    -0.146 OA
ATOM      5  N   UNL     1      36.499 -21.081 -18.660  0.00  0.00    -0.298 N 
ATOM      6  N   UNL     1      34.575 -21.456 -20.051  0.00  0.00    -0.116 NA
ATOM      7  C   UNL     1      34.907 -22.580 -17.589  0.00  0.00    +0.144 C 
ATOM      8  C   UNL     1      36.114 -21.883 -17.583  0.00  0.00    +0.069 C 
ATOM      9  C   UNL     1      34.507 -23.385 -16.522  0.00  0.00    +0.042 C 
ATOM     10  C   UNL     1      35.338 -23.495 -15.411  0.00  0.00    +0.134 C 
ATOM     11  C   UNL     1      35.730 -20.925 -19.790  0.00  0.00    +0.141 C 
ATOM     12  C   UNL     1      36.935 -22.007 -16.456  0.00  0.00    +0.029 C 
ATOM     13  C   UNL     1      36.552 -22.808 -15.377  0.00  0.00    +0.078 C 
ATOM     14  H   UNL     1      37.361 -20.609 -18.610  0.00  0.00    +0.153 HD
ENDROOT
BRANCH  10  15
ATOM     15  S   UNL     1      34.808 -24.514 -14.087  0.00  0.00    +0.058 S 
ATOM     16  O   UNL     1      35.197 -23.874 -12.840  0.00  0.00    -0.153 OA
ATOM     17  O   UNL     1      33.418 -24.876 -14.317  0.00  0.00    -0.153 OA
BRANCH  15  18
ATOM     18  N   UNL     1      35.786 -25.891 -14.334  0.00  0.00    -0.203 NA
ATOM     19  H   UNL     1      36.587 -25.857 -13.702  0.00  0.00    +0.144 HD
ATOM     20  H   UNL     1      36.116 -25.906 -15.299  0.00  0.00    +0.144 HD
ENDBRANCH  15  18
ENDBRANCH  10  15
BRANCH  11  21
ATOM     21  C   UNL     1      36.309 -20.016 -20.853  0.00  0.00    +0.121 C 
BRANCH  21  22
ATOM     22  S   UNL     1      34.938 -19.372 -21.820  0.00  0.00    -0.128 S 
BRANCH  22  23
ATOM     23  C   UNL     1      35.762 -17.932 -22.547  0.00  0.00    +0.084 C 
BRANCH  23  24
ATOM     24  C   UNL     1      35.061 -16.645 -22.205  0.00  0.00    -0.011 C 
ATOM     25  C   UNL     1      34.734 -15.754 -23.219  0.00  0.00    -0.003 C 
ATOM     26  C   UNL     1      34.751 -16.364 -20.881  0.00  0.00    -0.003 C 
ATOM     27  C   UNL     1      34.085 -14.560 -22.902  0.00  0.00    -0.000 C 
ATOM     28  C   UNL     1      34.102 -15.170 -20.565  0.00  0.00    -0.000 C 
ATOM     29  C   UNL     1      33.769 -14.268 -21.576  0.00  0.00    -0.000 C 
ENDBRANCH  23  24
ENDBRANCH  22  23
ENDBRANCH  21  22
ENDBRANCH  11  21
TORSDOF 6
ENDMDL
MODEL 4
REMARK VINA RESULT:      -9.4      8.498     12.205
REMARK  Name = 2343
REMARK  6 active torsions:
REMARK  status: ('A' for Active; 'I' for Inactive)
REMARK    1  A    between atoms: C_10  and  S_15
REMARK    2  A    between atoms: C_11  and  C_21
REMARK    3  A    between atoms: S_15  and  N_18
REMARK    4  A    between atoms: C_21  and  S_22
REMARK    5  A    between atoms: S_22  and  C_23
REMARK    6  A    between atoms: C_23  and  C_24
REMARK                            x       y       z     vdW  Elec       q    Type
REMARK                         _______ _______ _______ _____ _____    ______ ____
ROOT
ATOM      1 CL   UNL     1      33.079 -10.310 -24.462  0.00  0.00    -0.081 Cl
ATOM      2  S   UNL     1      33.183 -15.587 -21.099  0.00  0.00    +0.103 S 
ATOM      3  O   UNL     1      33.882 -15.250 -19.872  0.00  0.00    -0.146 OA
ATOM      4  O   UNL     1      31.807 -16.048 -21.063  0.00  0.00    -0.146 OA
ATOM      5  N   UNL     1      34.540 -15.156 -23.749  0.00  0.00    -0.298 N 
ATOM      6  N   UNL     1      34.077 -16.662 -21.935  0.00  0.00    -0.116 NA
ATOM      7  C   UNL     1      33.155 -14.099 -22.048  0.00  0.00    +0.144 C 
ATOM      8  C   UNL     1      33.836 -14.052 -23.263  0.00  0.00    +0.069 C 
ATOM      9  C   UNL     1      32.447 -13.006 -21.549  0.00  0.00    +0.042 C 
ATOM     10  C   UNL     1      32.416 -11.826 -22.287  0.00  0.00    +0.134 C 
ATOM     11  C   UNL     1      34.613 -16.353 -23.075  0.00  0.00    +0.141 C 
ATOM     12  C   UNL     1      33.793 -12.856 -23.992  0.00  0.00    +0.029 C 
ATOM     13  C   UNL     1      33.089 -11.751 -23.507  0.00  0.00    +0.078 C 
ATOM     14  H   UNL     1      35.005 -15.074 -24.613  0.00  0.00    +0.153 HD
ENDROOT
BRANCH  10  15
ATOM     15  S   UNL     1      31.520 -10.470 -21.633  0.00  0.00    +0.058 S 
ATOM     16  O   UNL     1      32.470  -9.430 -21.273  0.00  0.00    -0.153 OA
ATOM     17  O   UNL     1      30.420 -10.171 -22.537  0.00  0.00    -0.153 OA
BRANCH  15  18
ATOM     18  N   UNL     1      30.889 -11.164 -20.206  0.00  0.00    -0.203 NA
ATOM     19  H   UNL     1      29.938 -11.491 -20.380  0.00  0.00    +0.144 HD
ATOM     20  H   UNL     1      30.877 -10.464 -19.464  0.00  0.00    +0.144 HD
ENDBRANCH  15  18
ENDBRANCH  10  15
BRANCH  11  21
ATOM     21  C   UNL     1      35.420 -17.438 -23.757  0.00  0.00    +0.121 C 
BRANCH  21  22
ATOM     22  S   UNL     1      34.781 -19.021 -23.196  0.00  0.00    -0.128 S 
BRANCH  22  23
ATOM     23  C   UNL     1      35.722 -19.172 -21.656  0.00  0.00    +0.084 C 
BRANCH  23  24
ATOM     24  C   UNL     1      35.104 -20.163 -20.708  0.00  0.00    -0.011 C 
ATOM     25  C   UNL     1      33.724 -20.186 -20.545  0.00  0.00    -0.003 C 
ATOM     26  C   UNL     1      35.919 -21.042 -20.008  0.00  0.00    -0.003 C 
ATOM     27  C   UNL     1      33.151 -21.104 -19.666  0.00  0.00    -0.000 C 
ATOM     28  C   UNL     1      35.345 -21.961 -19.128  0.00  0.00    -0.000 C 
ATOM     29  C   UNL     1      33.961 -21.992 -18.957  0.00  0.00    -0.000 C 
ENDBRANCH  23  24
ENDBRANCH  22  23
ENDBRANCH  21  22
ENDBRANCH  11  21
TORSDOF 6
ENDMDL
MODEL 5
REMARK VINA RESULT:      -9.2     10.700     13.435
REMARK  Name = 2343
REMARK  6 active torsions:
REMARK  status: ('A' for Active; 'I' for Inactive)
REMARK    1  A    between atoms: C_10  and  S_15
REMARK    2  A    between atoms: C_11  and  C_21
REMARK    3  A    between atoms: S_15  and  N_18
REMARK    4  A    between atoms: C_21  and  S_22
REMARK    5  A    between atoms: S_22  and  C_23
REMARK    6  A    between atoms: C_23  and  C_24
REMARK                            x       y       z     vdW  Elec       q    Type
REMARK                         _______ _______ _______ _____ _____    ______ ____
ROOT
ATOM      1 CL   UNL     1      33.328 -14.839 -26.901  0.00  0.00    -0.081 Cl
ATOM      2  S   UNL     1      33.132 -14.649 -20.649  0.00  0.00    +0.103 S 
ATOM      3  O   UNL     1      32.286 -15.761 -20.255  0.00  0.00    -0.146 OA
ATOM      4  O   UNL     1      34.518 -14.588 -20.222  0.00  0.00    -0.146 OA
ATOM      5  N   UNL     1      32.054 -12.548 -22.513  0.00  0.00    -0.298 N 
ATOM      6  N   UNL     1      32.394 -13.256 -20.241  0.00  0.00    -0.116 NA
ATOM      7  C   UNL     1      33.186 -14.702 -22.412  0.00  0.00    +0.144 C 
ATOM      8  C   UNL     1      32.642 -13.648 -23.144  0.00  0.00    +0.069 C 
ATOM      9  C   UNL     1      33.776 -15.807 -23.026  0.00  0.00    +0.042 C 
ATOM     10  C   UNL     1      33.826 -15.861 -24.417  0.00  0.00    +0.134 C 
ATOM     11  C   UNL     1      31.970 -12.426 -21.145  0.00  0.00    +0.141 C 
ATOM     12  C   UNL     1      32.702 -13.720 -24.541  0.00  0.00    +0.029 C 
ATOM     13  C   UNL     1      33.289 -14.819 -25.174  0.00  0.00    +0.078 C 
ATOM     14  H   UNL     1      31.683 -11.828 -23.072  0.00  0.00    +0.153 HD
ENDROOT
BRANCH  10  15
ATOM     15  S   UNL     1      34.572 -17.262 -25.158  0.00  0.00    +0.058 S 
ATOM     16  O   UNL     1      33.519 -18.192 -25.532  0.00  0.00    -0.153 OA
ATOM     17  O   UNL     1      35.522 -16.798 -26.158  0.00  0.00    -0.153 OA
BRANCH  15  18
ATOM     18  N   UNL     1      35.436 -17.902 -23.832  0.00  0.00    -0.203 NA
ATOM     19  H   UNL     1      35.009 -18.782 -23.542  0.00  0.00    +0.144 HD
ATOM     20  H   UNL     1      35.408 -17.240 -23.056  0.00  0.00    +0.144 HD
ENDBRANCH  15  18
ENDBRANCH  10  15
BRANCH  11  21
ATOM     21  C   UNL     1      31.302 -11.165 -20.642  0.00  0.00    +0.121 C 
BRANCH  21  22
ATOM     22  S   UNL     1      31.171 -10.031 -22.030  0.00  0.00    -0.128 S 
BRANCH  22  23
ATOM     23  C   UNL     1      32.397  -8.807 -21.507  0.00  0.00    +0.084 C 
BRANCH  23  24
ATOM     24  C   UNL     1      32.862  -7.945 -22.649  0.00  0.00    -0.011 C 
ATOM     25  C   UNL     1      31.950  -7.126 -23.305  0.00  0.00    -0.003 C 
ATOM     26  C   UNL     1      34.195  -7.980 -23.036  0.00  0.00    -0.003 C 
ATOM     27  C   UNL     1      32.381  -6.329 -24.364  0.00  0.00    -0.000 C 
ATOM     28  C   UNL     1      34.626  -7.181 -24.096  0.00  0.00    -0.000 C 
ATOM     29  C   UNL     1      33.718  -6.355 -24.760  0.00  0.00    -0.000 C 
ENDBRANCH  23  24
ENDBRANCH  22  23
ENDBRANCH  21  22
ENDBRANCH  11  21
TORSDOF 6
ENDMDL
MODEL 6
REMARK VINA RESULT:      -8.9      9.754     13.184
REMARK  Name = 2343
REMARK  6 active torsions:
REMARK  status: ('A' for Active; 'I' for Inactive)
REMARK    1  A    between atoms: C_10  and  S_15
REMARK    2  A    between atoms: C_11  and  C_21
REMARK    3  A    between atoms: S_15  and  N_18
REMARK    4  A    between atoms: C_21  and  S_22
REMARK    5  A    between atoms: S_22  and  C_23
REMARK    6  A    between atoms: C_23  and  C_24
REMARK                            x       y       z     vdW  Elec       q    Type
REMARK                         _______ _______ _______ _____ _____    ______ ____
ROOT
ATOM      1 CL   UNL     1      31.163  -9.616 -19.469  0.00  0.00    -0.081 Cl
ATOM      2  S   UNL     1      33.169 -13.855 -23.613  0.00  0.00    +0.103 S 
ATOM      3  O   UNL     1      32.112 -13.957 -24.604  0.00  0.00    -0.146 OA
ATOM      4  O   UNL     1      34.500 -13.420 -23.995  0.00  0.00    -0.146 OA
ATOM      5  N   UNL     1      32.547 -14.376 -20.716  0.00  0.00    -0.298 N 
ATOM      6  N   UNL     1      33.285 -15.273 -22.820  0.00  0.00    -0.116 NA
ATOM      7  C   UNL     1      32.603 -12.660 -22.444  0.00  0.00    +0.144 C 
ATOM      8  C   UNL     1      32.355 -13.055 -21.130  0.00  0.00    +0.069 C 
ATOM      9  C   UNL     1      32.417 -11.346 -22.873  0.00  0.00    +0.042 C 
ATOM     10  C   UNL     1      31.971 -10.393 -21.961  0.00  0.00    +0.134 C 
ATOM     11  C   UNL     1      32.985 -15.369 -21.562  0.00  0.00    +0.141 C 
ATOM     12  C   UNL     1      31.908 -12.082 -20.227  0.00  0.00    +0.029 C 
ATOM     13  C   UNL     1      31.716 -10.761 -20.639  0.00  0.00    +0.078 C 
ATOM     14  H   UNL     1      32.358 -14.606 -19.778  0.00  0.00    +0.153 HD
ENDROOT
BRANCH  10  15
ATOM     15  S   UNL     1      31.746  -8.752 -22.530  0.00  0.00    +0.058 S 
ATOM     16  O   UNL     1      30.484  -8.691 -23.251  0.00  0.00    -0.153 OA
ATOM     17  O   UNL     1      31.995  -7.845 -21.420  0.00  0.00    -0.153 OA
BRANCH  15  18
ATOM     18  N   UNL     1      33.031  -8.623 -23.647  0.00  0.00    -0.203 NA
ATOM     19  H   UNL     1      33.074  -9.470 -24.214  0.00  0.00    +0.144 HD
ATOM     20  H   UNL     1      33.910  -8.508 -23.142  0.00  0.00    +0.144 HD
ENDBRANCH  15  18
ENDBRANCH  10  15
BRANCH  11  21
ATOM     21  C   UNL     1      33.136 -16.739 -20.936  0.00  0.00    +0.121 C 
BRANCH  21  22
ATOM     22  S   UNL     1      34.794 -17.324 -21.305  0.00  0.00    -0.128 S 
BRANCH  22  23
ATOM     23  C   UNL     1      34.375 -18.964 -21.948  0.00  0.00    +0.084 C 
BRANCH  23  24
ATOM     24  C   UNL     1      34.450 -20.026 -20.885  0.00  0.00    -0.011 C 
ATOM     25  C   UNL     1      33.277 -20.542 -20.348  0.00  0.00    -0.003 C 
ATOM     26  C   UNL     1      35.690 -20.477 -20.453  0.00  0.00    -0.003 C 
ATOM     27  C   UNL     1      33.347 -21.526 -19.362  0.00  0.00    -0.000 C 
ATOM     28  C   UNL     1      35.760 -21.462 -19.467  0.00  0.00    -0.000 C 
ATOM     29  C   UNL     1      34.588 -21.986 -18.921  0.00  0.00    -0.000 C 
ENDBRANCH  23  24
ENDBRANCH  22  23
ENDBRANCH  21  22
ENDBRANCH  11  21
TORSDOF 6
ENDMDL
MODEL 7
REMARK VINA RESULT:      -8.8      2.753      4.699
REMARK  Name = 2343
REMARK  6 active torsions:
REMARK  status: ('A' for Active; 'I' for Inactive)
REMARK    1  A    between atoms: C_10  and  S_15
REMARK    2  A    between atoms: C_11  and  C_21
REMARK    3  A    between atoms: S_15  and  N_18
REMARK    4  A    between atoms: C_21  and  S_22
REMARK    5  A    between atoms: S_22  and  C_23
REMARK    6  A    between atoms: C_23  and  C_24
REMARK                            x       y       z     vdW  Elec       q    Type
REMARK                         _______ _______ _______ _____ _____    ______ ____
ROOT
ATOM      1 CL   UNL     1      30.199 -23.098 -16.838  0.00  0.00    -0.081 Cl
ATOM      2  S   UNL     1      35.637 -24.106 -13.908  0.00  0.00    +0.103 S 
ATOM      3  O   UNL     1      35.567 -23.327 -12.685  0.00  0.00    -0.146 OA
ATOM      4  O   UNL     1      35.785 -25.549 -13.858  0.00  0.00    -0.146 OA
ATOM      5  N   UNL     1      35.290 -22.737 -16.565  0.00  0.00    -0.298 N 
ATOM      6  N   UNL     1      36.807 -23.489 -14.858  0.00  0.00    -0.116 NA
ATOM      7  C   UNL     1      34.103 -23.821 -14.735  0.00  0.00    +0.144 C 
ATOM      8  C   UNL     1      34.103 -23.169 -15.967  0.00  0.00    +0.069 C 
ATOM      9  C   UNL     1      32.928 -24.259 -14.125  0.00  0.00    +0.042 C 
ATOM     10  C   UNL     1      31.712 -24.040 -14.766  0.00  0.00    +0.134 C 
ATOM     11  C   UNL     1      36.527 -22.919 -15.990  0.00  0.00    +0.141 C 
ATOM     12  C   UNL     1      32.870 -22.959 -16.597  0.00  0.00    +0.029 C 
ATOM     13  C   UNL     1      31.682 -23.391 -16.001  0.00  0.00    +0.078 C 
ATOM     14  H   UNL     1      35.239 -22.281 -17.435  0.00  0.00    +0.153 HD
ENDROOT
BRANCH  10  15
ATOM     15  S   UNL     1      30.253 -24.600 -13.975  0.00  0.00    +0.058 S 
ATOM     16  O   UNL     1      30.541 -24.771 -12.560  0.00  0.00    -0.153 OA
ATOM     17  O   UNL     1      29.149 -23.751 -14.396  0.00  0.00    -0.153 OA
BRANCH  15  18
ATOM     18  N   UNL     1      30.070 -26.138 -14.694  0.00  0.00    -0.203 NA
ATOM     19  H   UNL     1      29.612 -26.769 -14.036  0.00  0.00    +0.144 HD
ATOM     20  H   UNL     1      30.989 -26.511 -14.937  0.00  0.00    +0.144 HD
ENDBRANCH  15  18
ENDBRANCH  10  15
BRANCH  11  21
ATOM     21  C   UNL     1      37.700 -22.386 -16.784  0.00  0.00    +0.121 C 
BRANCH  21  22
ATOM     22  S   UNL     1      37.155 -20.891 -17.619  0.00  0.00    -0.128 S 
BRANCH  22  23
ATOM     23  C   UNL     1      36.729 -21.608 -19.226  0.00  0.00    +0.084 C 
BRANCH  23  24
ATOM     24  C   UNL     1      35.537 -20.934 -19.850  0.00  0.00    -0.011 C 
ATOM     25  C   UNL     1      34.259 -21.391 -19.555  0.00  0.00    -0.003 C 
ATOM     26  C   UNL     1      35.730 -19.864 -20.714  0.00  0.00    -0.003 C 
ATOM     27  C   UNL     1      33.155 -20.767 -20.134  0.00  0.00    -0.000 C 
ATOM     28  C   UNL     1      34.625 -19.240 -21.293  0.00  0.00    -0.000 C 
ATOM     29  C   UNL     1      33.337 -19.691 -21.003  0.00  0.00    -0.000 C 
ENDBRANCH  23  24
ENDBRANCH  22  23
ENDBRANCH  21  22
ENDBRANCH  11  21
TORSDOF 6
ENDMDL
MODEL 8
REMARK VINA RESULT:      -8.8     10.797     14.012
REMARK  Name = 2343
REMARK  6 active torsions:
REMARK  status: ('A' for Active; 'I' for Inactive)
REMARK    1  A    between atoms: C_10  and  S_15
REMARK    2  A    between atoms: C_11  and  C_21
REMARK    3  A    between atoms: S_15  and  N_18
REMARK    4  A    between atoms: C_21  and  S_22
REMARK    5  A    between atoms: S_22  and  C_23
REMARK    6  A    between atoms: C_23  and  C_24
REMARK                            x       y       z     vdW  Elec       q    Type
REMARK                         _______ _______ _______ _____ _____    ______ ____
ROOT
ATOM      1 CL   UNL     1      35.161 -16.720 -20.805  0.00  0.00    -0.081 Cl
ATOM      2  S   UNL     1      33.404 -13.799 -26.054  0.00  0.00    +0.103 S 
ATOM      3  O   UNL     1      34.510 -13.969 -26.979  0.00  0.00    -0.146 OA
ATOM      4  O   UNL     1      32.090 -14.329 -26.368  0.00  0.00    -0.146 OA
ATOM      5  N   UNL     1      33.884 -12.496 -23.385  0.00  0.00    -0.298 N 
ATOM      6  N   UNL     1      33.261 -12.218 -25.689  0.00  0.00    -0.116 NA
ATOM      7  C   UNL     1      33.900 -14.622 -24.573  0.00  0.00    +0.144 C 
ATOM      8  C   UNL     1      34.085 -13.879 -23.408  0.00  0.00    +0.069 C 
ATOM      9  C   UNL     1      34.096 -16.003 -24.614  0.00  0.00    +0.042 C 
ATOM     10  C   UNL     1      34.487 -16.664 -23.453  0.00  0.00    +0.134 C 
ATOM     11  C   UNL     1      33.497 -11.777 -24.492  0.00  0.00    +0.141 C 
ATOM     12  C   UNL     1      34.478 -14.563 -22.251  0.00  0.00    +0.029 C 
ATOM     13  C   UNL     1      34.678 -15.945 -22.272  0.00  0.00    +0.078 C 
ATOM     14  H   UNL     1      34.027 -12.015 -22.538  0.00  0.00    +0.153 HD
ENDROOT
BRANCH  10  15
ATOM     15  S   UNL     1      34.726 -18.398 -23.535  0.00  0.00    +0.058 S 
ATOM     16  O   UNL     1      33.980 -19.011 -22.448  0.00  0.00    -0.153 OA
ATOM     17  O   UNL     1      34.497 -18.825 -24.907  0.00  0.00    -0.153 OA
BRANCH  15  18
ATOM     18  N   UNL     1      36.395 -18.506 -23.195  0.00  0.00    -0.203 NA
ATOM     19  H   UNL     1      36.895 -18.801 -24.034  0.00  0.00    +0.144 HD
ATOM     20  H   UNL     1      36.547 -19.189 -22.452  0.00  0.00    +0.144 HD
ENDBRANCH  15  18
ENDBRANCH  10  15
BRANCH  11  21
ATOM     21  C   UNL     1      33.328 -10.289 -24.277  0.00  0.00    +0.121 C 
BRANCH  21  22
ATOM     22  S   UNL     1      34.943  -9.526 -24.473  0.00  0.00    -0.128 S 
BRANCH  22  23
ATOM     23  C   UNL     1      34.664  -8.026 -23.498  0.00  0.00    +0.084 C 
BRANCH  23  24
ATOM     24  C   UNL     1      33.974  -6.952 -24.293  0.00  0.00    -0.011 C 
ATOM     25  C   UNL     1      34.599  -6.423 -25.416  0.00  0.00    -0.003 C 
ATOM     26  C   UNL     1      32.723  -6.501 -23.895  0.00  0.00    -0.003 C 
ATOM     27  C   UNL     1      33.960  -5.427 -26.153  0.00  0.00    -0.000 C 
ATOM     28  C   UNL     1      32.084  -5.504 -24.632  0.00  0.00    -0.000 C 
ATOM     29  C   UNL     1      32.702  -4.967 -25.762  0.00  0.00    -0.000 C 
ENDBRANCH  23  24
ENDBRANCH  22  23
ENDBRANCH  21  22
ENDBRANCH  11  21
TORSDOF 6
ENDMDL
MODEL 9
REMARK VINA RESULT:      -8.7     11.410     14.524
REMARK  Name = 2343
REMARK  6 active torsions:
REMARK  status: ('A' for Active; 'I' for Inactive)
REMARK    1  A    between atoms: C_10  and  S_15
REMARK    2  A    between atoms: C_11  and  C_21
REMARK    3  A    between atoms: S_15  and  N_18
REMARK    4  A    between atoms: C_21  and  S_22
REMARK    5  A    between atoms: S_22  and  C_23
REMARK    6  A    between atoms: C_23  and  C_24
REMARK                            x       y       z     vdW  Elec       q    Type
REMARK                         _______ _______ _______ _____ _____    ______ ____
ROOT
ATOM      1 CL   UNL     1      32.290 -16.037 -20.567  0.00  0.00    -0.081 Cl
ATOM      2  S   UNL     1      33.850 -11.349 -24.409  0.00  0.00    +0.103 S 
ATOM      3  O   UNL     1      35.220 -11.009 -24.067  0.00  0.00    -0.146 OA
ATOM      4  O   UNL     1      33.516 -11.816 -25.742  0.00  0.00    -0.146 OA
ATOM      5  N   UNL     1      31.721 -11.257 -22.286  0.00  0.00    -0.298 N 
ATOM      6  N   UNL     1      32.886 -10.091 -24.035  0.00  0.00    -0.116 NA
ATOM      7  C   UNL     1      33.410 -12.671 -23.324  0.00  0.00    +0.144 C 
ATOM      8  C   UNL     1      32.397 -12.475 -22.387  0.00  0.00    +0.069 C 
ATOM      9  C   UNL     1      34.095 -13.880 -23.438  0.00  0.00    +0.042 C 
ATOM     10  C   UNL     1      33.758 -14.931 -22.589  0.00  0.00    +0.134 C 
ATOM     11  C   UNL     1      32.000 -10.176 -23.091  0.00  0.00    +0.141 C 
ATOM     12  C   UNL     1      32.072 -13.544 -21.542  0.00  0.00    +0.029 C 
ATOM     13  C   UNL     1      32.747 -14.763 -21.641  0.00  0.00    +0.078 C 
ATOM     14  H   UNL     1      31.013 -11.167 -21.608  0.00  0.00    +0.153 HD
ENDROOT
BRANCH  10  15
ATOM     15  S   UNL     1      34.637 -16.437 -22.755  0.00  0.00    +0.058 S 
ATOM     16  O   UNL     1      35.354 -16.683 -21.514  0.00  0.00    -0.153 OA
ATOM     17  O   UNL     1      33.726 -17.442 -23.282  0.00  0.00    -0.153 OA
BRANCH  15  18
ATOM     18  N   UNL     1      35.759 -16.018 -23.972  0.00  0.00    -0.203 NA
ATOM     19  H   UNL     1      36.192 -16.865 -24.341  0.00  0.00    +0.144 HD
ATOM     20  H   UNL     1      36.480 -15.414 -23.576  0.00  0.00    +0.144 HD
ENDBRANCH  15  18
ENDBRANCH  10  15
BRANCH  11  21
ATOM     21  C   UNL     1      31.163  -8.941 -22.838  0.00  0.00    +0.121 C 
BRANCH  21  22
ATOM     22  S   UNL     1      31.992  -7.976 -21.570  0.00  0.00    -0.128 S 
BRANCH  22  23
ATOM     23  C   UNL     1      31.816  -6.333 -22.309  0.00  0.00    +0.084 C 
BRANCH  23  24
ATOM     24  C   UNL     1      32.634  -6.184 -23.563  0.00  0.00    -0.011 C 
ATOM     25  C   UNL     1      33.856  -6.838 -23.665  0.00  0.00    -0.003 C 
ATOM     26  C   UNL     1      32.159  -5.394 -24.601  0.00  0.00    -0.003 C 
ATOM     27  C   UNL     1      34.614  -6.699 -24.827  0.00  0.00    -0.000 C 
ATOM     28  C   UNL     1      32.918  -5.256 -25.764  0.00  0.00    -0.000 C 
ATOM     29  C   UNL     1      34.146  -5.908 -25.876  0.00  0.00    -0.000 C 
ENDBRANCH  23  24
ENDBRANCH  22  23
ENDBRANCH  21  22
ENDBRANCH  11  21
TORSDOF 6
ENDMDL
