MODEL 1
REMARK VINA RESULT:      -6.4      0.000      0.000
REMARK  Name = 439767
REMARK  3 active torsions:
REMARK  status: ('A' for Active; 'I' for Inactive)
REMARK    1  A    between atoms: C_1  and  C_7
REMARK    2  A    between atoms: C_7  and  O_8
REMARK    3  A    between atoms: C_7  and  C_11
REMARK                            x       y       z     vdW  Elec       q    Type
REMARK                         _______ _______ _______ _____ _____    ______ ____
ROOT
ATOM      1  C   UNL     1      34.816 -19.280 -21.105  0.00  0.00    +0.019 C 
ATOM      2  C   UNL     1      33.517 -19.684 -20.795  0.00  0.00    -0.001 C 
ATOM      3  C   UNL     1      35.906 -20.012 -20.634  0.00  0.00    -0.001 C 
ATOM      4  C   UNL     1      33.308 -20.820 -20.014  0.00  0.00    -0.000 C 
ATOM      5  C   UNL     1      35.697 -21.148 -19.853  0.00  0.00    -0.000 C 
ATOM      6  C   UNL     1      34.398 -21.553 -19.543  0.00  0.00    -0.000 C 
ENDROOT
BRANCH   1   7
ATOM      7  C   UNL     1      35.038 -18.064 -21.942  0.00  0.00    +0.225 C 
BRANCH   7   8
ATOM      8  O   UNL     1      36.320 -18.137 -22.580  0.00  0.00    -0.368 OA
ATOM      9  H   UNL     1      36.247 -17.816 -23.492  0.00  0.00    +0.212 HD
ENDBRANCH   7   8
BRANCH   7  11
ATOM     10  N   UNL     1      34.872 -15.835 -20.542  0.00  0.00    -0.193 NA
ATOM     11  C   UNL     1      34.950 -16.814 -21.161  0.00  0.00    +0.107 C 
ENDBRANCH   7  11
ENDBRANCH   1   7
TORSDOF 3
ENDMDL
MODEL 2
REMARK VINA RESULT:      -6.2      1.760      2.371
REMARK  Name = 439767
REMARK  3 active torsions:
REMARK  status: ('A' for Active; 'I' for Inactive)
REMARK    1  A    between atoms: C_1  and  C_7
REMARK    2  A    between atoms: C_7  and  O_8
REMARK    3  A    between atoms: C_7  and  C_11
REMARK                            x       y       z     vdW  Elec       q    Type
REMARK                         _______ _______ _______ _____ _____    ______ ____
ROOT
ATOM      1  C   UNL     1      35.128 -19.810 -20.675  0.00  0.00    +0.019 C 
ATOM      2  C   UNL     1      35.916 -20.778 -20.051  0.00  0.00    -0.001 C 
ATOM      3  C   UNL     1      33.737 -19.912 -20.637  0.00  0.00    -0.001 C 
ATOM      4  C   UNL     1      35.313 -21.848 -19.390  0.00  0.00    -0.000 C 
ATOM      5  C   UNL     1      33.134 -20.982 -19.976  0.00  0.00    -0.000 C 
ATOM      6  C   UNL     1      33.922 -21.950 -19.352  0.00  0.00    -0.000 C 
ENDROOT
BRANCH   1   7
ATOM      7  C   UNL     1      35.773 -18.666 -21.382  0.00  0.00    +0.225 C 
BRANCH   7   8
ATOM      8  O   UNL     1      35.421 -17.433 -20.740  0.00  0.00    -0.368 OA
ATOM      9  H   UNL     1      34.897 -17.619 -19.946  0.00  0.00    +0.212 HD
ENDBRANCH   7   8
BRANCH   7  11
ATOM     10  N   UNL     1      35.105 -18.552 -23.930  0.00  0.00    -0.193 NA
ATOM     11  C   UNL     1      35.404 -18.599 -22.810  0.00  0.00    +0.107 C 
ENDBRANCH   7  11
ENDBRANCH   1   7
TORSDOF 3
ENDMDL
MODEL 3
REMARK VINA RESULT:      -6.2      3.542      4.725
REMARK  Name = 439767
REMARK  3 active torsions:
REMARK  status: ('A' for Active; 'I' for Inactive)
REMARK    1  A    between atoms: C_1  and  C_7
REMARK    2  A    between atoms: C_7  and  O_8
REMARK    3  A    between atoms: C_7  and  C_11
REMARK                            x       y       z     vdW  Elec       q    Type
REMARK                         _______ _______ _______ _____ _____    ______ ____
ROOT
ATOM      1  C   UNL     1      34.131 -21.501 -19.546  0.00  0.00    +0.019 C 
ATOM      2  C   UNL     1      32.981 -20.812 -19.934  0.00  0.00    -0.001 C 
ATOM      3  C   UNL     1      35.386 -21.055 -19.960  0.00  0.00    -0.001 C 
ATOM      4  C   UNL     1      33.087 -19.677 -20.738  0.00  0.00    -0.000 C 
ATOM      5  C   UNL     1      35.491 -19.920 -20.764  0.00  0.00    -0.000 C 
ATOM      6  C   UNL     1      34.342 -19.231 -21.152  0.00  0.00    -0.000 C 
ENDROOT
BRANCH   1   7
ATOM      7  C   UNL     1      34.017 -22.715 -18.685  0.00  0.00    +0.225 C 
BRANCH   7   8
ATOM      8  O   UNL     1      34.020 -23.894 -19.500  0.00  0.00    -0.368 OA
ATOM      9  H   UNL     1      34.146 -24.675 -18.939  0.00  0.00    +0.212 HD
ENDBRANCH   7   8
BRANCH   7  11
ATOM     10  N   UNL     1      31.849 -22.705 -17.184  0.00  0.00    -0.193 NA
ATOM     11  C   UNL     1      32.803 -22.703 -17.845  0.00  0.00    +0.107 C 
ENDBRANCH   7  11
ENDBRANCH   1   7
TORSDOF 3
ENDMDL
MODEL 4
REMARK VINA RESULT:      -6.2      3.545      4.942
REMARK  Name = 439767
REMARK  3 active torsions:
REMARK  status: ('A' for Active; 'I' for Inactive)
REMARK    1  A    between atoms: C_1  and  C_7
REMARK    2  A    between atoms: C_7  and  O_8
REMARK    3  A    between atoms: C_7  and  C_11
REMARK                            x       y       z     vdW  Elec       q    Type
REMARK                         _______ _______ _______ _____ _____    ______ ____
ROOT
ATOM      1  C   UNL     1      34.060 -21.376 -19.604  0.00  0.00    +0.019 C 
ATOM      2  C   UNL     1      35.417 -21.145 -19.831  0.00  0.00    -0.001 C 
ATOM      3  C   UNL     1      33.104 -20.531 -20.168  0.00  0.00    -0.001 C 
ATOM      4  C   UNL     1      35.818 -20.069 -20.623  0.00  0.00    -0.000 C 
ATOM      5  C   UNL     1      33.506 -19.454 -20.959  0.00  0.00    -0.000 C 
ATOM      6  C   UNL     1      34.863 -19.224 -21.187  0.00  0.00    -0.000 C 
ENDROOT
BRANCH   1   7
ATOM      7  C   UNL     1      33.632 -22.527 -18.758  0.00  0.00    +0.225 C 
BRANCH   7   8
ATOM      8  O   UNL     1      32.300 -22.310 -18.274  0.00  0.00    -0.368 OA
ATOM      9  H   UNL     1      32.015 -23.078 -17.754  0.00  0.00    +0.212 HD
ENDBRANCH   7   8
BRANCH   7  11
ATOM     10  N   UNL     1      35.257 -22.946 -16.723  0.00  0.00    -0.193 NA
ATOM     11  C   UNL     1      34.537 -22.760 -17.615  0.00  0.00    +0.107 C 
ENDBRANCH   7  11
ENDBRANCH   1   7
TORSDOF 3
ENDMDL
MODEL 5
REMARK VINA RESULT:      -6.2      3.620      4.784
REMARK  Name = 439767
REMARK  3 active torsions:
REMARK  status: ('A' for Active; 'I' for Inactive)
REMARK    1  A    between atoms: C_1  and  C_7
REMARK    2  A    between atoms: C_7  and  O_8
REMARK    3  A    between atoms: C_7  and  C_11
REMARK                            x       y       z     vdW  Elec       q    Type
REMARK                         _______ _______ _______ _____ _____    ______ ____
ROOT
ATOM      1  C   UNL     1      34.014 -21.485 -19.512  0.00  0.00    +0.019 C 
ATOM      2  C   UNL     1      33.086 -20.616 -20.088  0.00  0.00    -0.001 C 
ATOM      3  C   UNL     1      35.378 -21.299 -19.739  0.00  0.00    -0.001 C 
ATOM      4  C   UNL     1      33.522 -19.563 -20.892  0.00  0.00    -0.000 C 
ATOM      5  C   UNL     1      35.814 -20.246 -20.543  0.00  0.00    -0.000 C 
ATOM      6  C   UNL     1      34.886 -19.377 -21.118  0.00  0.00    -0.000 C 
ENDROOT
BRANCH   1   7
ATOM      7  C   UNL     1      33.547 -22.611 -18.652  0.00  0.00    +0.225 C 
BRANCH   7   8
ATOM      8  O   UNL     1      32.220 -22.346 -18.178  0.00  0.00    -0.368 OA
ATOM      9  H   UNL     1      31.692 -21.956 -18.892  0.00  0.00    +0.212 HD
ENDBRANCH   7   8
BRANCH   7  11
ATOM     10  N   UNL     1      35.149 -23.047 -16.603  0.00  0.00    -0.193 NA
ATOM     11  C   UNL     1      34.439 -22.854 -17.501  0.00  0.00    +0.107 C 
ENDBRANCH   7  11
ENDBRANCH   1   7
TORSDOF 3
ENDMDL
MODEL 6
REMARK VINA RESULT:      -5.8      2.533      4.329
REMARK  Name = 439767
REMARK  3 active torsions:
REMARK  status: ('A' for Active; 'I' for Inactive)
REMARK    1  A    between atoms: C_1  and  C_7
REMARK    2  A    between atoms: C_7  and  O_8
REMARK    3  A    between atoms: C_7  and  C_11
REMARK                            x       y       z     vdW  Elec       q    Type
REMARK                         _______ _______ _______ _____ _____    ______ ____
ROOT
ATOM      1  C   UNL     1      34.668 -18.251 -22.408  0.00  0.00    +0.019 C 
ATOM      2  C   UNL     1      34.795 -16.886 -22.668  0.00  0.00    -0.001 C 
ATOM      3  C   UNL     1      34.579 -19.157 -23.465  0.00  0.00    -0.001 C 
ATOM      4  C   UNL     1      34.831 -16.428 -23.985  0.00  0.00    -0.000 C 
ATOM      5  C   UNL     1      34.615 -18.698 -24.782  0.00  0.00    -0.000 C 
ATOM      6  C   UNL     1      34.742 -17.334 -25.042  0.00  0.00    -0.000 C 
ENDROOT
BRANCH   1   7
ATOM      7  C   UNL     1      34.630 -18.741 -21.000  0.00  0.00    +0.225 C 
BRANCH   7   8
ATOM      8  O   UNL     1      35.901 -19.300 -20.641  0.00  0.00    -0.368 OA
ATOM      9  H   UNL     1      36.127 -20.013 -21.259  0.00  0.00    +0.212 HD
ENDBRANCH   7   8
BRANCH   7  11
ATOM     10  N   UNL     1      32.743 -20.541 -20.608  0.00  0.00    -0.193 NA
ATOM     11  C   UNL     1      33.571 -19.745 -20.776  0.00  0.00    +0.107 C 
ENDBRANCH   7  11
ENDBRANCH   1   7
TORSDOF 3
ENDMDL
MODEL 7
REMARK VINA RESULT:      -5.7      4.656      5.776
REMARK  Name = 439767
REMARK  3 active torsions:
REMARK  status: ('A' for Active; 'I' for Inactive)
REMARK    1  A    between atoms: C_1  and  C_7
REMARK    2  A    between atoms: C_7  and  O_8
REMARK    3  A    between atoms: C_7  and  C_11
REMARK                            x       y       z     vdW  Elec       q    Type
REMARK                         _______ _______ _______ _____ _____    ______ ____
ROOT
ATOM      1  C   UNL     1      33.595 -15.270 -22.833  0.00  0.00    +0.019 C 
ATOM      2  C   UNL     1      33.012 -14.081 -23.272  0.00  0.00    -0.001 C 
ATOM      3  C   UNL     1      33.552 -15.611 -21.481  0.00  0.00    -0.001 C 
ATOM      4  C   UNL     1      32.386 -13.233 -22.358  0.00  0.00    -0.000 C 
ATOM      5  C   UNL     1      32.927 -14.763 -20.568  0.00  0.00    -0.000 C 
ATOM      6  C   UNL     1      32.343 -13.574 -21.006  0.00  0.00    -0.000 C 
ENDROOT
BRANCH   1   7
ATOM      7  C   UNL     1      34.264 -16.177 -23.810  0.00  0.00    +0.225 C 
BRANCH   7   8
ATOM      8  O   UNL     1      35.688 -16.078 -23.675  0.00  0.00    -0.368 OA
ATOM      9  H   UNL     1      36.098 -16.916 -23.940  0.00  0.00    +0.212 HD
ENDBRANCH   7   8
BRANCH   7  11
ATOM     10  N   UNL     1      33.591 -15.665 -26.309  0.00  0.00    -0.193 NA
ATOM     11  C   UNL     1      33.883 -15.886 -25.207  0.00  0.00    +0.107 C 
ENDBRANCH   7  11
ENDBRANCH   1   7
TORSDOF 3
ENDMDL
MODEL 8
REMARK VINA RESULT:      -5.7      9.652     10.863
REMARK  Name = 439767
REMARK  3 active torsions:
REMARK  status: ('A' for Active; 'I' for Inactive)
REMARK    1  A    between atoms: C_1  and  C_7
REMARK    2  A    between atoms: C_7  and  O_8
REMARK    3  A    between atoms: C_7  and  C_11
REMARK                            x       y       z     vdW  Elec       q    Type
REMARK                         _______ _______ _______ _____ _____    ______ ____
ROOT
ATOM      1  C   UNL     1      32.129  -8.949 -20.748  0.00  0.00    +0.019 C 
ATOM      2  C   UNL     1      31.772  -9.592 -21.934  0.00  0.00    -0.001 C 
ATOM      3  C   UNL     1      31.907  -9.575 -19.521  0.00  0.00    -0.001 C 
ATOM      4  C   UNL     1      31.194 -10.861 -21.892  0.00  0.00    -0.000 C 
ATOM      5  C   UNL     1      31.329 -10.843 -19.480  0.00  0.00    -0.000 C 
ATOM      6  C   UNL     1      30.972 -11.487 -20.665  0.00  0.00    -0.000 C 
ENDROOT
BRANCH   1   7
ATOM      7  C   UNL     1      32.748  -7.593 -20.793  0.00  0.00    +0.225 C 
BRANCH   7   8
ATOM      8  O   UNL     1      33.207  -7.220 -19.487  0.00  0.00    -0.368 OA
ATOM      9  H   UNL     1      33.243  -8.006 -18.920  0.00  0.00    +0.212 HD
ENDBRANCH   7   8
BRANCH   7  11
ATOM     10  N   UNL     1      31.087  -5.757 -21.704  0.00  0.00    -0.193 NA
ATOM     11  C   UNL     1      31.820  -6.561 -21.299  0.00  0.00    +0.107 C 
ENDBRANCH   7  11
ENDBRANCH   1   7
TORSDOF 3
ENDMDL
MODEL 9
REMARK VINA RESULT:      -5.6      2.709      3.718
REMARK  Name = 439767
REMARK  3 active torsions:
REMARK  status: ('A' for Active; 'I' for Inactive)
REMARK    1  A    between atoms: C_1  and  C_7
REMARK    2  A    between atoms: C_7  and  O_8
REMARK    3  A    between atoms: C_7  and  C_11
REMARK                            x       y       z     vdW  Elec       q    Type
REMARK                         _______ _______ _______ _____ _____    ______ ____
ROOT
ATOM      1  C   UNL     1      34.702 -16.768 -22.398  0.00  0.00    +0.019 C 
ATOM      2  C   UNL     1      34.783 -16.754 -23.791  0.00  0.00    -0.001 C 
ATOM      3  C   UNL     1      34.720 -17.981 -21.710  0.00  0.00    -0.001 C 
ATOM      4  C   UNL     1      34.882 -17.954 -24.495  0.00  0.00    -0.000 C 
ATOM      5  C   UNL     1      34.817 -19.181 -22.414  0.00  0.00    -0.000 C 
ATOM      6  C   UNL     1      34.899 -19.168 -23.806  0.00  0.00    -0.000 C 
ENDROOT
BRANCH   1   7
ATOM      7  C   UNL     1      34.598 -15.484 -21.645  0.00  0.00    +0.225 C 
BRANCH   7   8
ATOM      8  O   UNL     1      34.891 -15.704 -20.259  0.00  0.00    -0.368 OA
ATOM      9  H   UNL     1      35.708 -16.220 -20.179  0.00  0.00    +0.212 HD
ENDBRANCH   7   8
BRANCH   7  11
ATOM     10  N   UNL     1      32.215 -14.376 -21.870  0.00  0.00    -0.193 NA
ATOM     11  C   UNL     1      33.266 -14.858 -21.772  0.00  0.00    +0.107 C 
ENDBRANCH   7  11
ENDBRANCH   1   7
TORSDOF 3
ENDMDL
