MODEL 1
REMARK VINA RESULT:      -9.8      0.000      0.000
REMARK  Name = 15983988
REMARK  5 active torsions:
REMARK  status: ('A' for Active; 'I' for Inactive)
REMARK    1  A    between atoms: N_3  and  C_20
REMARK    2  A    between atoms: C_5  and  N_10
REMARK    3  A    between atoms: C_11  and  N_16
REMARK    4  A    between atoms: C_20  and  C_22
REMARK    5  A    between atoms: C_23  and  C_29
REMARK                            x       y       z     vdW  Elec       q    Type
REMARK                         _______ _______ _______ _____ _____    ______ ____
ROOT
ATOM      1  O   UNL     1      37.119 -22.264 -16.343  0.00  0.00    -0.252 OA
ATOM      2  O   UNL     1      33.850 -22.175 -19.654  0.00  0.00    -0.269 OA
ATOM      3  N   UNL     1      34.925 -22.817 -15.810  0.00  0.00    -0.227 N 
ATOM      4  N   UNL     1      35.531 -22.187 -18.029  0.00  0.00    -0.208 N 
ATOM      5  C   UNL     1      33.592 -22.993 -16.200  0.00  0.00    +0.112 C 
ATOM      6  C   UNL     1      33.251 -22.772 -17.480  0.00  0.00    +0.089 C 
ATOM      7  C   UNL     1      35.944 -22.412 -16.696  0.00  0.00    +0.318 C 
ATOM      8  C   UNL     1      34.230 -22.349 -18.498  0.00  0.00    +0.259 C 
ATOM      9  C   UNL     1      36.560 -21.766 -18.973  0.00  0.00    +0.125 C 
ENDROOT
BRANCH   5  10
ATOM     10  N   UNL     1      32.616 -23.383 -15.329  0.00  0.00    -0.298 N 
ATOM     11  C   UNL     1      30.495 -24.606 -15.454  0.00  0.00    -0.046 C 
ATOM     12  C   UNL     1      31.190 -23.251 -15.642  0.00  0.00    +0.070 C 
ATOM     13  C   UNL     1      30.749 -25.158 -14.044  0.00  0.00    -0.018 C 
ATOM     14  C   UNL     1      32.250 -25.224 -13.757  0.00  0.00    +0.019 C 
ATOM     15  C   UNL     1      32.919 -23.870 -13.982  0.00  0.00    +0.092 C 
BRANCH  11  16
ATOM     16  N   UNL     1      29.061 -24.466 -15.699  0.00  0.00    +0.383 N 
ATOM     17  H   UNL     1      28.831 -24.863 -16.611  0.00  0.00    -0.089 HD
ATOM     18  H   UNL     1      28.806 -23.478 -15.686  0.00  0.00    -0.089 HD
ATOM     19  H   UNL     1      28.541 -24.961 -14.973  0.00  0.00    -0.089 HD
ENDBRANCH  11  16
ENDBRANCH   5  10
BRANCH   3  20
ATOM     20  C   UNL     1      35.279 -23.067 -14.411  0.00  0.00    +0.128 C 
BRANCH  20  22
ATOM     21  F   UNL     1      36.688 -27.432 -15.994  0.00  0.00    -0.204 F 
ATOM     22  C   UNL     1      36.145 -24.289 -14.260  0.00  0.00    +0.010 C 
ATOM     23  C   UNL     1      37.049 -24.403 -13.212  0.00  0.00    +0.066 C 
ATOM     24  C   UNL     1      36.017 -25.303 -15.201  0.00  0.00    +0.028 C 
ATOM     25  C   UNL     1      37.838 -25.548 -13.102  0.00  0.00    +0.012 C 
ATOM     26  C   UNL     1      36.806 -26.449 -15.092  0.00  0.00    +0.140 C 
ATOM     27  C   UNL     1      37.716 -26.571 -14.042  0.00  0.00    +0.030 C 
BRANCH  23  29
ATOM     28  N   UNL     1      37.311 -22.527 -11.443  0.00  0.00    -0.191 NA
ATOM     29  C   UNL     1      37.194 -23.366 -12.235  0.00  0.00    +0.100 C 
ENDBRANCH  23  29
ENDBRANCH  20  22
ENDBRANCH   3  20
TORSDOF 5
ENDMDL
MODEL 2
REMARK VINA RESULT:      -9.1      1.723      4.272
REMARK  Name = 15983988
REMARK  5 active torsions:
REMARK  status: ('A' for Active; 'I' for Inactive)
REMARK    1  A    between atoms: N_3  and  C_20
REMARK    2  A    between atoms: C_5  and  N_10
REMARK    3  A    between atoms: C_11  and  N_16
REMARK    4  A    between atoms: C_20  and  C_22
REMARK    5  A    between atoms: C_23  and  C_29
REMARK                            x       y       z     vdW  Elec       q    Type
REMARK                         _______ _______ _______ _____ _____    ______ ____
ROOT
ATOM      1  O   UNL     1      33.583 -23.799 -12.818  0.00  0.00    -0.252 OA
ATOM      2  O   UNL     1      30.500 -23.677 -16.303  0.00  0.00    -0.269 OA
ATOM      3  N   UNL     1      34.296 -23.281 -14.970  0.00  0.00    -0.227 N 
ATOM      4  N   UNL     1      32.006 -23.768 -14.517  0.00  0.00    -0.208 N 
ATOM      5  C   UNL     1      34.009 -23.081 -16.325  0.00  0.00    +0.112 C 
ATOM      6  C   UNL     1      32.743 -23.220 -16.752  0.00  0.00    +0.089 C 
ATOM      7  C   UNL     1      33.320 -23.628 -14.014  0.00  0.00    +0.318 C 
ATOM      8  C   UNL     1      31.636 -23.576 -15.845  0.00  0.00    +0.259 C 
ATOM      9  C   UNL     1      30.970 -24.127 -13.555  0.00  0.00    +0.125 C 
ENDROOT
BRANCH   5  10
ATOM     10  N   UNL     1      34.966 -22.748 -17.239  0.00  0.00    -0.298 N 
ATOM     11  C   UNL     1      35.149 -21.247 -19.169  0.00  0.00    -0.046 C 
ATOM     12  C   UNL     1      34.671 -22.616 -18.669  0.00  0.00    +0.070 C 
ATOM     13  C   UNL     1      36.634 -21.036 -18.843  0.00  0.00    -0.018 C 
ATOM     14  C   UNL     1      36.889 -21.236 -17.348  0.00  0.00    +0.019 C 
ATOM     15  C   UNL     1      36.375 -22.594 -16.874  0.00  0.00    +0.092 C 
BRANCH  11  16
ATOM     16  N   UNL     1      34.919 -21.135 -20.607  0.00  0.00    +0.383 N 
ATOM     17  H   UNL     1      35.217 -20.214 -20.930  0.00  0.00    -0.089 HD
ATOM     18  H   UNL     1      33.925 -21.258 -20.805  0.00  0.00    -0.089 HD
ATOM     19  H   UNL     1      35.454 -21.855 -21.095  0.00  0.00    -0.089 HD
ENDBRANCH  11  16
ENDBRANCH   5  10
BRANCH   3  20
ATOM     20  C   UNL     1      35.681 -23.122 -14.522  0.00  0.00    +0.128 C 
BRANCH  20  22
ATOM     21  F   UNL     1      36.745 -27.655 -15.888  0.00  0.00    -0.204 F 
ATOM     22  C   UNL     1      36.336 -24.447 -14.238  0.00  0.00    +0.010 C 
ATOM     23  C   UNL     1      37.021 -24.670 -13.049  0.00  0.00    +0.066 C 
ATOM     24  C   UNL     1      36.238 -25.446 -15.199  0.00  0.00    +0.028 C 
ATOM     25  C   UNL     1      37.617 -25.909 -12.818  0.00  0.00    +0.012 C 
ATOM     26  C   UNL     1      36.835 -26.686 -14.968  0.00  0.00    +0.140 C 
ATOM     27  C   UNL     1      37.524 -26.917 -13.778  0.00  0.00    +0.030 C 
BRANCH  23  29
ATOM     28  N   UNL     1      37.222 -22.825 -11.240  0.00  0.00    -0.191 NA
ATOM     29  C   UNL     1      37.131 -23.651 -12.050  0.00  0.00    +0.100 C 
ENDBRANCH  23  29
ENDBRANCH  20  22
ENDBRANCH   3  20
TORSDOF 5
ENDMDL
MODEL 3
REMARK VINA RESULT:      -8.5      2.582      5.316
REMARK  Name = 15983988
REMARK  5 active torsions:
REMARK  status: ('A' for Active; 'I' for Inactive)
REMARK    1  A    between atoms: N_3  and  C_20
REMARK    2  A    between atoms: C_5  and  N_10
REMARK    3  A    between atoms: C_11  and  N_16
REMARK    4  A    between atoms: C_20  and  C_22
REMARK    5  A    between atoms: C_23  and  C_29
REMARK                            x       y       z     vdW  Elec       q    Type
REMARK                         _______ _______ _______ _____ _____    ______ ____
ROOT
ATOM      1  O   UNL     1      33.184 -23.041 -18.514  0.00  0.00    -0.252 OA
ATOM      2  O   UNL     1      37.152 -20.611 -18.385  0.00  0.00    -0.269 OA
ATOM      3  N   UNL     1      34.691 -23.386 -16.777  0.00  0.00    -0.227 N 
ATOM      4  N   UNL     1      35.150 -21.814 -18.509  0.00  0.00    -0.208 N 
ATOM      5  C   UNL     1      35.905 -23.085 -16.150  0.00  0.00    +0.112 C 
ATOM      6  C   UNL     1      36.713 -22.163 -16.698  0.00  0.00    +0.089 C 
ATOM      7  C   UNL     1      34.261 -22.772 -17.970  0.00  0.00    +0.318 C 
ATOM      8  C   UNL     1      36.369 -21.450 -17.943  0.00  0.00    +0.259 C 
ATOM      9  C   UNL     1      34.739 -21.158 -19.745  0.00  0.00    +0.125 C 
ENDROOT
BRANCH   5  10
ATOM     10  N   UNL     1      36.308 -23.691 -14.995  0.00  0.00    -0.298 N 
ATOM     11  C   UNL     1      38.017 -25.319 -14.333  0.00  0.00    -0.046 C 
ATOM     12  C   UNL     1      36.617 -25.123 -14.929  0.00  0.00    +0.070 C 
ATOM     13  C   UNL     1      38.133 -24.619 -12.972  0.00  0.00    -0.018 C 
ATOM     14  C   UNL     1      37.750 -23.144 -13.094  0.00  0.00    +0.019 C 
ATOM     15  C   UNL     1      36.366 -22.979 -13.718  0.00  0.00    +0.092 C 
BRANCH  11  16
ATOM     16  N   UNL     1      38.306 -26.746 -14.203  0.00  0.00    +0.383 N 
ATOM     17  H   UNL     1      37.960 -27.240 -15.026  0.00  0.00    -0.089 HD
ATOM     18  H   UNL     1      37.846 -27.113 -13.369  0.00  0.00    -0.089 HD
ATOM     19  H   UNL     1      39.314 -26.884 -14.124  0.00  0.00    -0.089 HD
ENDBRANCH  11  16
ENDBRANCH   5  10
BRANCH   3  20
ATOM     20  C   UNL     1      33.821 -24.391 -16.161  0.00  0.00    +0.128 C 
BRANCH  20  22
ATOM     21  F   UNL     1      29.530 -22.259 -16.926  0.00  0.00    -0.204 F 
ATOM     22  C   UNL     1      32.555 -23.783 -15.619  0.00  0.00    +0.010 C 
ATOM     23  C   UNL     1      32.323 -23.706 -14.251  0.00  0.00    +0.066 C 
ATOM     24  C   UNL     1      31.621 -23.298 -16.527  0.00  0.00    +0.028 C 
ATOM     25  C   UNL     1      31.139 -23.138 -13.784  0.00  0.00    +0.012 C 
ATOM     26  C   UNL     1      30.436 -22.729 -16.058  0.00  0.00    +0.140 C 
ATOM     27  C   UNL     1      30.195 -22.649 -14.687  0.00  0.00    +0.030 C 
BRANCH  23  29
ATOM     28  N   UNL     1      34.046 -24.602 -12.536  0.00  0.00    -0.191 NA
ATOM     29  C   UNL     1      33.275 -24.202 -13.304  0.00  0.00    +0.100 C 
ENDBRANCH  23  29
ENDBRANCH  20  22
ENDBRANCH   3  20
TORSDOF 5
ENDMDL
MODEL 4
REMARK VINA RESULT:      -8.2     10.911     14.124
REMARK  Name = 15983988
REMARK  5 active torsions:
REMARK  status: ('A' for Active; 'I' for Inactive)
REMARK    1  A    between atoms: N_3  and  C_20
REMARK    2  A    between atoms: C_5  and  N_10
REMARK    3  A    between atoms: C_11  and  N_16
REMARK    4  A    between atoms: C_20  and  C_22
REMARK    5  A    between atoms: C_23  and  C_29
REMARK                            x       y       z     vdW  Elec       q    Type
REMARK                         _______ _______ _______ _____ _____    ______ ____
ROOT
ATOM      1  O   UNL     1      35.256 -15.369 -23.177  0.00  0.00    -0.252 OA
ATOM      2  O   UNL     1      32.125 -17.093 -20.196  0.00  0.00    -0.269 OA
ATOM      3  N   UNL     1      33.625 -13.973 -22.284  0.00  0.00    -0.227 N 
ATOM      4  N   UNL     1      33.714 -16.286 -21.709  0.00  0.00    -0.208 N 
ATOM      5  C   UNL     1      32.512 -13.786 -21.457  0.00  0.00    +0.112 C 
ATOM      6  C   UNL     1      32.024 -14.834 -20.772  0.00  0.00    +0.089 C 
ATOM      7  C   UNL     1      34.270 -15.216 -22.446  0.00  0.00    +0.318 C 
ATOM      8  C   UNL     1      32.617 -16.181 -20.858  0.00  0.00    +0.259 C 
ATOM      9  C   UNL     1      34.356 -17.587 -21.854  0.00  0.00    +0.125 C 
ENDROOT
BRANCH   5  10
ATOM     10  N   UNL     1      31.897 -12.577 -21.312  0.00  0.00    -0.298 N 
ATOM     11  C   UNL     1      32.310 -10.497 -20.082  0.00  0.00    -0.046 C 
ATOM     12  C   UNL     1      31.751 -11.924 -20.008  0.00  0.00    +0.070 C 
ATOM     13  C   UNL     1      31.647  -9.711 -21.222  0.00  0.00    -0.018 C 
ATOM     14  C   UNL     1      31.787 -10.465 -22.545  0.00  0.00    +0.019 C 
ATOM     15  C   UNL     1      31.251 -11.890 -22.432  0.00  0.00    +0.092 C 
BRANCH  11  16
ATOM     16  N   UNL     1      32.108  -9.817 -18.805  0.00  0.00    +0.383 N 
ATOM     17  H   UNL     1      32.944  -9.284 -18.566  0.00  0.00    -0.089 HD
ATOM     18  H   UNL     1      31.926 -10.507 -18.075  0.00  0.00    -0.089 HD
ATOM     19  H   UNL     1      31.312  -9.182 -18.879  0.00  0.00    -0.089 HD
ENDBRANCH  11  16
ENDBRANCH   5  10
BRANCH   3  20
ATOM     20  C   UNL     1      34.146 -12.818 -23.019  0.00  0.00    +0.128 C 
BRANCH  20  22
ATOM     21  F   UNL     1      32.304 -15.253 -26.792  0.00  0.00    -0.204 F 
ATOM     22  C   UNL     1      33.809 -12.887 -24.485  0.00  0.00    +0.010 C 
ATOM     23  C   UNL     1      34.090 -11.826 -25.337  0.00  0.00    +0.066 C 
ATOM     24  C   UNL     1      33.208 -14.044 -24.966  0.00  0.00    +0.028 C 
ATOM     25  C   UNL     1      33.764 -11.922 -26.689  0.00  0.00    +0.012 C 
ATOM     26  C   UNL     1      32.882 -14.141 -26.320  0.00  0.00    +0.140 C 
ATOM     27  C   UNL     1      33.160 -13.079 -27.181  0.00  0.00    +0.030 C 
BRANCH  23  29
ATOM     28  N   UNL     1      35.208  -9.656 -24.467  0.00  0.00    -0.191 NA
ATOM     29  C   UNL     1      34.708 -10.627 -24.857  0.00  0.00    +0.100 C 
ENDBRANCH  23  29
ENDBRANCH  20  22
ENDBRANCH   3  20
TORSDOF 5
ENDMDL
MODEL 5
REMARK VINA RESULT:      -8.1     11.325     14.632
REMARK  Name = 15983988
REMARK  5 active torsions:
REMARK  status: ('A' for Active; 'I' for Inactive)
REMARK    1  A    between atoms: N_3  and  C_20
REMARK    2  A    between atoms: C_5  and  N_10
REMARK    3  A    between atoms: C_11  and  N_16
REMARK    4  A    between atoms: C_20  and  C_22
REMARK    5  A    between atoms: C_23  and  C_29
REMARK                            x       y       z     vdW  Elec       q    Type
REMARK                         _______ _______ _______ _____ _____    ______ ____
ROOT
ATOM      1  O   UNL     1      34.244 -15.274 -24.542  0.00  0.00    -0.252 OA
ATOM      2  O   UNL     1      34.852 -16.041 -19.992  0.00  0.00    -0.269 OA
ATOM      3  N   UNL     1      33.157 -13.925 -22.991  0.00  0.00    -0.227 N 
ATOM      4  N   UNL     1      34.572 -15.712 -22.290  0.00  0.00    -0.208 N 
ATOM      5  C   UNL     1      32.883 -13.590 -21.660  0.00  0.00    +0.112 C 
ATOM      6  C   UNL     1      33.452 -14.305 -20.675  0.00  0.00    +0.089 C 
ATOM      7  C   UNL     1      34.005 -14.988 -23.363  0.00  0.00    +0.318 C 
ATOM      8  C   UNL     1      34.359 -15.437 -20.942  0.00  0.00    +0.259 C 
ATOM      9  C   UNL     1      35.454 -16.820 -22.639  0.00  0.00    +0.125 C 
ENDROOT
BRANCH   5  10
ATOM     10  N   UNL     1      32.058 -12.558 -21.316  0.00  0.00    -0.298 N 
ATOM     11  C   UNL     1      32.220 -10.509 -19.979  0.00  0.00    -0.046 C 
ATOM     12  C   UNL     1      31.997 -12.027 -19.951  0.00  0.00    +0.070 C 
ATOM     13  C   UNL     1      31.225  -9.830 -20.931  0.00  0.00    -0.018 C 
ATOM     14  C   UNL     1      31.298 -10.460 -22.322  0.00  0.00    +0.019 C 
ATOM     15  C   UNL     1      31.103 -11.973 -22.258  0.00  0.00    +0.092 C 
BRANCH  11  16
ATOM     16  N   UNL     1      32.094  -9.964 -18.630  0.00  0.00    +0.383 N 
ATOM     17  H   UNL     1      32.024  -8.947 -18.679  0.00  0.00    -0.089 HD
ATOM     18  H   UNL     1      32.914 -10.221 -18.079  0.00  0.00    -0.089 HD
ATOM     19  H   UNL     1      31.256 -10.340 -18.187  0.00  0.00    -0.089 HD
ENDBRANCH  11  16
ENDBRANCH   5  10
BRANCH   3  20
ATOM     20  C   UNL     1      32.531 -13.131 -24.051  0.00  0.00    +0.128 C 
BRANCH  20  22
ATOM     21  F   UNL     1      35.363  -9.203 -23.739  0.00  0.00    -0.204 F 
ATOM     22  C   UNL     1      33.505 -12.175 -24.686  0.00  0.00    +0.010 C 
ATOM     23  C   UNL     1      33.914 -12.336 -26.004  0.00  0.00    +0.066 C 
ATOM     24  C   UNL     1      33.988 -11.124 -23.916  0.00  0.00    +0.028 C 
ATOM     25  C   UNL     1      34.818 -11.433 -26.561  0.00  0.00    +0.012 C 
ATOM     26  C   UNL     1      34.894 -10.220 -24.473  0.00  0.00    +0.140 C 
ATOM     27  C   UNL     1      35.308 -10.375 -25.796  0.00  0.00    +0.030 C 
BRANCH  23  29
ATOM     28  N   UNL     1      33.032 -14.288 -27.463  0.00  0.00    -0.191 NA
ATOM     29  C   UNL     1      33.426 -13.414 -26.810  0.00  0.00    +0.100 C 
ENDBRANCH  23  29
ENDBRANCH  20  22
ENDBRANCH   3  20
TORSDOF 5
ENDMDL
MODEL 6
REMARK VINA RESULT:      -7.5     11.776     14.993
REMARK  Name = 15983988
REMARK  5 active torsions:
REMARK  status: ('A' for Active; 'I' for Inactive)
REMARK    1  A    between atoms: N_3  and  C_20
REMARK    2  A    between atoms: C_5  and  N_10
REMARK    3  A    between atoms: C_11  and  N_16
REMARK    4  A    between atoms: C_20  and  C_22
REMARK    5  A    between atoms: C_23  and  C_29
REMARK                            x       y       z     vdW  Elec       q    Type
REMARK                         _______ _______ _______ _____ _____    ______ ____
ROOT
ATOM      1  O   UNL     1      31.553  -9.668 -22.921  0.00  0.00    -0.252 OA
ATOM      2  O   UNL     1      31.591 -10.825 -18.413  0.00  0.00    -0.269 OA
ATOM      3  N   UNL     1      32.134 -11.829 -22.291  0.00  0.00    -0.227 N 
ATOM      4  N   UNL     1      31.569 -10.183 -20.661  0.00  0.00    -0.208 N 
ATOM      5  C   UNL     1      32.344 -12.783 -21.289  0.00  0.00    +0.112 C 
ATOM      6  C   UNL     1      32.162 -12.432 -20.005  0.00  0.00    +0.089 C 
ATOM      7  C   UNL     1      31.740 -10.502 -22.028  0.00  0.00    +0.318 C 
ATOM      8  C   UNL     1      31.748 -11.074 -19.607  0.00  0.00    +0.259 C 
ATOM      9  C   UNL     1      31.163  -8.817 -20.351  0.00  0.00    +0.125 C 
ENDROOT
BRANCH   5  10
ATOM     10  N   UNL     1      32.727 -14.065 -21.560  0.00  0.00    -0.298 N 
ATOM     11  C   UNL     1      34.182 -15.190 -23.181  0.00  0.00    -0.046 C 
ATOM     12  C   UNL     1      32.793 -14.589 -22.928  0.00  0.00    +0.070 C 
ATOM     13  C   UNL     1      34.522 -16.245 -22.119  0.00  0.00    -0.018 C 
ATOM     14  C   UNL     1      34.386 -15.654 -20.715  0.00  0.00    +0.019 C 
ATOM     15  C   UNL     1      33.005 -15.038 -20.503  0.00  0.00    +0.092 C 
BRANCH  11  16
ATOM     16  N   UNL     1      34.233 -15.774 -24.520  0.00  0.00    +0.383 N 
ATOM     17  H   UNL     1      34.445 -15.045 -25.202  0.00  0.00    -0.089 HD
ATOM     18  H   UNL     1      33.332 -16.196 -24.744  0.00  0.00    -0.089 HD
ATOM     19  H   UNL     1      34.961 -16.489 -24.552  0.00  0.00    -0.089 HD
ENDBRANCH  11  16
ENDBRANCH   5  10
BRANCH   3  20
ATOM     20  C   UNL     1      32.332 -12.232 -23.685  0.00  0.00    +0.128 C 
BRANCH  20  22
ATOM     21  F   UNL     1      35.411  -8.482 -23.648  0.00  0.00    -0.204 F 
ATOM     22  C   UNL     1      33.431 -11.443 -24.347  0.00  0.00    +0.010 C 
ATOM     23  C   UNL     1      33.947 -11.824 -25.580  0.00  0.00    +0.066 C 
ATOM     24  C   UNL     1      33.918 -10.320 -23.689  0.00  0.00    +0.028 C 
ATOM     25  C   UNL     1      34.965 -11.071 -26.164  0.00  0.00    +0.012 C 
ATOM     26  C   UNL     1      34.937  -9.566 -24.274  0.00  0.00    +0.140 C 
ATOM     27  C   UNL     1      35.460  -9.942 -25.511  0.00  0.00    +0.030 C 
BRANCH  23  29
ATOM     28  N   UNL     1      33.059 -13.915 -26.826  0.00  0.00    -0.191 NA
ATOM     29  C   UNL     1      33.456 -12.979 -26.269  0.00  0.00    +0.100 C 
ENDBRANCH  23  29
ENDBRANCH  20  22
ENDBRANCH   3  20
TORSDOF 5
ENDMDL
MODEL 7
REMARK VINA RESULT:      -7.4     11.440     14.775
REMARK  Name = 15983988
REMARK  5 active torsions:
REMARK  status: ('A' for Active; 'I' for Inactive)
REMARK    1  A    between atoms: N_3  and  C_20
REMARK    2  A    between atoms: C_5  and  N_10
REMARK    3  A    between atoms: C_11  and  N_16
REMARK    4  A    between atoms: C_20  and  C_22
REMARK    5  A    between atoms: C_23  and  C_29
REMARK                            x       y       z     vdW  Elec       q    Type
REMARK                         _______ _______ _______ _____ _____    ______ ____
ROOT
ATOM      1  O   UNL     1      31.457 -11.297 -22.865  0.00  0.00    -0.252 OA
ATOM      2  O   UNL     1      32.594 -14.238 -19.442  0.00  0.00    -0.269 OA
ATOM      3  N   UNL     1      32.693 -13.206 -23.350  0.00  0.00    -0.227 N 
ATOM      4  N   UNL     1      32.007 -12.718 -21.118  0.00  0.00    -0.208 N 
ATOM      5  C   UNL     1      33.322 -14.381 -22.924  0.00  0.00    +0.112 C 
ATOM      6  C   UNL     1      33.282 -14.709 -21.621  0.00  0.00    +0.089 C 
ATOM      7  C   UNL     1      32.014 -12.331 -22.478  0.00  0.00    +0.318 C 
ATOM      8  C   UNL     1      32.599 -13.873 -20.616  0.00  0.00    +0.259 C 
ATOM      9  C   UNL     1      31.314 -11.834 -20.188  0.00  0.00    +0.125 C 
ENDROOT
BRANCH   5  10
ATOM     10  N   UNL     1      33.978 -15.218 -23.780  0.00  0.00    -0.298 N 
ATOM     11  C   UNL     1      34.952 -17.466 -23.687  0.00  0.00    -0.046 C 
ATOM     12  C   UNL     1      35.164 -15.978 -23.376  0.00  0.00    +0.070 C 
ATOM     13  C   UNL     1      34.587 -17.666 -25.165  0.00  0.00    -0.018 C 
ATOM     14  C   UNL     1      33.376 -16.811 -25.539  0.00  0.00    +0.019 C 
ATOM     15  C   UNL     1      33.605 -15.342 -25.190  0.00  0.00    +0.092 C 
BRANCH  11  16
ATOM     16  N   UNL     1      36.156 -18.221 -23.349  0.00  0.00    +0.383 N 
ATOM     17  H   UNL     1      36.895 -17.575 -23.067  0.00  0.00    -0.089 HD
ATOM     18  H   UNL     1      36.464 -18.755 -24.161  0.00  0.00    -0.089 HD
ATOM     19  H   UNL     1      35.953 -18.859 -22.579  0.00  0.00    -0.089 HD
ENDBRANCH  11  16
ENDBRANCH   5  10
BRANCH   3  20
ATOM     20  C   UNL     1      32.742 -12.869 -24.774  0.00  0.00    +0.128 C 
BRANCH  20  22
ATOM     21  F   UNL     1      35.046  -8.820 -23.414  0.00  0.00    -0.204 F 
ATOM     22  C   UNL     1      33.747 -11.784 -25.059  0.00  0.00    +0.010 C 
ATOM     23  C   UNL     1      34.468 -11.767 -26.247  0.00  0.00    +0.066 C 
ATOM     24  C   UNL     1      33.935 -10.796 -24.100  0.00  0.00    +0.028 C 
ATOM     25  C   UNL     1      35.391 -10.749 -26.479  0.00  0.00    +0.012 C 
ATOM     26  C   UNL     1      34.859  -9.777 -24.333  0.00  0.00    +0.140 C 
ATOM     27  C   UNL     1      35.587  -9.754 -25.522  0.00  0.00    +0.030 C 
BRANCH  23  29
ATOM     28  N   UNL     1      34.138 -13.597 -28.053  0.00  0.00    -0.191 NA
ATOM     29  C   UNL     1      34.286 -12.778 -27.244  0.00  0.00    +0.100 C 
ENDBRANCH  23  29
ENDBRANCH  20  22
ENDBRANCH   3  20
TORSDOF 5
ENDMDL
MODEL 8
REMARK VINA RESULT:      -7.3      2.448      5.068
REMARK  Name = 15983988
REMARK  5 active torsions:
REMARK  status: ('A' for Active; 'I' for Inactive)
REMARK    1  A    between atoms: N_3  and  C_20
REMARK    2  A    between atoms: C_5  and  N_10
REMARK    3  A    between atoms: C_11  and  N_16
REMARK    4  A    between atoms: C_20  and  C_22
REMARK    5  A    between atoms: C_23  and  C_29
REMARK                            x       y       z     vdW  Elec       q    Type
REMARK                         _______ _______ _______ _____ _____    ______ ____
ROOT
ATOM      1  O   UNL     1      36.980 -25.221 -15.429  0.00  0.00    -0.252 OA
ATOM      2  O   UNL     1      35.801 -25.043 -10.930  0.00  0.00    -0.269 OA
ATOM      3  N   UNL     1      34.919 -24.339 -14.813  0.00  0.00    -0.227 N 
ATOM      4  N   UNL     1      36.440 -25.172 -13.176  0.00  0.00    -0.208 N 
ATOM      5  C   UNL     1      33.996 -24.002 -13.816  0.00  0.00    +0.112 C 
ATOM      6  C   UNL     1      34.303 -24.245 -12.531  0.00  0.00    +0.089 C 
ATOM      7  C   UNL     1      36.169 -24.931 -14.542  0.00  0.00    +0.318 C 
ATOM      8  C   UNL     1      35.582 -24.858 -12.126  0.00  0.00    +0.259 C 
ATOM      9  C   UNL     1      37.725 -25.785 -12.859  0.00  0.00    +0.125 C 
ENDROOT
BRANCH   5  10
ATOM     10  N   UNL     1      32.788 -23.431 -14.095  0.00  0.00    -0.298 N 
ATOM     11  C   UNL     1      31.293 -23.264 -16.031  0.00  0.00    -0.046 C 
ATOM     12  C   UNL     1      32.538 -22.695 -15.337  0.00  0.00    +0.070 C 
ATOM     13  C   UNL     1      30.089 -23.259 -15.080  0.00  0.00    -0.018 C 
ATOM     14  C   UNL     1      30.426 -23.997 -13.784  0.00  0.00    +0.019 C 
ATOM     15  C   UNL     1      31.685 -23.428 -13.132  0.00  0.00    +0.092 C 
BRANCH  11  16
ATOM     16  N   UNL     1      31.000 -22.492 -17.236  0.00  0.00    +0.383 N 
ATOM     17  H   UNL     1      29.991 -22.368 -17.324  0.00  0.00    -0.089 HD
ATOM     18  H   UNL     1      31.353 -22.988 -18.055  0.00  0.00    -0.089 HD
ATOM     19  H   UNL     1      31.449 -21.577 -17.173  0.00  0.00    -0.089 HD
ENDBRANCH  11  16
ENDBRANCH   5  10
BRANCH   3  20
ATOM     20  C   UNL     1      34.568 -24.061 -16.207  0.00  0.00    +0.128 C 
BRANCH  20  22
ATOM     21  F   UNL     1      38.379 -21.076 -15.869  0.00  0.00    -0.204 F 
ATOM     22  C   UNL     1      35.425 -22.973 -16.796  0.00  0.00    +0.010 C 
ATOM     23  C   UNL     1      35.141 -22.430 -18.043  0.00  0.00    +0.066 C 
ATOM     24  C   UNL     1      36.513 -22.523 -16.057  0.00  0.00    +0.028 C 
ATOM     25  C   UNL     1      35.956 -21.424 -18.560  0.00  0.00    +0.012 C 
ATOM     26  C   UNL     1      37.329 -21.516 -16.574  0.00  0.00    +0.140 C 
ATOM     27  C   UNL     1      37.050 -20.967 -17.825  0.00  0.00    +0.030 C 
BRANCH  23  29
ATOM     28  N   UNL     1      33.120 -23.249 -19.443  0.00  0.00    -0.191 NA
ATOM     29  C   UNL     1      34.025 -22.883 -18.817  0.00  0.00    +0.100 C 
ENDBRANCH  23  29
ENDBRANCH  20  22
ENDBRANCH   3  20
TORSDOF 5
ENDMDL
MODEL 9
REMARK VINA RESULT:      -7.0     13.183     16.225
REMARK  Name = 15983988
REMARK  5 active torsions:
REMARK  status: ('A' for Active; 'I' for Inactive)
REMARK    1  A    between atoms: N_3  and  C_20
REMARK    2  A    between atoms: C_5  and  N_10
REMARK    3  A    between atoms: C_11  and  N_16
REMARK    4  A    between atoms: C_20  and  C_22
REMARK    5  A    between atoms: C_23  and  C_29
REMARK                            x       y       z     vdW  Elec       q    Type
REMARK                         _______ _______ _______ _____ _____    ______ ____
ROOT
ATOM      1  O   UNL     1      30.867 -12.019 -20.740  0.00  0.00    -0.252 OA
ATOM      2  O   UNL     1      31.989  -8.006 -18.668  0.00  0.00    -0.269 OA
ATOM      3  N   UNL     1      31.899 -10.337 -21.970  0.00  0.00    -0.227 N 
ATOM      4  N   UNL     1      31.389 -10.036 -19.660  0.00  0.00    -0.208 N 
ATOM      5  C   UNL     1      32.453  -9.054 -22.038  0.00  0.00    +0.112 C 
ATOM      6  C   UNL     1      32.472  -8.290 -20.933  0.00  0.00    +0.089 C 
ATOM      7  C   UNL     1      31.350 -10.882 -20.791  0.00  0.00    +0.318 C 
ATOM      8  C   UNL     1      31.930  -8.753 -19.642  0.00  0.00    +0.259 C 
ATOM      9  C   UNL     1      30.828 -10.567 -18.423  0.00  0.00    +0.125 C 
ENDROOT
BRANCH   5  10
ATOM     10  N   UNL     1      32.979  -8.539 -23.188  0.00  0.00    -0.298 N 
ATOM     11  C   UNL     1      32.932  -6.392 -24.371  0.00  0.00    -0.046 C 
ATOM     12  C   UNL     1      32.192  -7.711 -24.106  0.00  0.00    +0.070 C 
ATOM     13  C   UNL     1      34.356  -6.658 -24.876  0.00  0.00    -0.018 C 
ATOM     14  C   UNL     1      35.109  -7.567 -23.904  0.00  0.00    +0.019 C 
ATOM     15  C   UNL     1      34.335  -8.857 -23.637  0.00  0.00    +0.092 C 
BRANCH  11  16
ATOM     16  N   UNL     1      32.185  -5.590 -25.338  0.00  0.00    +0.383 N 
ATOM     17  H   UNL     1      32.125  -6.093 -26.223  0.00  0.00    -0.089 HD
ATOM     18  H   UNL     1      32.663  -4.700 -25.485  0.00  0.00    -0.089 HD
ATOM     19  H   UNL     1      31.245  -5.416 -24.982  0.00  0.00    -0.089 HD
ENDBRANCH  11  16
ENDBRANCH   5  10
BRANCH   3  20
ATOM     20  C   UNL     1      31.891 -11.156 -23.184  0.00  0.00    +0.128 C 
BRANCH  20  22
ATOM     21  F   UNL     1      32.802 -15.155 -20.590  0.00  0.00    -0.204 F 
ATOM     22  C   UNL     1      32.651 -12.443 -22.998  0.00  0.00    +0.010 C 
ATOM     23  C   UNL     1      33.602 -12.855 -23.924  0.00  0.00    +0.066 C 
ATOM     24  C   UNL     1      32.375 -13.210 -21.873  0.00  0.00    +0.028 C 
ATOM     25  C   UNL     1      34.286 -14.053 -23.723  0.00  0.00    +0.012 C 
ATOM     26  C   UNL     1      33.061 -14.409 -21.672  0.00  0.00    +0.140 C 
ATOM     27  C   UNL     1      34.016 -14.830 -22.597  0.00  0.00    +0.030 C 
BRANCH  23  29
ATOM     28  N   UNL     1      34.135 -11.446 -26.032  0.00  0.00    -0.191 NA
ATOM     29  C   UNL     1      33.896 -12.076 -25.089  0.00  0.00    +0.100 C 
ENDBRANCH  23  29
ENDBRANCH  20  22
ENDBRANCH   3  20
TORSDOF 5
ENDMDL
