MODEL 1
REMARK VINA RESULT:      -5.9      0.000      0.000
REMARK  Name = 448302
REMARK  1 active torsions:
REMARK  status: ('A' for Active; 'I' for Inactive)
REMARK    1  A    between atoms: C_5  and  O_11
REMARK                            x       y       z     vdW  Elec       q    Type
REMARK                         _______ _______ _______ _____ _____    ______ ____
ROOT
ATOM      1  F   UNL     1      38.693 -24.252 -12.058  0.00  0.00    -0.203 F 
ATOM      2  O   UNL     1      36.704 -27.207 -16.134  0.00  0.00    -0.252 OA
ATOM      3  N   UNL     1      36.388 -26.371 -14.019  0.00  0.00    -0.262 N 
ATOM      4  N   UNL     1      38.359 -25.913 -15.209  0.00  0.00    -0.266 N 
ATOM      5  C   UNL     1      36.815 -25.615 -12.850  0.00  0.00    +0.242 C 
ATOM      6  C   UNL     1      38.161 -25.004 -13.048  0.00  0.00    +0.179 C 
ATOM      7  C   UNL     1      37.123 -26.543 -15.183  0.00  0.00    +0.306 C 
ATOM      8  C   UNL     1      38.855 -25.168 -14.176  0.00  0.00    +0.095 C 
ATOM      9  H   UNL     1      35.501 -26.797 -13.981  0.00  0.00    +0.154 HD
ATOM     10  H   UNL     1      38.912 -26.010 -16.017  0.00  0.00    +0.157 HD
ENDROOT
BRANCH   5  11
ATOM     11  O   UNL     1      36.862 -26.493 -11.735  0.00  0.00    -0.362 OA
ATOM     12  H   UNL     1      35.958 -26.700 -11.449  0.00  0.00    +0.213 HD
ENDBRANCH   5  11
TORSDOF 1
ENDMDL
MODEL 2
REMARK VINA RESULT:      -5.9      1.527      2.105
REMARK  Name = 448302
REMARK  1 active torsions:
REMARK  status: ('A' for Active; 'I' for Inactive)
REMARK    1  A    between atoms: C_5  and  O_11
REMARK                            x       y       z     vdW  Elec       q    Type
REMARK                         _______ _______ _______ _____ _____    ______ ____
ROOT
ATOM      1  F   UNL     1      38.386 -24.424 -11.846  0.00  0.00    -0.203 F 
ATOM      2  O   UNL     1      36.672 -27.290 -16.107  0.00  0.00    -0.252 OA
ATOM      3  N   UNL     1      37.837 -25.462 -15.350  0.00  0.00    -0.262 N 
ATOM      4  N   UNL     1      36.815 -26.943 -13.842  0.00  0.00    -0.266 N 
ATOM      5  C   UNL     1      38.345 -24.599 -14.291  0.00  0.00    +0.242 C 
ATOM      6  C   UNL     1      37.973 -25.105 -12.938  0.00  0.00    +0.179 C 
ATOM      7  C   UNL     1      37.079 -26.610 -15.162  0.00  0.00    +0.306 C 
ATOM      8  C   UNL     1      37.252 -26.215 -12.770  0.00  0.00    +0.095 C 
ATOM      9  H   UNL     1      38.049 -25.210 -16.277  0.00  0.00    +0.154 HD
ATOM     10  H   UNL     1      36.281 -27.751 -13.667  0.00  0.00    +0.157 HD
ENDROOT
BRANCH   5  11
ATOM     11  O   UNL     1      37.801 -23.299 -14.467  0.00  0.00    -0.362 OA
ATOM     12  H   UNL     1      36.859 -23.309 -14.235  0.00  0.00    +0.213 HD
ENDBRANCH   5  11
TORSDOF 1
ENDMDL
MODEL 3
REMARK VINA RESULT:      -5.7      3.360      4.111
REMARK  Name = 448302
REMARK  1 active torsions:
REMARK  status: ('A' for Active; 'I' for Inactive)
REMARK    1  A    between atoms: C_5  and  O_11
REMARK                            x       y       z     vdW  Elec       q    Type
REMARK                         _______ _______ _______ _____ _____    ______ ____
ROOT
ATOM      1  F   UNL     1      37.676 -23.213 -14.396  0.00  0.00    -0.203 F 
ATOM      2  O   UNL     1      35.208 -24.834  -9.858  0.00  0.00    -0.252 OA
ATOM      3  N   UNL     1      36.780 -23.464 -10.820  0.00  0.00    -0.262 N 
ATOM      4  N   UNL     1      35.509 -24.938 -12.132  0.00  0.00    -0.266 N 
ATOM      5  C   UNL     1      37.525 -22.953 -11.962  0.00  0.00    +0.242 C 
ATOM      6  C   UNL     1      37.091 -23.593 -13.237  0.00  0.00    +0.179 C 
ATOM      7  C   UNL     1      35.794 -24.440 -10.869  0.00  0.00    +0.306 C 
ATOM      8  C   UNL     1      36.135 -24.524 -13.274  0.00  0.00    +0.095 C 
ATOM      9  H   UNL     1      36.992 -23.084  -9.936  0.00  0.00    +0.154 HD
ATOM     10  H   UNL     1      34.815 -25.633 -12.209  0.00  0.00    +0.157 HD
ENDROOT
BRANCH   5  11
ATOM     11  O   UNL     1      38.905 -23.217 -11.756  0.00  0.00    -0.362 OA
ATOM     12  H   UNL     1      39.406 -22.389 -11.828  0.00  0.00    +0.213 HD
ENDBRANCH   5  11
TORSDOF 1
ENDMDL
MODEL 4
REMARK VINA RESULT:      -5.6      2.441      2.961
REMARK  Name = 448302
REMARK  1 active torsions:
REMARK  status: ('A' for Active; 'I' for Inactive)
REMARK    1  A    between atoms: C_5  and  O_11
REMARK                            x       y       z     vdW  Elec       q    Type
REMARK                         _______ _______ _______ _____ _____    ______ ____
ROOT
ATOM      1  F   UNL     1      36.314 -24.508 -12.820  0.00  0.00    -0.203 F 
ATOM      2  O   UNL     1      40.897 -25.962 -15.308  0.00  0.00    -0.252 OA
ATOM      3  N   UNL     1      38.983 -24.695 -15.368  0.00  0.00    -0.262 N 
ATOM      4  N   UNL     1      39.442 -26.090 -13.537  0.00  0.00    -0.266 N 
ATOM      5  C   UNL     1      37.719 -24.235 -14.811  0.00  0.00    +0.242 C 
ATOM      6  C   UNL     1      37.444 -24.849 -13.480  0.00  0.00    +0.179 C 
ATOM      7  C   UNL     1      39.844 -25.608 -14.774  0.00  0.00    +0.306 C 
ATOM      8  C   UNL     1      38.284 -25.718 -12.913  0.00  0.00    +0.095 C 
ATOM      9  H   UNL     1      39.252 -24.328 -16.242  0.00  0.00    +0.154 HD
ATOM     10  H   UNL     1      40.025 -26.739 -13.081  0.00  0.00    +0.157 HD
ENDROOT
BRANCH   5  11
ATOM     11  O   UNL     1      36.675 -24.584 -15.708  0.00  0.00    -0.362 OA
ATOM     12  H   UNL     1      35.836 -24.221 -15.384  0.00  0.00    +0.213 HD
ENDBRANCH   5  11
TORSDOF 1
ENDMDL
MODEL 5
REMARK VINA RESULT:      -5.5      1.777      3.035
REMARK  Name = 448302
REMARK  1 active torsions:
REMARK  status: ('A' for Active; 'I' for Inactive)
REMARK    1  A    between atoms: C_5  and  O_11
REMARK                            x       y       z     vdW  Elec       q    Type
REMARK                         _______ _______ _______ _____ _____    ______ ____
ROOT
ATOM      1  F   UNL     1      40.024 -25.898 -15.335  0.00  0.00    -0.203 F 
ATOM      2  O   UNL     1      36.183 -25.603 -11.533  0.00  0.00    -0.252 OA
ATOM      3  N   UNL     1      36.916 -26.601 -13.465  0.00  0.00    -0.262 N 
ATOM      4  N   UNL     1      38.180 -24.915 -12.432  0.00  0.00    -0.266 N 
ATOM      5  C   UNL     1      37.869 -26.768 -14.554  0.00  0.00    +0.242 C 
ATOM      6  C   UNL     1      39.038 -25.852 -14.412  0.00  0.00    +0.179 C 
ATOM      7  C   UNL     1      37.036 -25.698 -12.418  0.00  0.00    +0.306 C 
ATOM      8  C   UNL     1      39.147 -24.995 -13.395  0.00  0.00    +0.095 C 
ATOM      9  H   UNL     1      36.119 -27.178 -13.472  0.00  0.00    +0.154 HD
ATOM     10  H   UNL     1      38.303 -24.261 -11.705  0.00  0.00    +0.157 HD
ENDROOT
BRANCH   5  11
ATOM     11  O   UNL     1      37.209 -26.490 -15.780  0.00  0.00    -0.362 OA
ATOM     12  H   UNL     1      36.535 -25.807 -15.637  0.00  0.00    +0.213 HD
ENDBRANCH   5  11
TORSDOF 1
ENDMDL
MODEL 6
REMARK VINA RESULT:      -5.5      2.434      2.607
REMARK  Name = 448302
REMARK  1 active torsions:
REMARK  status: ('A' for Active; 'I' for Inactive)
REMARK    1  A    between atoms: C_5  and  O_11
REMARK                            x       y       z     vdW  Elec       q    Type
REMARK                         _______ _______ _______ _____ _____    ______ ____
ROOT
ATOM      1  F   UNL     1      35.663 -24.941 -13.675  0.00  0.00    -0.203 F 
ATOM      2  O   UNL     1      40.915 -25.500 -14.861  0.00  0.00    -0.252 OA
ATOM      3  N   UNL     1      39.177 -26.065 -13.472  0.00  0.00    -0.262 N 
ATOM      4  N   UNL     1      38.842 -24.609 -15.282  0.00  0.00    -0.266 N 
ATOM      5  C   UNL     1      37.788 -25.988 -13.041  0.00  0.00    +0.242 C 
ATOM      6  C   UNL     1      36.981 -25.103 -13.930  0.00  0.00    +0.179 C 
ATOM      7  C   UNL     1      39.724 -25.397 -14.558  0.00  0.00    +0.306 C 
ATOM      8  C   UNL     1      37.516 -24.473 -14.978  0.00  0.00    +0.095 C 
ATOM      9  H   UNL     1      39.780 -26.642 -12.948  0.00  0.00    +0.154 HD
ATOM     10  H   UNL     1      39.191 -24.118 -16.061  0.00  0.00    +0.157 HD
ENDROOT
BRANCH   5  11
ATOM     11  O   UNL     1      37.752 -25.474 -11.718  0.00  0.00    -0.362 OA
ATOM     12  H   UNL     1      38.531 -25.785 -11.230  0.00  0.00    +0.213 HD
ENDBRANCH   5  11
TORSDOF 1
ENDMDL
MODEL 7
REMARK VINA RESULT:      -5.4     12.110     12.771
REMARK  Name = 448302
REMARK  1 active torsions:
REMARK  status: ('A' for Active; 'I' for Inactive)
REMARK    1  A    between atoms: C_5  and  O_11
REMARK                            x       y       z     vdW  Elec       q    Type
REMARK                         _______ _______ _______ _____ _____    ______ ____
ROOT
ATOM      1  F   UNL     1      35.066 -19.507 -23.890  0.00  0.00    -0.203 F 
ATOM      2  O   UNL     1      34.890 -15.567 -20.182  0.00  0.00    -0.252 OA
ATOM      3  N   UNL     1      34.560 -16.177 -22.370  0.00  0.00    -0.262 N 
ATOM      4  N   UNL     1      35.307 -17.742 -20.787  0.00  0.00    -0.266 N 
ATOM      5  C   UNL     1      34.577 -17.143 -23.460  0.00  0.00    +0.242 C 
ATOM      6  C   UNL     1      35.015 -18.492 -22.998  0.00  0.00    +0.179 C 
ATOM      7  C   UNL     1      34.919 -16.437 -21.055  0.00  0.00    +0.306 C 
ATOM      8  C   UNL     1      35.349 -18.732 -21.729  0.00  0.00    +0.095 C 
ATOM      9  H   UNL     1      34.268 -15.261 -22.583  0.00  0.00    +0.154 HD
ATOM     10  H   UNL     1      35.569 -17.967 -19.865  0.00  0.00    +0.157 HD
ENDROOT
BRANCH   5  11
ATOM     11  O   UNL     1      35.474 -16.681 -24.460  0.00  0.00    -0.362 OA
ATOM     12  H   UNL     1      36.272 -17.232 -24.457  0.00  0.00    +0.213 HD
ENDBRANCH   5  11
TORSDOF 1
ENDMDL
MODEL 8
REMARK VINA RESULT:      -5.3     12.771     13.290
REMARK  Name = 448302
REMARK  1 active torsions:
REMARK  status: ('A' for Active; 'I' for Inactive)
REMARK    1  A    between atoms: C_5  and  O_11
REMARK                            x       y       z     vdW  Elec       q    Type
REMARK                         _______ _______ _______ _____ _____    ______ ____
ROOT
ATOM      1  F   UNL     1      35.252 -16.911 -20.570  0.00  0.00    -0.203 F 
ATOM      2  O   UNL     1      34.597 -16.530 -25.930  0.00  0.00    -0.252 OA
ATOM      3  N   UNL     1      35.282 -17.812 -24.154  0.00  0.00    -0.262 N 
ATOM      4  N   UNL     1      34.439 -15.647 -23.817  0.00  0.00    -0.266 N 
ATOM      5  C   UNL     1      35.519 -18.034 -22.733  0.00  0.00    +0.242 C 
ATOM      6  C   UNL     1      35.113 -16.856 -21.914  0.00  0.00    +0.179 C 
ATOM      7  C   UNL     1      34.763 -16.654 -24.715  0.00  0.00    +0.306 C 
ATOM      8  C   UNL     1      34.606 -15.750 -22.464  0.00  0.00    +0.095 C 
ATOM      9  H   UNL     1      35.508 -18.548 -24.768  0.00  0.00    +0.154 HD
ATOM     10  H   UNL     1      34.067 -14.809 -24.176  0.00  0.00    +0.157 HD
ENDROOT
BRANCH   5  11
ATOM     11  O   UNL     1      36.904 -18.280 -22.539  0.00  0.00    -0.362 OA
ATOM     12  H   UNL     1      37.367 -18.209 -23.389  0.00  0.00    +0.213 HD
ENDBRANCH   5  11
TORSDOF 1
ENDMDL
MODEL 9
REMARK VINA RESULT:      -5.2     11.623     12.190
REMARK  Name = 448302
REMARK  1 active torsions:
REMARK  status: ('A' for Active; 'I' for Inactive)
REMARK    1  A    between atoms: C_5  and  O_11
REMARK                            x       y       z     vdW  Elec       q    Type
REMARK                         _______ _______ _______ _____ _____    ______ ____
ROOT
ATOM      1  F   UNL     1      34.988 -19.599 -24.143  0.00  0.00    -0.203 F 
ATOM      2  O   UNL     1      34.950 -15.709 -20.379  0.00  0.00    -0.252 OA
ATOM      3  N   UNL     1      35.051 -17.957 -20.833  0.00  0.00    -0.262 N 
ATOM      4  N   UNL     1      34.886 -16.387 -22.571  0.00  0.00    -0.266 N 
ATOM      5  C   UNL     1      35.057 -19.094 -21.745  0.00  0.00    +0.242 C 
ATOM      6  C   UNL     1      34.974 -18.661 -23.170  0.00  0.00    +0.179 C 
ATOM      7  C   UNL     1      34.960 -16.623 -21.206  0.00  0.00    +0.306 C 
ATOM      8  C   UNL     1      34.896 -17.375 -23.516  0.00  0.00    +0.095 C 
ATOM      9  H   UNL     1      35.118 -18.151 -19.870  0.00  0.00    +0.154 HD
ATOM     10  H   UNL     1      34.820 -15.454 -22.876  0.00  0.00    +0.157 HD
ENDROOT
BRANCH   5  11
ATOM     11  O   UNL     1      33.942 -19.920 -21.444  0.00  0.00    -0.362 OA
ATOM     12  H   UNL     1      33.307 -19.884 -22.177  0.00  0.00    +0.213 HD
ENDBRANCH   5  11
TORSDOF 1
ENDMDL
