MODEL 1
REMARK VINA RESULT:     -12.3      0.000      0.000
REMARK  Name = 23725625
REMARK  4 active torsions:
REMARK  status: ('A' for Active; 'I' for Inactive)
REMARK    1  A    between atoms: C_2  and  C_17
REMARK    2  A    between atoms: C_4  and  C_21
REMARK    3  A    between atoms: C_12  and  C_18
REMARK    4  A    between atoms: C_21  and  C_25
REMARK                            x       y       z     vdW  Elec       q    Type
REMARK                         _______ _______ _______ _____ _____    ______ ____
ROOT
ATOM      1  F   UNL     1      32.722 -14.305 -24.970  0.00  0.00    -0.204 F 
ATOM      2  C   UNL     1      33.445 -15.386 -22.983  0.00  0.00    +0.081 C 
ATOM      3  C   UNL     1      34.200 -16.380 -22.367  0.00  0.00    +0.003 C 
ATOM      4  C   UNL     1      34.963 -17.253 -23.142  0.00  0.00    -0.016 C 
ATOM      5  C   UNL     1      33.448 -15.258 -24.369  0.00  0.00    +0.144 C 
ATOM      6  C   UNL     1      34.968 -17.129 -24.532  0.00  0.00    -0.002 C 
ATOM      7  C   UNL     1      34.211 -16.132 -25.145  0.00  0.00    +0.029 C 
ENDROOT
BRANCH   2  17
ATOM      8  O   UNL     1      32.072  -8.251 -22.580  0.00  0.00    -0.275 OA
ATOM      9  O   UNL     1      31.761 -14.982 -21.477  0.00  0.00    -0.270 OA
ATOM     10  N   UNL     1      32.675 -10.432 -23.126  0.00  0.00    -0.276 N 
ATOM     11  N   UNL     1      32.927 -13.104 -22.234  0.00  0.00    -0.273 N 
ATOM     12  C   UNL     1      32.804  -9.041 -23.168  0.00  0.00    +0.225 C 
ATOM     13  C   UNL     1      33.490 -11.380 -23.899  0.00  0.00    +0.115 C 
ATOM     14  C   UNL     1      31.602 -11.040 -22.333  0.00  0.00    +0.115 C 
ATOM     15  C   UNL     1      34.023 -12.493 -23.000  0.00  0.00    +0.115 C 
ATOM     16  C   UNL     1      32.142 -12.155 -21.444  0.00  0.00    +0.115 C 
ATOM     17  C   UNL     1      32.643 -14.469 -22.164  0.00  0.00    +0.251 C 
BRANCH  12  18
ATOM     18  C   UNL     1      33.920  -8.482 -23.992  0.00  0.00    +0.077 C 
ATOM     19  C   UNL     1      34.915  -7.595 -23.327  0.00  0.00    +0.010 C 
ATOM     20  C   UNL     1      33.916  -7.024 -24.290  0.00  0.00    +0.010 C 
ENDBRANCH  12  18
ENDBRANCH   2  17
BRANCH   4  21
ATOM     21  C   UNL     1      35.772 -18.321 -22.486  0.00  0.00    +0.074 C 
BRANCH  21  25
ATOM     22  O   UNL     1      32.514 -21.638 -19.550  0.00  0.00    -0.266 OA
ATOM     23  N   UNL     1      33.651 -19.269 -21.934  0.00  0.00    -0.174 NA
ATOM     24  N   UNL     1      32.857 -20.088 -21.205  0.00  0.00    -0.242 N 
ATOM     25  C   UNL     1      34.918 -19.235 -21.667  0.00  0.00    +0.083 A 
ATOM     26  C   UNL     1      35.546 -20.046 -20.604  0.00  0.00    +0.020 A 
ATOM     27  C   UNL     1      34.712 -20.883 -19.868  0.00  0.00    +0.059 A 
ATOM     28  C   UNL     1      36.914 -20.003 -20.324  0.00  0.00    +0.001 C 
ATOM     29  C   UNL     1      33.274 -20.911 -20.182  0.00  0.00    +0.273 A 
ATOM     30  C   UNL     1      35.235 -21.681 -18.846  0.00  0.00    +0.005 C 
ATOM     31  C   UNL     1      37.438 -20.801 -19.303  0.00  0.00    +0.000 C 
ATOM     32  C   UNL     1      36.600 -21.638 -18.567  0.00  0.00    +0.000 C 
ATOM     33  H   UNL     1      31.898 -20.097 -21.426  0.00  0.00    +0.192 HD
ENDBRANCH  21  25
ENDBRANCH   4  21
TORSDOF 4
ENDMDL
MODEL 2
REMARK VINA RESULT:     -11.8      2.595     11.071
REMARK  Name = 23725625
REMARK  4 active torsions:
REMARK  status: ('A' for Active; 'I' for Inactive)
REMARK    1  A    between atoms: C_2  and  C_17
REMARK    2  A    between atoms: C_4  and  C_21
REMARK    3  A    between atoms: C_12  and  C_18
REMARK    4  A    between atoms: C_21  and  C_25
REMARK                            x       y       z     vdW  Elec       q    Type
REMARK                         _______ _______ _______ _____ _____    ______ ____
ROOT
ATOM      1  F   UNL     1      31.353 -13.007 -22.593  0.00  0.00    -0.204 F 
ATOM      2  C   UNL     1      32.903 -11.378 -23.356  0.00  0.00    +0.081 C 
ATOM      3  C   UNL     1      33.439 -10.096 -23.261  0.00  0.00    +0.003 C 
ATOM      4  C   UNL     1      32.944  -9.206 -22.309  0.00  0.00    -0.016 C 
ATOM      5  C   UNL     1      31.875 -11.776 -22.506  0.00  0.00    +0.144 C 
ATOM      6  C   UNL     1      31.913  -9.600 -21.455  0.00  0.00    -0.002 C 
ATOM      7  C   UNL     1      31.379 -10.885 -21.553  0.00  0.00    +0.029 C 
ENDROOT
BRANCH   2  17
ATOM      8  O   UNL     1      34.995 -18.338 -23.729  0.00  0.00    -0.275 OA
ATOM      9  O   UNL     1      33.302 -11.975 -25.536  0.00  0.00    -0.270 OA
ATOM     10  N   UNL     1      34.128 -16.239 -23.215  0.00  0.00    -0.276 N 
ATOM     11  N   UNL     1      34.006 -13.502 -23.913  0.00  0.00    -0.273 N 
ATOM     12  C   UNL     1      34.655 -17.495 -22.903  0.00  0.00    +0.225 C 
ATOM     13  C   UNL     1      33.636 -15.263 -22.234  0.00  0.00    +0.115 C 
ATOM     14  C   UNL     1      33.949 -15.852 -24.618  0.00  0.00    +0.115 C 
ATOM     15  C   UNL     1      34.219 -13.879 -22.509  0.00  0.00    +0.115 C 
ATOM     16  C   UNL     1      34.528 -14.466 -24.882  0.00  0.00    +0.115 C 
ATOM     17  C   UNL     1      33.426 -12.313 -24.360  0.00  0.00    +0.251 C 
BRANCH  12  18
ATOM     18  C   UNL     1      34.816 -17.830 -21.455  0.00  0.00    +0.077 C 
ATOM     19  C   UNL     1      35.859 -18.821 -21.069  0.00  0.00    +0.010 C 
ATOM     20  C   UNL     1      34.405 -19.184 -20.993  0.00  0.00    +0.010 C 
ENDBRANCH  12  18
ENDBRANCH   2  17
BRANCH   4  21
ATOM     21  C   UNL     1      33.513  -7.831 -22.205  0.00  0.00    +0.074 C 
BRANCH  21  25
ATOM     22  O   UNL     1      30.314  -4.156 -24.755  0.00  0.00    -0.266 OA
ATOM     23  N   UNL     1      31.542  -6.494 -22.386  0.00  0.00    -0.174 NA
ATOM     24  N   UNL     1      30.762  -5.589 -23.021  0.00  0.00    -0.242 N 
ATOM     25  C   UNL     1      32.671  -6.830 -22.927  0.00  0.00    +0.083 A 
ATOM     26  C   UNL     1      33.153  -6.274 -24.208  0.00  0.00    +0.020 A 
ATOM     27  C   UNL     1      32.336  -5.344 -24.844  0.00  0.00    +0.059 A 
ATOM     28  C   UNL     1      34.371  -6.641 -24.785  0.00  0.00    +0.001 C 
ATOM     29  C   UNL     1      31.056  -4.973 -24.217  0.00  0.00    +0.273 A 
ATOM     30  C   UNL     1      32.725  -4.774 -26.060  0.00  0.00    +0.005 C 
ATOM     31  C   UNL     1      34.762  -6.072 -26.000  0.00  0.00    +0.000 C 
ATOM     32  C   UNL     1      33.941  -5.141 -26.635  0.00  0.00    +0.000 C 
ATOM     33  H   UNL     1      29.910  -5.351 -22.590  0.00  0.00    +0.192 HD
ENDBRANCH  21  25
ENDBRANCH   4  21
TORSDOF 4
ENDMDL
MODEL 3
REMARK VINA RESULT:     -11.6      6.020     11.188
REMARK  Name = 23725625
REMARK  4 active torsions:
REMARK  status: ('A' for Active; 'I' for Inactive)
REMARK    1  A    between atoms: C_2  and  C_17
REMARK    2  A    between atoms: C_4  and  C_21
REMARK    3  A    between atoms: C_12  and  C_18
REMARK    4  A    between atoms: C_21  and  C_25
REMARK                            x       y       z     vdW  Elec       q    Type
REMARK                         _______ _______ _______ _____ _____    ______ ____
ROOT
ATOM      1  F   UNL     1      36.589 -22.579 -14.069  0.00  0.00    -0.204 F 
ATOM      2  C   UNL     1      35.290 -23.223 -15.950  0.00  0.00    +0.081 C 
ATOM      3  C   UNL     1      35.038 -23.142 -17.317  0.00  0.00    +0.003 C 
ATOM      4  C   UNL     1      35.842 -22.338 -18.124  0.00  0.00    -0.016 C 
ATOM      5  C   UNL     1      36.341 -22.507 -15.384  0.00  0.00    +0.144 C 
ATOM      6  C   UNL     1      36.896 -21.617 -17.561  0.00  0.00    -0.002 C 
ATOM      7  C   UNL     1      37.146 -21.702 -16.192  0.00  0.00    +0.029 C 
ENDROOT
BRANCH   2  17
ATOM      8  O   UNL     1      28.199 -24.405 -14.820  0.00  0.00    -0.275 OA
ATOM      9  O   UNL     1      34.994 -25.030 -14.565  0.00  0.00    -0.270 OA
ATOM     10  N   UNL     1      30.325 -23.822 -15.567  0.00  0.00    -0.276 N 
ATOM     11  N   UNL     1      33.091 -23.739 -14.983  0.00  0.00    -0.273 N 
ATOM     12  C   UNL     1      28.946 -23.645 -15.431  0.00  0.00    +0.225 C 
ATOM     13  C   UNL     1      31.210 -22.967 -16.371  0.00  0.00    +0.115 C 
ATOM     14  C   UNL     1      30.976 -24.983 -14.954  0.00  0.00    +0.115 C 
ATOM     15  C   UNL     1      32.442 -22.557 -15.567  0.00  0.00    +0.115 C 
ATOM     16  C   UNL     1      32.209 -24.565 -14.159  0.00  0.00    +0.115 C 
ATOM     17  C   UNL     1      34.442 -24.071 -15.103  0.00  0.00    +0.251 C 
BRANCH  12  18
ATOM     18  C   UNL     1      28.342 -22.439 -16.076  0.00  0.00    +0.077 C 
ATOM     19  C   UNL     1      26.866 -22.258 -15.997  0.00  0.00    +0.010 C 
ATOM     20  C   UNL     1      27.513 -22.633 -17.297  0.00  0.00    +0.010 C 
ENDBRANCH  12  18
ENDBRANCH   2  17
BRANCH   4  21
ATOM     21  C   UNL     1      35.574 -22.245 -19.589  0.00  0.00    +0.074 C 
BRANCH  21  25
ATOM     22  O   UNL     1      31.709 -18.483 -20.660  0.00  0.00    -0.266 OA
ATOM     23  N   UNL     1      33.331 -21.427 -19.524  0.00  0.00    -0.174 NA
ATOM     24  N   UNL     1      32.388 -20.495 -19.793  0.00  0.00    -0.242 N 
ATOM     25  C   UNL     1      34.551 -21.200 -19.897  0.00  0.00    +0.083 A 
ATOM     26  C   UNL     1      34.969 -19.972 -20.603  0.00  0.00    +0.020 A 
ATOM     27  C   UNL     1      33.983 -19.025 -20.868  0.00  0.00    +0.059 A 
ATOM     28  C   UNL     1      36.287 -19.734 -21.001  0.00  0.00    +0.001 C 
ATOM     29  C   UNL     1      32.601 -19.297 -20.440  0.00  0.00    +0.273 A 
ATOM     30  C   UNL     1      34.302 -17.838 -21.534  0.00  0.00    +0.005 C 
ATOM     31  C   UNL     1      36.607 -18.548 -21.665  0.00  0.00    +0.000 C 
ATOM     32  C   UNL     1      35.617 -17.602 -21.930  0.00  0.00    +0.000 C 
ATOM     33  H   UNL     1      31.469 -20.690 -19.500  0.00  0.00    +0.192 HD
ENDBRANCH  21  25
ENDBRANCH   4  21
TORSDOF 4
ENDMDL
MODEL 4
REMARK VINA RESULT:     -11.6      1.589      2.355
REMARK  Name = 23725625
REMARK  4 active torsions:
REMARK  status: ('A' for Active; 'I' for Inactive)
REMARK    1  A    between atoms: C_2  and  C_17
REMARK    2  A    between atoms: C_4  and  C_21
REMARK    3  A    between atoms: C_12  and  C_18
REMARK    4  A    between atoms: C_21  and  C_25
REMARK                            x       y       z     vdW  Elec       q    Type
REMARK                         _______ _______ _______ _____ _____    ______ ____
ROOT
ATOM      1  F   UNL     1      33.621 -16.474 -24.152  0.00  0.00    -0.204 F 
ATOM      2  C   UNL     1      33.987 -17.197 -21.919  0.00  0.00    +0.081 C 
ATOM      3  C   UNL     1      34.606 -18.069 -21.028  0.00  0.00    +0.003 C 
ATOM      4  C   UNL     1      35.459 -19.063 -21.509  0.00  0.00    -0.016 C 
ATOM      5  C   UNL     1      34.214 -17.310 -23.288  0.00  0.00    +0.144 C 
ATOM      6  C   UNL     1      35.689 -19.180 -22.881  0.00  0.00    -0.002 C 
ATOM      7  C   UNL     1      35.068 -18.304 -23.769  0.00  0.00    +0.029 C 
ENDROOT
BRANCH   2  17
ATOM      8  O   UNL     1      32.666 -10.133 -23.069  0.00  0.00    -0.275 OA
ATOM      9  O   UNL     1      32.114 -16.538 -20.768  0.00  0.00    -0.270 OA
ATOM     10  N   UNL     1      33.310 -12.370 -23.103  0.00  0.00    -0.276 N 
ATOM     11  N   UNL     1      33.400 -14.821 -21.695  0.00  0.00    -0.273 N 
ATOM     12  C   UNL     1      33.463 -11.011 -23.389  0.00  0.00    +0.225 C 
ATOM     13  C   UNL     1      34.212 -13.436 -23.561  0.00  0.00    +0.115 C 
ATOM     14  C   UNL     1      32.129 -12.832 -22.368  0.00  0.00    +0.115 C 
ATOM     15  C   UNL     1      34.600 -14.351 -22.402  0.00  0.00    +0.115 C 
ATOM     16  C   UNL     1      32.524 -13.751 -21.217  0.00  0.00    +0.115 C 
ATOM     17  C   UNL     1      33.090 -16.152 -21.409  0.00  0.00    +0.251 C 
BRANCH  12  18
ATOM     18  C   UNL     1      34.690 -10.602 -24.139  0.00  0.00    +0.077 C 
ATOM     19  C   UNL     1      34.720  -9.252 -24.766  0.00  0.00    +0.010 C 
ATOM     20  C   UNL     1      34.605 -10.479 -25.620  0.00  0.00    +0.010 C 
ENDBRANCH  12  18
ENDBRANCH   2  17
BRANCH   4  21
ATOM     21  C   UNL     1      36.122 -20.002 -20.559  0.00  0.00    +0.074 C 
BRANCH  21  25
ATOM     22  O   UNL     1      32.357 -23.078 -17.990  0.00  0.00    -0.266 OA
ATOM     23  N   UNL     1      33.937 -20.939 -20.339  0.00  0.00    -0.174 NA
ATOM     24  N   UNL     1      33.017 -21.698 -19.699  0.00  0.00    -0.242 N 
ATOM     25  C   UNL     1      35.126 -20.847 -19.833  0.00  0.00    +0.083 A 
ATOM     26  C   UNL     1      35.533 -21.530 -18.588  0.00  0.00    +0.020 A 
ATOM     27  C   UNL     1      34.573 -22.307 -17.947  0.00  0.00    +0.059 A 
ATOM     28  C   UNL     1      36.819 -21.426 -18.050  0.00  0.00    +0.001 C 
ATOM     29  C   UNL     1      33.226 -22.401 -18.533  0.00  0.00    +0.273 A 
ATOM     30  C   UNL     1      34.885 -22.983 -16.764  0.00  0.00    +0.005 C 
ATOM     31  C   UNL     1      37.132 -22.102 -16.868  0.00  0.00    +0.000 C 
ATOM     32  C   UNL     1      36.167 -22.879 -16.228  0.00  0.00    +0.000 C 
ATOM     33  H   UNL     1      32.121 -21.752 -20.102  0.00  0.00    +0.192 HD
ENDBRANCH  21  25
ENDBRANCH   4  21
TORSDOF 4
ENDMDL
MODEL 5
REMARK VINA RESULT:     -11.6      3.528      6.197
REMARK  Name = 23725625
REMARK  4 active torsions:
REMARK  status: ('A' for Active; 'I' for Inactive)
REMARK    1  A    between atoms: C_2  and  C_17
REMARK    2  A    between atoms: C_4  and  C_21
REMARK    3  A    between atoms: C_12  and  C_18
REMARK    4  A    between atoms: C_21  and  C_25
REMARK                            x       y       z     vdW  Elec       q    Type
REMARK                         _______ _______ _______ _____ _____    ______ ____
ROOT
ATOM      1  F   UNL     1      35.043  -7.992 -23.783  0.00  0.00    -0.204 F 
ATOM      2  C   UNL     1      33.297  -9.327 -22.882  0.00  0.00    +0.081 C 
ATOM      3  C   UNL     1      32.631 -10.548 -22.824  0.00  0.00    +0.003 C 
ATOM      4  C   UNL     1      33.066 -11.615 -23.610  0.00  0.00    -0.016 C 
ATOM      5  C   UNL     1      34.397  -9.165 -23.720  0.00  0.00    +0.144 C 
ATOM      6  C   UNL     1      34.168 -11.457 -24.452  0.00  0.00    -0.002 C 
ATOM      7  C   UNL     1      34.833 -10.232 -24.507  0.00  0.00    +0.029 C 
ENDROOT
BRANCH   2  17
ATOM      8  O   UNL     1      30.418  -2.709 -23.812  0.00  0.00    -0.275 OA
ATOM      9  O   UNL     1      32.641  -8.453 -20.864  0.00  0.00    -0.270 OA
ATOM     10  N   UNL     1      31.219  -4.890 -23.953  0.00  0.00    -0.276 N 
ATOM     11  N   UNL     1      32.644  -6.968 -22.669  0.00  0.00    -0.273 N 
ATOM     12  C   UNL     1      30.910  -3.626 -24.463  0.00  0.00    +0.225 C 
ATOM     13  C   UNL     1      31.723  -6.020 -24.746  0.00  0.00    +0.115 C 
ATOM     14  C   UNL     1      30.954  -5.192 -22.543  0.00  0.00    +0.115 C 
ATOM     15  C   UNL     1      32.940  -6.652 -24.073  0.00  0.00    +0.115 C 
ATOM     16  C   UNL     1      32.172  -5.829 -21.881  0.00  0.00    +0.115 C 
ATOM     17  C   UNL     1      32.836  -8.206 -22.054  0.00  0.00    +0.251 C 
BRANCH  12  18
ATOM     18  C   UNL     1      31.206  -3.379 -25.907  0.00  0.00    +0.077 C 
ATOM     19  C   UNL     1      32.460  -2.657 -26.259  0.00  0.00    +0.010 C 
ATOM     20  C   UNL     1      31.130  -1.982 -26.415  0.00  0.00    +0.010 C 
ENDBRANCH  12  18
ENDBRANCH   2  17
BRANCH   4  21
ATOM     21  C   UNL     1      32.353 -12.924 -23.553  0.00  0.00    +0.074 C 
BRANCH  21  25
ATOM     22  O   UNL     1      35.113 -16.548 -20.473  0.00  0.00    -0.266 OA
ATOM     23  N   UNL     1      33.199 -13.732 -21.471  0.00  0.00    -0.174 NA
ATOM     24  N   UNL     1      33.880 -14.630 -20.722  0.00  0.00    -0.242 N 
ATOM     25  C   UNL     1      33.111 -13.930 -22.749  0.00  0.00    +0.083 A 
ATOM     26  C   UNL     1      33.719 -15.088 -23.434  0.00  0.00    +0.020 A 
ATOM     27  C   UNL     1      34.414 -16.000 -22.645  0.00  0.00    +0.059 A 
ATOM     28  C   UNL     1      33.619 -15.294 -24.813  0.00  0.00    +0.001 C 
ATOM     29  C   UNL     1      34.506 -15.762 -21.195  0.00  0.00    +0.273 A 
ATOM     30  C   UNL     1      35.016 -17.122 -23.223  0.00  0.00    +0.005 C 
ATOM     31  C   UNL     1      34.220 -16.415 -25.392  0.00  0.00    +0.000 C 
ATOM     32  C   UNL     1      34.916 -17.326 -24.598  0.00  0.00    +0.000 C 
ATOM     33  H   UNL     1      33.933 -14.458 -19.754  0.00  0.00    +0.192 HD
ENDBRANCH  21  25
ENDBRANCH   4  21
TORSDOF 4
ENDMDL
MODEL 6
REMARK VINA RESULT:     -11.6      3.770      6.288
REMARK  Name = 23725625
REMARK  4 active torsions:
REMARK  status: ('A' for Active; 'I' for Inactive)
REMARK    1  A    between atoms: C_2  and  C_17
REMARK    2  A    between atoms: C_4  and  C_21
REMARK    3  A    between atoms: C_12  and  C_18
REMARK    4  A    between atoms: C_21  and  C_25
REMARK                            x       y       z     vdW  Elec       q    Type
REMARK                         _______ _______ _______ _____ _____    ______ ____
ROOT
ATOM      1  F   UNL     1      35.076  -8.109 -23.661  0.00  0.00    -0.204 F 
ATOM      2  C   UNL     1      33.219  -9.334 -22.828  0.00  0.00    +0.081 C 
ATOM      3  C   UNL     1      32.471 -10.508 -22.805  0.00  0.00    +0.003 C 
ATOM      4  C   UNL     1      32.858 -11.593 -23.590  0.00  0.00    -0.016 C 
ATOM      5  C   UNL     1      34.351  -9.237 -23.631  0.00  0.00    +0.144 C 
ATOM      6  C   UNL     1      33.992 -11.501 -24.398  0.00  0.00    -0.002 C 
ATOM      7  C   UNL     1      34.739 -10.323 -24.418  0.00  0.00    +0.029 C 
ENDROOT
BRANCH   2  17
ATOM      8  O   UNL     1      30.420  -2.679 -23.749  0.00  0.00    -0.275 OA
ATOM      9  O   UNL     1      32.655  -8.418 -20.800  0.00  0.00    -0.270 OA
ATOM     10  N   UNL     1      31.178  -4.876 -23.887  0.00  0.00    -0.276 N 
ATOM     11  N   UNL     1      32.614  -6.960 -22.626  0.00  0.00    -0.273 N 
ATOM     12  C   UNL     1      30.872  -3.614 -24.404  0.00  0.00    +0.225 C 
ATOM     13  C   UNL     1      31.632  -6.026 -24.681  0.00  0.00    +0.115 C 
ATOM     14  C   UNL     1      30.962  -5.153 -22.464  0.00  0.00    +0.115 C 
ATOM     15  C   UNL     1      32.862  -6.670 -24.045  0.00  0.00    +0.115 C 
ATOM     16  C   UNL     1      32.193  -5.802 -21.839  0.00  0.00    +0.115 C 
ATOM     17  C   UNL     1      32.809  -8.193 -22.000  0.00  0.00    +0.251 C 
BRANCH  12  18
ATOM     18  C   UNL     1      31.117  -3.394 -25.862  0.00  0.00    +0.077 C 
ATOM     19  C   UNL     1      32.384  -2.729 -26.274  0.00  0.00    +0.010 C 
ATOM     20  C   UNL     1      31.078  -1.999 -26.382  0.00  0.00    +0.010 C 
ENDBRANCH  12  18
ENDBRANCH   2  17
BRANCH   4  21
ATOM     21  C   UNL     1      32.057 -12.852 -23.570  0.00  0.00    +0.074 C 
BRANCH  21  25
ATOM     22  O   UNL     1      34.836 -17.049 -25.783  0.00  0.00    -0.266 OA
ATOM     23  N   UNL     1      32.780 -14.180 -25.418  0.00  0.00    -0.174 NA
ATOM     24  N   UNL     1      33.468 -15.216 -25.952  0.00  0.00    -0.242 N 
ATOM     25  C   UNL     1      32.825 -14.002 -24.135  0.00  0.00    +0.083 A 
ATOM     26  C   UNL     1      33.590 -14.875 -23.221  0.00  0.00    +0.020 A 
ATOM     27  C   UNL     1      34.291 -15.934 -23.792  0.00  0.00    +0.059 A 
ATOM     28  C   UNL     1      33.633 -14.676 -21.838  0.00  0.00    +0.001 C 
ATOM     29  C   UNL     1      34.230 -16.124 -25.250  0.00  0.00    +0.273 A 
ATOM     30  C   UNL     1      35.037 -16.803 -22.990  0.00  0.00    +0.005 C 
ATOM     31  C   UNL     1      34.379 -15.543 -21.036  0.00  0.00    +0.000 C 
ATOM     32  C   UNL     1      35.079 -16.602 -21.611  0.00  0.00    +0.000 C 
ATOM     33  H   UNL     1      33.419 -15.331 -26.929  0.00  0.00    +0.192 HD
ENDBRANCH  21  25
ENDBRANCH   4  21
TORSDOF 4
ENDMDL
MODEL 7
REMARK VINA RESULT:     -11.5      3.735      6.369
REMARK  Name = 23725625
REMARK  4 active torsions:
REMARK  status: ('A' for Active; 'I' for Inactive)
REMARK    1  A    between atoms: C_2  and  C_17
REMARK    2  A    between atoms: C_4  and  C_21
REMARK    3  A    between atoms: C_12  and  C_18
REMARK    4  A    between atoms: C_21  and  C_25
REMARK                            x       y       z     vdW  Elec       q    Type
REMARK                         _______ _______ _______ _____ _____    ______ ____
ROOT
ATOM      1  F   UNL     1      37.523 -19.249 -20.921  0.00  0.00    -0.204 F 
ATOM      2  C   UNL     1      35.356 -20.202 -21.111  0.00  0.00    +0.081 C 
ATOM      3  C   UNL     1      34.360 -21.025 -20.594  0.00  0.00    +0.003 C 
ATOM      4  C   UNL     1      34.566 -21.689 -19.385  0.00  0.00    -0.016 C 
ATOM      5  C   UNL     1      36.558 -20.038 -20.428  0.00  0.00    +0.144 C 
ATOM      6  C   UNL     1      35.769 -21.528 -18.697  0.00  0.00    -0.002 C 
ATOM      7  C   UNL     1      36.765 -20.702 -19.218  0.00  0.00    +0.029 C 
ENDROOT
BRANCH   2  17
ATOM      8  O   UNL     1      33.824 -13.475 -23.426  0.00  0.00    -0.275 OA
ATOM      9  O   UNL     1      35.510 -20.092 -23.399  0.00  0.00    -0.270 OA
ATOM     10  N   UNL     1      34.422 -15.418 -22.291  0.00  0.00    -0.276 N 
ATOM     11  N   UNL     1      34.540 -18.242 -22.349  0.00  0.00    -0.273 N 
ATOM     12  C   UNL     1      33.912 -14.120 -22.385  0.00  0.00    +0.225 C 
ATOM     13  C   UNL     1      34.615 -16.160 -21.038  0.00  0.00    +0.115 C 
ATOM     14  C   UNL     1      34.898 -16.102 -23.496  0.00  0.00    +0.115 C 
ATOM     15  C   UNL     1      34.030 -17.567 -21.148  0.00  0.00    +0.115 C 
ATOM     16  C   UNL     1      34.315 -17.508 -23.594  0.00  0.00    +0.115 C 
ATOM     17  C   UNL     1      35.136 -19.504 -22.384  0.00  0.00    +0.251 C 
BRANCH  12  18
ATOM     18  C   UNL     1      33.440 -13.476 -21.120  0.00  0.00    +0.077 C 
ATOM     19  C   UNL     1      32.275 -14.077 -20.413  0.00  0.00    +0.010 C 
ATOM     20  C   UNL     1      32.130 -12.769 -21.134  0.00  0.00    +0.010 C 
ENDBRANCH  12  18
ENDBRANCH   2  17
BRANCH   4  21
ATOM     21  C   UNL     1      33.501 -22.574 -18.829  0.00  0.00    +0.074 C 
BRANCH  21  25
ATOM     22  O   UNL     1      34.685 -23.979 -13.646  0.00  0.00    -0.266 OA
ATOM     23  N   UNL     1      35.017 -23.190 -17.089  0.00  0.00    -0.174 NA
ATOM     24  N   UNL     1      35.298 -23.535 -15.812  0.00  0.00    -0.242 N 
ATOM     25  C   UNL     1      33.785 -22.953 -17.411  0.00  0.00    +0.083 A 
ATOM     26  C   UNL     1      32.664 -23.040 -16.453  0.00  0.00    +0.020 A 
ATOM     27  C   UNL     1      32.975 -23.395 -15.143  0.00  0.00    +0.059 A 
ATOM     28  C   UNL     1      31.338 -22.781 -16.808  0.00  0.00    +0.001 C 
ATOM     29  C   UNL     1      34.379 -23.662 -14.792  0.00  0.00    +0.273 A 
ATOM     30  C   UNL     1      31.967 -23.497 -14.179  0.00  0.00    +0.005 C 
ATOM     31  C   UNL     1      30.330 -22.883 -15.846  0.00  0.00    +0.000 C 
ATOM     32  C   UNL     1      30.645 -23.239 -14.535  0.00  0.00    +0.000 C 
ATOM     33  H   UNL     1      36.241 -23.711 -15.591  0.00  0.00    +0.192 HD
ENDBRANCH  21  25
ENDBRANCH   4  21
TORSDOF 4
ENDMDL
MODEL 8
REMARK VINA RESULT:     -11.2      7.829     12.807
REMARK  Name = 23725625
REMARK  4 active torsions:
REMARK  status: ('A' for Active; 'I' for Inactive)
REMARK    1  A    between atoms: C_2  and  C_17
REMARK    2  A    between atoms: C_4  and  C_21
REMARK    3  A    between atoms: C_12  and  C_18
REMARK    4  A    between atoms: C_21  and  C_25
REMARK                            x       y       z     vdW  Elec       q    Type
REMARK                         _______ _______ _______ _____ _____    ______ ____
ROOT
ATOM      1  F   UNL     1      30.936 -25.400 -13.129  0.00  0.00    -0.204 F 
ATOM      2  C   UNL     1      32.130 -23.721 -14.310  0.00  0.00    +0.081 C 
ATOM      3  C   UNL     1      32.326 -22.984 -15.475  0.00  0.00    +0.003 C 
ATOM      4  C   UNL     1      31.514 -23.214 -16.586  0.00  0.00    -0.016 C 
ATOM      5  C   UNL     1      31.129 -24.686 -14.247  0.00  0.00    +0.144 C 
ATOM      6  C   UNL     1      30.510 -24.182 -16.528  0.00  0.00    -0.002 C 
ATOM      7  C   UNL     1      30.317 -24.917 -15.359  0.00  0.00    +0.029 C 
ENDROOT
BRANCH   2  17
ATOM      8  O   UNL     1      39.155 -24.314 -12.503  0.00  0.00    -0.275 OA
ATOM      9  O   UNL     1      32.508 -22.770 -12.255  0.00  0.00    -0.270 OA
ATOM     10  N   UNL     1      37.062 -24.162 -13.512  0.00  0.00    -0.276 N 
ATOM     11  N   UNL     1      34.263 -24.041 -13.132  0.00  0.00    -0.273 N 
ATOM     12  C   UNL     1      38.385 -24.601 -13.416  0.00  0.00    +0.225 C 
ATOM     13  C   UNL     1      36.165 -24.426 -14.646  0.00  0.00    +0.115 C 
ATOM     14  C   UNL     1      36.505 -23.294 -12.470  0.00  0.00    +0.115 C 
ATOM     15  C   UNL     1      34.813 -24.939 -14.156  0.00  0.00    +0.115 C 
ATOM     16  C   UNL     1      35.151 -23.810 -11.993  0.00  0.00    +0.115 C 
ATOM     17  C   UNL     1      32.986 -23.476 -13.142  0.00  0.00    +0.251 C 
BRANCH  12  18
ATOM     18  C   UNL     1      38.894 -25.486 -14.508  0.00  0.00    +0.077 C 
ATOM     19  C   UNL     1      40.227 -26.127 -14.337  0.00  0.00    +0.010 C 
ATOM     20  C   UNL     1      40.046 -25.011 -15.324  0.00  0.00    +0.010 C 
ENDBRANCH  12  18
ENDBRANCH   2  17
BRANCH   4  21
ATOM     21  C   UNL     1      31.722 -22.429 -17.837  0.00  0.00    +0.074 C 
BRANCH  21  25
ATOM     22  O   UNL     1      37.097 -21.813 -18.817  0.00  0.00    -0.266 OA
ATOM     23  N   UNL     1      34.025 -22.882 -17.400  0.00  0.00    -0.174 NA
ATOM     24  N   UNL     1      35.346 -22.724 -17.649  0.00  0.00    -0.242 N 
ATOM     25  C   UNL     1      33.174 -22.237 -18.133  0.00  0.00    +0.083 A 
ATOM     26  C   UNL     1      33.570 -21.332 -19.231  0.00  0.00    +0.020 A 
ATOM     27  C   UNL     1      34.933 -21.184 -19.471  0.00  0.00    +0.059 A 
ATOM     28  C   UNL     1      32.645 -20.640 -20.017  0.00  0.00    +0.001 C 
ATOM     29  C   UNL     1      35.889 -21.923 -18.630  0.00  0.00    +0.273 A 
ATOM     30  C   UNL     1      35.385 -20.344 -20.494  0.00  0.00    +0.005 C 
ATOM     31  C   UNL     1      33.095 -19.801 -21.040  0.00  0.00    +0.000 C 
ATOM     32  C   UNL     1      34.461 -19.654 -21.278  0.00  0.00    +0.000 C 
ATOM     33  H   UNL     1      35.973 -23.224 -17.080  0.00  0.00    +0.192 HD
ENDBRANCH  21  25
ENDBRANCH   4  21
TORSDOF 4
ENDMDL
MODEL 9
REMARK VINA RESULT:     -11.1      6.693     12.475
REMARK  Name = 23725625
REMARK  4 active torsions:
REMARK  status: ('A' for Active; 'I' for Inactive)
REMARK    1  A    between atoms: C_2  and  C_17
REMARK    2  A    between atoms: C_4  and  C_21
REMARK    3  A    between atoms: C_12  and  C_18
REMARK    4  A    between atoms: C_21  and  C_25
REMARK                            x       y       z     vdW  Elec       q    Type
REMARK                         _______ _______ _______ _____ _____    ______ ____
ROOT
ATOM      1  F   UNL     1      30.490 -23.054 -14.188  0.00  0.00    -0.204 F 
ATOM      2  C   UNL     1      32.663 -23.321 -15.110  0.00  0.00    +0.081 C 
ATOM      3  C   UNL     1      33.504 -23.307 -16.219  0.00  0.00    +0.003 C 
ATOM      4  C   UNL     1      32.986 -23.010 -17.479  0.00  0.00    -0.016 C 
ATOM      5  C   UNL     1      31.307 -23.040 -15.251  0.00  0.00    +0.144 C 
ATOM      6  C   UNL     1      31.627 -22.729 -17.626  0.00  0.00    -0.002 C 
ATOM      7  C   UNL     1      30.788 -22.743 -16.513  0.00  0.00    +0.029 C 
ENDROOT
BRANCH   2  17
ATOM      8  O   UNL     1      38.958 -25.561 -12.226  0.00  0.00    -0.275 OA
ATOM      9  O   UNL     1      32.570 -23.223 -12.818  0.00  0.00    -0.270 OA
ATOM     10  N   UNL     1      37.199 -24.750 -13.519  0.00  0.00    -0.276 N 
ATOM     11  N   UNL     1      34.407 -24.352 -13.719  0.00  0.00    -0.273 N 
ATOM     12  C   UNL     1      38.427 -25.389 -13.320  0.00  0.00    +0.225 C 
ATOM     13  C   UNL     1      36.602 -24.461 -14.830  0.00  0.00    +0.115 C 
ATOM     14  C   UNL     1      36.453 -24.232 -12.369  0.00  0.00    +0.115 C 
ATOM     15  C   UNL     1      35.141 -24.904 -14.867  0.00  0.00    +0.115 C 
ATOM     16  C   UNL     1      34.994 -24.673 -12.418  0.00  0.00    +0.115 C 
ATOM     17  C   UNL     1      33.211 -23.634 -13.784  0.00  0.00    +0.251 C 
BRANCH  12  18
ATOM     18  C   UNL     1      39.138 -25.899 -14.532  0.00  0.00    +0.077 C 
ATOM     19  C   UNL     1      40.572 -26.282 -14.403  0.00  0.00    +0.010 C 
ATOM     20  C   UNL     1      40.185 -25.039 -15.151  0.00  0.00    +0.010 C 
ENDBRANCH  12  18
ENDBRANCH   2  17
BRANCH   4  21
ATOM     21  C   UNL     1      33.884 -22.997 -18.671  0.00  0.00    +0.074 C 
BRANCH  21  25
ATOM     22  O   UNL     1      33.268 -18.329 -21.510  0.00  0.00    -0.266 OA
ATOM     23  N   UNL     1      32.561 -21.316 -19.732  0.00  0.00    -0.174 NA
ATOM     24  N   UNL     1      32.420 -20.166 -20.431  0.00  0.00    -0.242 N 
ATOM     25  C   UNL     1      33.756 -21.724 -19.443  0.00  0.00    +0.083 A 
ATOM     26  C   UNL     1      34.979 -20.998 -19.839  0.00  0.00    +0.020 A 
ATOM     27  C   UNL     1      34.812 -19.817 -20.557  0.00  0.00    +0.059 A 
ATOM     28  C   UNL     1      36.265 -21.445 -19.523  0.00  0.00    +0.001 C 
ATOM     29  C   UNL     1      33.448 -19.365 -20.878  0.00  0.00    +0.273 A 
ATOM     30  C   UNL     1      35.923 -19.074 -20.966  0.00  0.00    +0.005 C 
ATOM     31  C   UNL     1      37.376 -20.704 -19.932  0.00  0.00    +0.000 C 
ATOM     32  C   UNL     1      37.206 -19.521 -20.650  0.00  0.00    +0.000 C 
ATOM     33  H   UNL     1      31.502 -19.877 -20.638  0.00  0.00    +0.192 HD
ENDBRANCH  21  25
ENDBRANCH   4  21
TORSDOF 4
ENDMDL
