MODEL 1
REMARK VINA RESULT:      -7.9      0.000      0.000
REMARK  Name = 446904
REMARK  7 active torsions:
REMARK  status: ('A' for Active; 'I' for Inactive)
REMARK    1  A    between atoms: C_7  and  C_12
REMARK    2  A    between atoms: C_12  and  C_13
REMARK    3  A    between atoms: C_13  and  C_14
REMARK    4  A    between atoms: C_14  and  C_15
REMARK    5  A    between atoms: C_15  and  C_16
REMARK    6  A    between atoms: C_16  and  C_18
REMARK    7  A    between atoms: C_18  and  O_19
REMARK                            x       y       z     vdW  Elec       q    Type
REMARK                         _______ _______ _______ _____ _____    ______ ____
ROOT
ATOM      1  S   UNL     1      35.608 -22.881 -15.651  0.00  0.00    -0.138 S 
ATOM      2  O   UNL     1      36.785 -27.472 -16.203  0.00  0.00    -0.253 OA
ATOM      3  N   UNL     1      35.644 -26.065 -14.717  0.00  0.00    -0.288 N 
ATOM      4  N   UNL     1      37.752 -25.536 -15.307  0.00  0.00    -0.288 N 
ATOM      5  C   UNL     1      35.937 -24.870 -13.948  0.00  0.00    +0.102 C 
ATOM      6  C   UNL     1      37.353 -24.464 -14.414  0.00  0.00    +0.103 C 
ATOM      7  C   UNL     1      34.960 -23.713 -14.177  0.00  0.00    +0.067 C 
ATOM      8  C   UNL     1      37.324 -23.119 -15.136  0.00  0.00    +0.079 C 
ATOM      9  C   UNL     1      36.733 -26.475 -15.496  0.00  0.00    +0.301 C 
ATOM     10  H   UNL     1      34.780 -26.535 -14.692  0.00  0.00    +0.151 HD
ATOM     11  H   UNL     1      38.638 -25.596 -15.730  0.00  0.00    +0.151 HD
ENDROOT
BRANCH   7  12
ATOM     12  C   UNL     1      33.501 -24.105 -14.338  0.00  0.00    +0.013 C 
BRANCH  12  13
ATOM     13  C   UNL     1      32.746 -23.247 -15.357  0.00  0.00    +0.001 C 
BRANCH  13  14
ATOM     14  C   UNL     1      31.320 -22.904 -14.922  0.00  0.00    +0.001 C 
BRANCH  14  15
ATOM     15  C   UNL     1      30.322 -23.148 -16.060  0.00  0.00    +0.012 C 
BRANCH  15  16
ATOM     16  C   UNL     1      28.888 -22.793 -15.666  0.00  0.00    +0.109 C 
BRANCH  16  18
ATOM     17  O   UNL     1      27.432 -21.606 -17.216  0.00  0.00    -0.250 OA
ATOM     18  C   UNL     1      27.961 -22.646 -16.852  0.00  0.00    +0.314 C 
BRANCH  18  19
ATOM     19  O   UNL     1      27.795 -23.829 -17.501  0.00  0.00    -0.480 OA
ATOM     20  H   UNL     1      27.862 -23.864 -18.434  0.00  0.00    +0.295 HD
ENDBRANCH  18  19
ENDBRANCH  16  18
ENDBRANCH  15  16
ENDBRANCH  14  15
ENDBRANCH  13  14
ENDBRANCH  12  13
ENDBRANCH   7  12
TORSDOF 7
ENDMDL
MODEL 2
REMARK VINA RESULT:      -7.8      4.140      4.630
REMARK  Name = 446904
REMARK  7 active torsions:
REMARK  status: ('A' for Active; 'I' for Inactive)
REMARK    1  A    between atoms: C_7  and  C_12
REMARK    2  A    between atoms: C_12  and  C_13
REMARK    3  A    between atoms: C_13  and  C_14
REMARK    4  A    between atoms: C_14  and  C_15
REMARK    5  A    between atoms: C_15  and  C_16
REMARK    6  A    between atoms: C_16  and  C_18
REMARK    7  A    between atoms: C_18  and  O_19
REMARK                            x       y       z     vdW  Elec       q    Type
REMARK                         _______ _______ _______ _____ _____    ______ ____
ROOT
ATOM      1  S   UNL     1      37.066 -23.322 -13.115  0.00  0.00    -0.138 S 
ATOM      2  O   UNL     1      41.088 -25.480 -14.503  0.00  0.00    -0.253 OA
ATOM      3  N   UNL     1      39.002 -24.831 -15.349  0.00  0.00    -0.288 N 
ATOM      4  N   UNL     1      39.069 -26.081 -13.477  0.00  0.00    -0.288 N 
ATOM      5  C   UNL     1      37.606 -25.060 -15.026  0.00  0.00    +0.102 C 
ATOM      6  C   UNL     1      37.655 -25.850 -13.698  0.00  0.00    +0.103 C 
ATOM      7  C   UNL     1      36.778 -23.785 -14.844  0.00  0.00    +0.067 C 
ATOM      8  C   UNL     1      37.037 -25.041 -12.560  0.00  0.00    +0.079 C 
ATOM      9  C   UNL     1      39.866 -25.464 -14.447  0.00  0.00    +0.301 C 
ATOM     10  H   UNL     1      39.306 -24.292 -16.114  0.00  0.00    +0.151 HD
ATOM     11  H   UNL     1      39.428 -26.612 -12.731  0.00  0.00    +0.151 HD
ENDROOT
BRANCH   7  12
ATOM     12  C   UNL     1      37.101 -22.648 -15.800  0.00  0.00    +0.013 C 
BRANCH  12  13
ATOM     13  C   UNL     1      36.009 -22.399 -16.843  0.00  0.00    +0.001 C 
BRANCH  13  14
ATOM     14  C   UNL     1      36.512 -21.650 -18.080  0.00  0.00    +0.001 C 
BRANCH  14  15
ATOM     15  C   UNL     1      35.682 -22.009 -19.317  0.00  0.00    +0.012 C 
BRANCH  15  16
ATOM     16  C   UNL     1      34.889 -20.816 -19.855  0.00  0.00    +0.109 C 
BRANCH  16  18
ATOM     17  O   UNL     1      32.549 -20.198 -20.123  0.00  0.00    -0.250 OA
ATOM     18  C   UNL     1      33.392 -21.032 -19.828  0.00  0.00    +0.314 C 
BRANCH  18  19
ATOM     19  O   UNL     1      33.080 -22.300 -19.450  0.00  0.00    -0.480 OA
ATOM     20  H   UNL     1      33.717 -22.827 -19.009  0.00  0.00    +0.295 HD
ENDBRANCH  18  19
ENDBRANCH  16  18
ENDBRANCH  15  16
ENDBRANCH  14  15
ENDBRANCH  13  14
ENDBRANCH  12  13
ENDBRANCH   7  12
TORSDOF 7
ENDMDL
MODEL 3
REMARK VINA RESULT:      -7.6      9.815     11.014
REMARK  Name = 446904
REMARK  7 active torsions:
REMARK  status: ('A' for Active; 'I' for Inactive)
REMARK    1  A    between atoms: C_7  and  C_12
REMARK    2  A    between atoms: C_12  and  C_13
REMARK    3  A    between atoms: C_13  and  C_14
REMARK    4  A    between atoms: C_14  and  C_15
REMARK    5  A    between atoms: C_15  and  C_16
REMARK    6  A    between atoms: C_16  and  C_18
REMARK    7  A    between atoms: C_18  and  O_19
REMARK                            x       y       z     vdW  Elec       q    Type
REMARK                         _______ _______ _______ _____ _____    ______ ____
ROOT
ATOM      1  S   UNL     1      32.636 -15.321 -21.465  0.00  0.00    -0.138 S 
ATOM      2  O   UNL     1      33.533 -16.428 -26.018  0.00  0.00    -0.253 OA
ATOM      3  N   UNL     1      34.652 -16.076 -23.991  0.00  0.00    -0.288 N 
ATOM      4  N   UNL     1      33.239 -14.489 -24.736  0.00  0.00    -0.288 N 
ATOM      5  C   UNL     1      34.757 -15.017 -23.005  0.00  0.00    +0.102 C 
ATOM      6  C   UNL     1      33.728 -13.964 -23.476  0.00  0.00    +0.103 C 
ATOM      7  C   UNL     1      34.440 -15.450 -21.571  0.00  0.00    +0.067 C 
ATOM      8  C   UNL     1      32.599 -13.812 -22.459  0.00  0.00    +0.079 C 
ATOM      9  C   UNL     1      33.776 -15.746 -25.032  0.00  0.00    +0.301 C 
ATOM     10  H   UNL     1      35.140 -16.927 -23.934  0.00  0.00    +0.151 HD
ATOM     11  H   UNL     1      32.603 -14.014 -25.318  0.00  0.00    +0.151 HD
ENDROOT
BRANCH   7  12
ATOM     12  C   UNL     1      34.938 -16.831 -21.175  0.00  0.00    +0.013 C 
BRANCH  12  13
ATOM     13  C   UNL     1      33.822 -17.871 -21.054  0.00  0.00    +0.001 C 
BRANCH  13  14
ATOM     14  C   UNL     1      34.306 -19.307 -21.266  0.00  0.00    +0.001 C 
BRANCH  14  15
ATOM     15  C   UNL     1      33.510 -20.291 -20.401  0.00  0.00    +0.012 C 
BRANCH  15  16
ATOM     16  C   UNL     1      34.409 -21.303 -19.689  0.00  0.00    +0.109 C 
BRANCH  16  18
ATOM     17  O   UNL     1      34.064 -23.684 -19.309  0.00  0.00    -0.250 OA
ATOM     18  C   UNL     1      33.666 -22.532 -19.213  0.00  0.00    +0.314 C 
BRANCH  18  19
ATOM     19  O   UNL     1      32.483 -22.202 -18.631  0.00  0.00    -0.480 OA
ATOM     20  H   UNL     1      32.103 -21.361 -18.788  0.00  0.00    +0.295 HD
ENDBRANCH  18  19
ENDBRANCH  16  18
ENDBRANCH  15  16
ENDBRANCH  14  15
ENDBRANCH  13  14
ENDBRANCH  12  13
ENDBRANCH   7  12
TORSDOF 7
ENDMDL
MODEL 4
REMARK VINA RESULT:      -7.5      3.001      3.712
REMARK  Name = 446904
REMARK  7 active torsions:
REMARK  status: ('A' for Active; 'I' for Inactive)
REMARK    1  A    between atoms: C_7  and  C_12
REMARK    2  A    between atoms: C_12  and  C_13
REMARK    3  A    between atoms: C_13  and  C_14
REMARK    4  A    between atoms: C_14  and  C_15
REMARK    5  A    between atoms: C_15  and  C_16
REMARK    6  A    between atoms: C_16  and  C_18
REMARK    7  A    between atoms: C_18  and  O_19
REMARK                            x       y       z     vdW  Elec       q    Type
REMARK                         _______ _______ _______ _____ _____    ______ ____
ROOT
ATOM      1  S   UNL     1      36.599 -24.400 -12.749  0.00  0.00    -0.138 S 
ATOM      2  O   UNL     1      40.899 -24.857 -14.765  0.00  0.00    -0.253 OA
ATOM      3  N   UNL     1      38.628 -24.832 -15.339  0.00  0.00    -0.288 N 
ATOM      4  N   UNL     1      39.321 -26.242 -13.726  0.00  0.00    -0.288 N 
ATOM      5  C   UNL     1      37.430 -25.561 -14.968  0.00  0.00    +0.102 C 
ATOM      6  C   UNL     1      37.891 -26.471 -13.807  0.00  0.00    +0.103 C 
ATOM      7  C   UNL     1      36.266 -24.679 -14.508  0.00  0.00    +0.067 C 
ATOM      8  C   UNL     1      37.191 -26.090 -12.504  0.00  0.00    +0.079 C 
ATOM      9  C   UNL     1      39.753 -25.261 -14.624  0.00  0.00    +0.301 C 
ATOM     10  H   UNL     1      38.647 -24.119 -16.016  0.00  0.00    +0.151 HD
ATOM     11  H   UNL     1      39.919 -26.723 -13.111  0.00  0.00    +0.151 HD
ENDROOT
BRANCH   7  12
ATOM     12  C   UNL     1      36.088 -23.375 -15.268  0.00  0.00    +0.013 C 
BRANCH  12  13
ATOM     13  C   UNL     1      34.647 -22.859 -15.268  0.00  0.00    +0.001 C 
BRANCH  13  14
ATOM     14  C   UNL     1      33.749 -23.567 -16.284  0.00  0.00    +0.001 C 
BRANCH  14  15
ATOM     15  C   UNL     1      32.270 -23.265 -16.017  0.00  0.00    +0.012 C 
BRANCH  15  16
ATOM     16  C   UNL     1      31.913 -23.358 -14.533  0.00  0.00    +0.109 C 
BRANCH  16  18
ATOM     17  O   UNL     1      30.900 -25.569 -14.404  0.00  0.00    -0.250 OA
ATOM     18  C   UNL     1      31.762 -24.781 -14.043  0.00  0.00    +0.314 C 
BRANCH  18  19
ATOM     19  O   UNL     1      32.732 -25.103 -13.147  0.00  0.00    -0.480 OA
ATOM     20  H   UNL     1      32.536 -25.671 -12.429  0.00  0.00    +0.295 HD
ENDBRANCH  18  19
ENDBRANCH  16  18
ENDBRANCH  15  16
ENDBRANCH  14  15
ENDBRANCH  13  14
ENDBRANCH  12  13
ENDBRANCH   7  12
TORSDOF 7
ENDMDL
MODEL 5
REMARK VINA RESULT:      -7.4      3.268      3.693
REMARK  Name = 446904
REMARK  7 active torsions:
REMARK  status: ('A' for Active; 'I' for Inactive)
REMARK    1  A    between atoms: C_7  and  C_12
REMARK    2  A    between atoms: C_12  and  C_13
REMARK    3  A    between atoms: C_13  and  C_14
REMARK    4  A    between atoms: C_14  and  C_15
REMARK    5  A    between atoms: C_15  and  C_16
REMARK    6  A    between atoms: C_16  and  C_18
REMARK    7  A    between atoms: C_18  and  O_19
REMARK                            x       y       z     vdW  Elec       q    Type
REMARK                         _______ _______ _______ _____ _____    ______ ____
ROOT
ATOM      1  S   UNL     1      36.757 -25.426 -14.955  0.00  0.00    -0.138 S 
ATOM      2  O   UNL     1      35.217 -24.939 -10.466  0.00  0.00    -0.253 OA
ATOM      3  N   UNL     1      35.129 -23.844 -12.534  0.00  0.00    -0.288 N 
ATOM      4  N   UNL     1      37.139 -24.419 -11.699  0.00  0.00    -0.288 N 
ATOM      5  C   UNL     1      36.076 -23.328 -13.505  0.00  0.00    +0.102 C 
ATOM      6  C   UNL     1      37.449 -23.794 -12.971  0.00  0.00    +0.103 C 
ATOM      7  C   UNL     1      35.868 -23.846 -14.931  0.00  0.00    +0.067 C 
ATOM      8  C   UNL     1      38.102 -24.782 -13.934  0.00  0.00    +0.079 C 
ATOM      9  C   UNL     1      35.764 -24.461 -11.450  0.00  0.00    +0.301 C 
ATOM     10  H   UNL     1      34.153 -23.767 -12.627  0.00  0.00    +0.151 HD
ATOM     11  H   UNL     1      37.819 -24.772 -11.082  0.00  0.00    +0.151 HD
ENDROOT
BRANCH   7  12
ATOM     12  C   UNL     1      34.422 -23.999 -15.372  0.00  0.00    +0.013 C 
BRANCH  12  13
ATOM     13  C   UNL     1      34.072 -23.177 -16.616  0.00  0.00    +0.001 C 
BRANCH  13  14
ATOM     14  C   UNL     1      32.570 -23.115 -16.898  0.00  0.00    +0.001 C 
BRANCH  14  15
ATOM     15  C   UNL     1      31.774 -23.855 -15.817  0.00  0.00    +0.012 C 
BRANCH  15  16
ATOM     16  C   UNL     1      31.173 -22.906 -14.780  0.00  0.00    +0.109 C 
BRANCH  16  18
ATOM     17  O   UNL     1      30.595 -24.236 -12.823  0.00  0.00    -0.250 OA
ATOM     18  C   UNL     1      31.315 -23.405 -13.359  0.00  0.00    +0.314 C 
BRANCH  18  19
ATOM     19  O   UNL     1      32.375 -22.829 -12.734  0.00  0.00    -0.480 OA
ATOM     20  H   UNL     1      32.381 -22.749 -11.800  0.00  0.00    +0.295 HD
ENDBRANCH  18  19
ENDBRANCH  16  18
ENDBRANCH  15  16
ENDBRANCH  14  15
ENDBRANCH  13  14
ENDBRANCH  12  13
ENDBRANCH   7  12
TORSDOF 7
ENDMDL
MODEL 6
REMARK VINA RESULT:      -7.4     10.356     11.544
REMARK  Name = 446904
REMARK  7 active torsions:
REMARK  status: ('A' for Active; 'I' for Inactive)
REMARK    1  A    between atoms: C_7  and  C_12
REMARK    2  A    between atoms: C_12  and  C_13
REMARK    3  A    between atoms: C_13  and  C_14
REMARK    4  A    between atoms: C_14  and  C_15
REMARK    5  A    between atoms: C_15  and  C_16
REMARK    6  A    between atoms: C_16  and  C_18
REMARK    7  A    between atoms: C_18  and  O_19
REMARK                            x       y       z     vdW  Elec       q    Type
REMARK                         _______ _______ _______ _____ _____    ______ ____
ROOT
ATOM      1  S   UNL     1      32.399 -14.482 -21.783  0.00  0.00    -0.138 S 
ATOM      2  O   UNL     1      33.000 -15.888 -26.303  0.00  0.00    -0.253 OA
ATOM      3  N   UNL     1      34.096 -15.942 -24.233  0.00  0.00    -0.288 N 
ATOM      4  N   UNL     1      33.381 -13.961 -25.027  0.00  0.00    -0.288 N 
ATOM      5  C   UNL     1      34.541 -14.982 -23.240  0.00  0.00    +0.102 C 
ATOM      6  C   UNL     1      33.980 -13.634 -23.747  0.00  0.00    +0.103 C 
ATOM      7  C   UNL     1      34.037 -15.256 -21.821  0.00  0.00    +0.067 C 
ATOM      8  C   UNL     1      32.947 -13.073 -22.774  0.00  0.00    +0.079 C 
ATOM      9  C   UNL     1      33.437 -15.330 -25.306  0.00  0.00    +0.301 C 
ATOM     10  H   UNL     1      34.241 -16.912 -24.160  0.00  0.00    +0.151 HD
ATOM     11  H   UNL     1      32.981 -13.295 -25.631  0.00  0.00    +0.151 HD
ENDROOT
BRANCH   7  12
ATOM     12  C   UNL     1      33.986 -16.718 -21.411  0.00  0.00    +0.013 C 
BRANCH  12  13
ATOM     13  C   UNL     1      35.354 -17.297 -21.040  0.00  0.00    +0.001 C 
BRANCH  13  14
ATOM     14  C   UNL     1      35.713 -18.558 -21.828  0.00  0.00    +0.001 C 
BRANCH  14  15
ATOM     15  C   UNL     1      34.580 -19.589 -21.767  0.00  0.00    +0.012 C 
BRANCH  15  16
ATOM     16  C   UNL     1      34.630 -20.438 -20.496  0.00  0.00    +0.109 C 
BRANCH  16  18
ATOM     17  O   UNL     1      33.007 -21.945 -19.482  0.00  0.00    -0.250 OA
ATOM     18  C   UNL     1      33.264 -20.874 -20.014  0.00  0.00    +0.314 C 
BRANCH  18  19
ATOM     19  O   UNL     1      32.332 -19.908 -20.223  0.00  0.00    -0.480 OA
ATOM     20  H   UNL     1      32.256 -19.193 -19.622  0.00  0.00    +0.295 HD
ENDBRANCH  18  19
ENDBRANCH  16  18
ENDBRANCH  15  16
ENDBRANCH  14  15
ENDBRANCH  13  14
ENDBRANCH  12  13
ENDBRANCH   7  12
TORSDOF 7
ENDMDL
MODEL 7
REMARK VINA RESULT:      -7.3      2.121      2.754
REMARK  Name = 446904
REMARK  7 active torsions:
REMARK  status: ('A' for Active; 'I' for Inactive)
REMARK    1  A    between atoms: C_7  and  C_12
REMARK    2  A    between atoms: C_12  and  C_13
REMARK    3  A    between atoms: C_13  and  C_14
REMARK    4  A    between atoms: C_14  and  C_15
REMARK    5  A    between atoms: C_15  and  C_16
REMARK    6  A    between atoms: C_16  and  C_18
REMARK    7  A    between atoms: C_18  and  O_19
REMARK                            x       y       z     vdW  Elec       q    Type
REMARK                         _______ _______ _______ _____ _____    ______ ____
ROOT
ATOM      1  S   UNL     1      36.490 -23.788 -12.931  0.00  0.00    -0.138 S 
ATOM      2  O   UNL     1      40.773 -24.968 -14.670  0.00  0.00    -0.253 OA
ATOM      3  N   UNL     1      38.524 -24.876 -15.317  0.00  0.00    -0.288 N 
ATOM      4  N   UNL     1      39.064 -25.995 -13.440  0.00  0.00    -0.288 N 
ATOM      5  C   UNL     1      37.261 -25.421 -14.855  0.00  0.00    +0.102 C 
ATOM      6  C   UNL     1      37.622 -26.121 -13.525  0.00  0.00    +0.103 C 
ATOM      7  C   UNL     1      36.168 -24.376 -14.614  0.00  0.00    +0.067 C 
ATOM      8  C   UNL     1      36.932 -25.439 -12.346  0.00  0.00    +0.079 C 
ATOM      9  C   UNL     1      39.594 -25.244 -14.494  0.00  0.00    +0.301 C 
ATOM     10  H   UNL     1      38.616 -24.312 -16.118  0.00  0.00    +0.151 HD
ATOM     11  H   UNL     1      39.608 -26.393 -12.723  0.00  0.00    +0.151 HD
ENDROOT
BRANCH   7  12
ATOM     12  C   UNL     1      36.115 -23.236 -15.617  0.00  0.00    +0.013 C 
BRANCH  12  13
ATOM     13  C   UNL     1      34.785 -23.143 -16.368  0.00  0.00    +0.001 C 
BRANCH  13  14
ATOM     14  C   UNL     1      33.578 -23.539 -15.515  0.00  0.00    +0.001 C 
BRANCH  14  15
ATOM     15  C   UNL     1      32.264 -23.229 -16.241  0.00  0.00    +0.012 C 
BRANCH  15  16
ATOM     16  C   UNL     1      31.035 -23.564 -15.394  0.00  0.00    +0.109 C 
BRANCH  16  18
ATOM     17  O   UNL     1      28.622 -23.270 -15.544  0.00  0.00    -0.250 OA
ATOM     18  C   UNL     1      29.738 -23.080 -16.004  0.00  0.00    +0.314 C 
BRANCH  18  19
ATOM     19  O   UNL     1      29.960 -22.370 -17.142  0.00  0.00    -0.480 OA
ATOM     20  H   UNL     1      30.127 -21.450 -17.094  0.00  0.00    +0.295 HD
ENDBRANCH  18  19
ENDBRANCH  16  18
ENDBRANCH  15  16
ENDBRANCH  14  15
ENDBRANCH  13  14
ENDBRANCH  12  13
ENDBRANCH   7  12
TORSDOF 7
ENDMDL
MODEL 8
REMARK VINA RESULT:      -7.1      2.346      2.722
REMARK  Name = 446904
REMARK  7 active torsions:
REMARK  status: ('A' for Active; 'I' for Inactive)
REMARK    1  A    between atoms: C_7  and  C_12
REMARK    2  A    between atoms: C_12  and  C_13
REMARK    3  A    between atoms: C_13  and  C_14
REMARK    4  A    between atoms: C_14  and  C_15
REMARK    5  A    between atoms: C_15  and  C_16
REMARK    6  A    between atoms: C_16  and  C_18
REMARK    7  A    between atoms: C_18  and  O_19
REMARK                            x       y       z     vdW  Elec       q    Type
REMARK                         _______ _______ _______ _____ _____    ______ ____
ROOT
ATOM      1  S   UNL     1      35.672 -25.397 -15.018  0.00  0.00    -0.138 S 
ATOM      2  O   UNL     1      36.372 -24.064 -10.491  0.00  0.00    -0.253 OA
ATOM      3  N   UNL     1      36.143 -23.140 -12.631  0.00  0.00    -0.288 N 
ATOM      4  N   UNL     1      37.675 -24.758 -12.309  0.00  0.00    -0.288 N 
ATOM      5  C   UNL     1      36.792 -23.274 -13.922  0.00  0.00    +0.102 C 
ATOM      6  C   UNL     1      37.788 -24.439 -13.720  0.00  0.00    +0.103 C 
ATOM      7  C   UNL     1      35.843 -23.594 -15.080  0.00  0.00    +0.067 C 
ATOM      8  C   UNL     1      37.413 -25.633 -14.593  0.00  0.00    +0.079 C 
ATOM      9  C   UNL     1      36.690 -23.998 -11.670  0.00  0.00    +0.301 C 
ATOM     10  H   UNL     1      35.403 -22.517 -12.452  0.00  0.00    +0.151 HD
ATOM     11  H   UNL     1      38.230 -25.431 -11.854  0.00  0.00    +0.151 HD
ENDROOT
BRANCH   7  12
ATOM     12  C   UNL     1      34.496 -22.892 -15.040  0.00  0.00    +0.013 C 
BRANCH  12  13
ATOM     13  C   UNL     1      33.310 -23.850 -14.899  0.00  0.00    +0.001 C 
BRANCH  13  14
ATOM     14  C   UNL     1      31.954 -23.141 -14.900  0.00  0.00    +0.001 C 
BRANCH  14  15
ATOM     15  C   UNL     1      31.172 -23.450 -16.182  0.00  0.00    +0.012 C 
BRANCH  15  16
ATOM     16  C   UNL     1      29.758 -23.959 -15.896  0.00  0.00    +0.109 C 
BRANCH  16  18
ATOM     17  O   UNL     1      27.848 -24.004 -17.406  0.00  0.00    -0.250 OA
ATOM     18  C   UNL     1      28.713 -23.371 -16.819  0.00  0.00    +0.314 C 
BRANCH  18  19
ATOM     19  O   UNL     1      28.832 -22.020 -16.906  0.00  0.00    -0.480 OA
ATOM     20  H   UNL     1      29.225 -21.633 -17.664  0.00  0.00    +0.295 HD
ENDBRANCH  18  19
ENDBRANCH  16  18
ENDBRANCH  15  16
ENDBRANCH  14  15
ENDBRANCH  13  14
ENDBRANCH  12  13
ENDBRANCH   7  12
TORSDOF 7
ENDMDL
MODEL 9
REMARK VINA RESULT:      -7.1      2.025      2.321
REMARK  Name = 446904
REMARK  7 active torsions:
REMARK  status: ('A' for Active; 'I' for Inactive)
REMARK    1  A    between atoms: C_7  and  C_12
REMARK    2  A    between atoms: C_12  and  C_13
REMARK    3  A    between atoms: C_13  and  C_14
REMARK    4  A    between atoms: C_14  and  C_15
REMARK    5  A    between atoms: C_15  and  C_16
REMARK    6  A    between atoms: C_16  and  C_18
REMARK    7  A    between atoms: C_18  and  O_19
REMARK                            x       y       z     vdW  Elec       q    Type
REMARK                         _______ _______ _______ _____ _____    ______ ____
ROOT
ATOM      1  S   UNL     1      35.215 -24.189 -12.853  0.00  0.00    -0.138 S 
ATOM      2  O   UNL     1      37.377 -21.673 -16.282  0.00  0.00    -0.253 OA
ATOM      3  N   UNL     1      35.456 -22.965 -15.928  0.00  0.00    -0.288 N 
ATOM      4  N   UNL     1      37.462 -23.850 -15.421  0.00  0.00    -0.288 N 
ATOM      5  C   UNL     1      35.146 -24.312 -15.488  0.00  0.00    +0.102 C 
ATOM      6  C   UNL     1      36.516 -24.890 -15.066  0.00  0.00    +0.103 C 
ATOM      7  C   UNL     1      34.164 -24.388 -14.316  0.00  0.00    +0.067 C 
ATOM      8  C   UNL     1      36.545 -25.183 -13.567  0.00  0.00    +0.079 C 
ATOM      9  C   UNL     1      36.831 -22.705 -15.918  0.00  0.00    +0.301 C 
ATOM     10  H   UNL     1      34.776 -22.309 -16.204  0.00  0.00    +0.151 HD
ATOM     11  H   UNL     1      38.438 -23.940 -15.325  0.00  0.00    +0.151 HD
ENDROOT
BRANCH   7  12
ATOM     12  C   UNL     1      33.028 -23.380 -14.343  0.00  0.00    +0.013 C 
BRANCH  12  13
ATOM     13  C   UNL     1      31.935 -23.718 -15.361  0.00  0.00    +0.001 C 
BRANCH  13  14
ATOM     14  C   UNL     1      30.616 -24.148 -14.714  0.00  0.00    +0.001 C 
BRANCH  14  15
ATOM     15  C   UNL     1      29.476 -24.151 -15.738  0.00  0.00    +0.012 C 
BRANCH  15  16
ATOM     16  C   UNL     1      29.286 -22.788 -16.405  0.00  0.00    +0.109 C 
BRANCH  16  18
ATOM     17  O   UNL     1      27.277 -21.596 -17.097  0.00  0.00    -0.250 OA
ATOM     18  C   UNL     1      27.933 -22.627 -17.064  0.00  0.00    +0.314 C 
BRANCH  18  19
ATOM     19  O   UNL     1      27.527 -23.784 -17.651  0.00  0.00    -0.480 OA
ATOM     20  H   UNL     1      26.802 -23.778 -18.243  0.00  0.00    +0.295 HD
ENDBRANCH  18  19
ENDBRANCH  16  18
ENDBRANCH  15  16
ENDBRANCH  14  15
ENDBRANCH  13  14
ENDBRANCH  12  13
ENDBRANCH   7  12
TORSDOF 7
ENDMDL
