MODEL 1
REMARK VINA RESULT:      -9.2      0.000      0.000
REMARK  Name = 11393519
REMARK  8 active torsions:
REMARK  status: ('A' for Active; 'I' for Inactive)
REMARK    1  A    between atoms: N_1  and  C_15
REMARK    2  A    between atoms: C_2  and  C_9
REMARK    3  A    between atoms: C_3  and  O_7
REMARK    4  A    between atoms: C_9  and  S_10
REMARK    5  A    between atoms: S_10  and  C_11
REMARK    6  A    between atoms: C_11  and  C_12
REMARK    7  A    between atoms: C_12  and  C_13
REMARK    8  A    between atoms: C_15  and  C_20
REMARK                            x       y       z     vdW  Elec       q    Type
REMARK                         _______ _______ _______ _____ _____    ______ ____
ROOT
ATOM      1  N   UNL     1      34.322 -17.289 -21.812  0.00  0.00    +0.391 N 
ATOM      2  C   UNL     1      33.813 -15.188 -22.617  0.00  0.00    +0.015 C 
ATOM      3  C   UNL     1      34.280 -15.008 -21.170  0.00  0.00    +0.089 C 
ATOM      4  C   UNL     1      34.469 -16.498 -23.035  0.00  0.00    -0.073 C 
ATOM      5  C   UNL     1      34.720 -16.401 -20.713  0.00  0.00    -0.047 C 
ATOM      6  H   UNL     1      33.361 -17.607 -21.696  0.00  0.00    -0.079 HD
ENDROOT
BRANCH   3   7
ATOM      7  O   UNL     1      33.202 -14.527 -20.381  0.00  0.00    -0.387 OA
ATOM      8  H   UNL     1      33.439 -13.668 -19.999  0.00  0.00    +0.210 HD
ENDBRANCH   3   7
BRANCH   2   9
ATOM      9  C   UNL     1      34.192 -14.023 -23.519  0.00  0.00    +0.058 C 
BRANCH   9  10
ATOM     10  S   UNL     1      32.988 -12.680 -23.357  0.00  0.00    -0.140 S 
BRANCH  10  11
ATOM     11  C   UNL     1      33.815 -11.454 -24.397  0.00  0.00    +0.058 C 
BRANCH  11  12
ATOM     12  C   UNL     1      33.693 -10.030 -23.856  0.00  0.00    +0.012 C 
BRANCH  12  13
ATOM     13  C   UNL     1      34.882  -9.133 -24.211  0.00  0.00    +0.001 C 
ATOM     14  C   UNL     1      34.759  -7.767 -23.552  0.00  0.00    +0.000 C 
ENDBRANCH  12  13
ENDBRANCH  11  12
ENDBRANCH  10  11
ENDBRANCH   9  10
ENDBRANCH   2   9
BRANCH   1  15
ATOM     15  C   UNL     1      35.097 -18.519 -21.846  0.00  0.00    -0.047 C 
BRANCH  15  20
ATOM     16  N   UNL     1      32.787 -20.875 -20.265  0.00  0.00    -0.323 N 
ATOM     17  N   UNL     1      36.255 -20.574 -19.729  0.00  0.00    -0.247 NA
ATOM     18  N   UNL     1      35.499 -22.380 -18.283  0.00  0.00    -0.232 NA
ATOM     19  N   UNL     1      33.207 -23.066 -18.196  0.00  0.00    -0.345 N 
ATOM     20  C   UNL     1      34.384 -19.574 -21.063  0.00  0.00    -0.014 C 
ATOM     21  C   UNL     1      34.967 -20.454 -20.137  0.00  0.00    +0.076 C 
ATOM     22  C   UNL     1      33.045 -19.843 -21.132  0.00  0.00    +0.053 C 
ATOM     23  C   UNL     1      33.947 -21.263 -19.646  0.00  0.00    +0.163 C 
ATOM     24  C   UNL     1      34.224 -22.240 -18.705  0.00  0.00    +0.123 C 
ATOM     25  C   UNL     1      36.424 -21.550 -18.814  0.00  0.00    +0.251 C 
ATOM     26  H   UNL     1      31.900 -21.275 -20.109  0.00  0.00    +0.148 HD
ATOM     27  H   UNL     1      33.422 -23.755 -17.527  0.00  0.00    +0.143 HD
ATOM     28  H   UNL     1      32.280 -22.955 -18.509  0.00  0.00    +0.143 HD
ENDBRANCH  15  20
ENDBRANCH   1  15
TORSDOF 8
ENDMDL
MODEL 2
REMARK VINA RESULT:      -8.8      3.600      5.687
REMARK  Name = 11393519
REMARK  8 active torsions:
REMARK  status: ('A' for Active; 'I' for Inactive)
REMARK    1  A    between atoms: N_1  and  C_15
REMARK    2  A    between atoms: C_2  and  C_9
REMARK    3  A    between atoms: C_3  and  O_7
REMARK    4  A    between atoms: C_9  and  S_10
REMARK    5  A    between atoms: S_10  and  C_11
REMARK    6  A    between atoms: C_11  and  C_12
REMARK    7  A    between atoms: C_12  and  C_13
REMARK    8  A    between atoms: C_15  and  C_20
REMARK                            x       y       z     vdW  Elec       q    Type
REMARK                         _______ _______ _______ _____ _____    ______ ____
ROOT
ATOM      1  N   UNL     1      33.573 -12.854 -24.142  0.00  0.00    +0.391 N 
ATOM      2  C   UNL     1      33.211 -10.761 -23.245  0.00  0.00    +0.015 C 
ATOM      3  C   UNL     1      34.075 -10.564 -24.494  0.00  0.00    +0.089 C 
ATOM      4  C   UNL     1      32.500 -12.081 -23.516  0.00  0.00    -0.073 C 
ATOM      5  C   UNL     1      34.192 -11.954 -25.124  0.00  0.00    -0.047 C 
ATOM      6  H   UNL     1      34.254 -13.164 -23.450  0.00  0.00    -0.079 HD
ENDROOT
BRANCH   3   7
ATOM      7  O   UNL     1      35.349 -10.065 -24.115  0.00  0.00    -0.387 OA
ATOM      8  H   UNL     1      35.424  -9.136 -24.381  0.00  0.00    +0.210 HD
ENDBRANCH   3   7
BRANCH   2   9
ATOM      9  C   UNL     1      32.247  -9.610 -22.996  0.00  0.00    +0.058 C 
BRANCH   9  10
ATOM     10  S   UNL     1      33.079  -8.269 -22.107  0.00  0.00    -0.140 S 
BRANCH  10  11
ATOM     11  C   UNL     1      32.024  -8.227 -20.639  0.00  0.00    +0.058 C 
BRANCH  11  12
ATOM     12  C   UNL     1      32.316  -9.363 -19.660  0.00  0.00    +0.012 C 
BRANCH  12  13
ATOM     13  C   UNL     1      31.160 -10.355 -19.507  0.00  0.00    +0.001 C 
ATOM     14  C   UNL     1      31.582 -11.760 -19.913  0.00  0.00    +0.000 C 
ENDBRANCH  12  13
ENDBRANCH  11  12
ENDBRANCH  10  11
ENDBRANCH   9  10
ENDBRANCH   2   9
BRANCH   1  15
ATOM     15  C   UNL     1      33.094 -14.090 -24.741  0.00  0.00    -0.047 C 
BRANCH  15  20
ATOM     16  N   UNL     1      35.050 -17.104 -24.049  0.00  0.00    -0.323 N 
ATOM     17  N   UNL     1      33.839 -14.744 -21.731  0.00  0.00    -0.247 NA
ATOM     18  N   UNL     1      35.031 -16.422 -20.432  0.00  0.00    -0.232 NA
ATOM     19  N   UNL     1      36.091 -18.308 -21.456  0.00  0.00    -0.345 N 
ATOM     20  C   UNL     1      33.872 -15.240 -24.188  0.00  0.00    -0.014 C 
ATOM     21  C   UNL     1      34.165 -15.465 -22.833  0.00  0.00    +0.076 C 
ATOM     22  C   UNL     1      34.422 -16.253 -24.923  0.00  0.00    +0.053 C 
ATOM     23  C   UNL     1      34.905 -16.641 -22.766  0.00  0.00    +0.163 C 
ATOM     24  C   UNL     1      35.343 -17.122 -21.544  0.00  0.00    +0.123 C 
ATOM     25  C   UNL     1      34.308 -15.291 -20.592  0.00  0.00    +0.251 C 
ATOM     26  H   UNL     1      35.532 -17.924 -24.305  0.00  0.00    +0.148 HD
ATOM     27  H   UNL     1      36.392 -18.635 -20.578  0.00  0.00    +0.143 HD
ATOM     28  H   UNL     1      36.312 -18.812 -22.272  0.00  0.00    +0.143 HD
ENDBRANCH  15  20
ENDBRANCH   1  15
TORSDOF 8
ENDMDL
MODEL 3
REMARK VINA RESULT:      -8.8      3.964      5.893
REMARK  Name = 11393519
REMARK  8 active torsions:
REMARK  status: ('A' for Active; 'I' for Inactive)
REMARK    1  A    between atoms: N_1  and  C_15
REMARK    2  A    between atoms: C_2  and  C_9
REMARK    3  A    between atoms: C_3  and  O_7
REMARK    4  A    between atoms: C_9  and  S_10
REMARK    5  A    between atoms: S_10  and  C_11
REMARK    6  A    between atoms: C_11  and  C_12
REMARK    7  A    between atoms: C_12  and  C_13
REMARK    8  A    between atoms: C_15  and  C_20
REMARK                            x       y       z     vdW  Elec       q    Type
REMARK                         _______ _______ _______ _____ _____    ______ ____
ROOT
ATOM      1  N   UNL     1      34.290 -21.745 -19.041  0.00  0.00    +0.391 N 
ATOM      2  C   UNL     1      34.360 -19.819 -20.308  0.00  0.00    +0.015 C 
ATOM      3  C   UNL     1      35.700 -20.530 -20.509  0.00  0.00    +0.089 C 
ATOM      4  C   UNL     1      33.420 -20.950 -19.909  0.00  0.00    -0.073 C 
ATOM      5  C   UNL     1      35.569 -21.855 -19.754  0.00  0.00    -0.047 C 
ATOM      6  H   UNL     1      34.413 -21.295 -18.135  0.00  0.00    -0.079 HD
ENDROOT
BRANCH   3   7
ATOM      7  O   UNL     1      36.745 -19.734 -19.971  0.00  0.00    -0.387 OA
ATOM      8  H   UNL     1      37.580 -20.226 -20.012  0.00  0.00    +0.210 HD
ENDBRANCH   3   7
BRANCH   2   9
ATOM      9  C   UNL     1      33.888 -19.067 -21.544  0.00  0.00    +0.058 C 
BRANCH   9  10
ATOM     10  S   UNL     1      34.349 -17.319 -21.435  0.00  0.00    -0.140 S 
BRANCH  10  11
ATOM     11  C   UNL     1      35.425 -17.236 -22.886  0.00  0.00    +0.058 C 
BRANCH  11  12
ATOM     12  C   UNL     1      35.248 -18.424 -23.830  0.00  0.00    +0.012 C 
BRANCH  12  13
ATOM     13  C   UNL     1      34.487 -18.080 -25.114  0.00  0.00    +0.001 C 
ATOM     14  C   UNL     1      34.262 -16.581 -25.237  0.00  0.00    +0.000 C 
ENDBRANCH  12  13
ENDBRANCH  11  12
ENDBRANCH  10  11
ENDBRANCH   9  10
ENDBRANCH   2   9
BRANCH   1  15
ATOM     15  C   UNL     1      33.719 -23.042 -18.715  0.00  0.00    -0.047 C 
BRANCH  15  20
ATOM     16  N   UNL     1      32.892 -23.467 -15.176  0.00  0.00    -0.323 N 
ATOM     17  N   UNL     1      36.085 -23.059 -16.607  0.00  0.00    -0.247 NA
ATOM     18  N   UNL     1      36.438 -23.272 -14.209  0.00  0.00    -0.232 NA
ATOM     19  N   UNL     1      34.624 -23.575 -12.676  0.00  0.00    -0.345 N 
ATOM     20  C   UNL     1      33.661 -23.196 -17.229  0.00  0.00    -0.014 C 
ATOM     21  C   UNL     1      34.759 -23.194 -16.354  0.00  0.00    +0.076 C 
ATOM     22  C   UNL     1      32.521 -23.364 -16.493  0.00  0.00    +0.053 C 
ATOM     23  C   UNL     1      34.255 -23.365 -15.068  0.00  0.00    +0.163 C 
ATOM     24  C   UNL     1      35.113 -23.404 -13.983  0.00  0.00    +0.123 C 
ATOM     25  C   UNL     1      36.837 -23.110 -15.489  0.00  0.00    +0.251 C 
ATOM     26  H   UNL     1      32.272 -23.593 -14.421  0.00  0.00    +0.148 HD
ATOM     27  H   UNL     1      35.249 -23.600 -11.917  0.00  0.00    +0.143 HD
ATOM     28  H   UNL     1      33.656 -23.669 -12.522  0.00  0.00    +0.143 HD
ENDBRANCH  15  20
ENDBRANCH   1  15
TORSDOF 8
ENDMDL
MODEL 4
REMARK VINA RESULT:      -8.7      1.941      2.771
REMARK  Name = 11393519
REMARK  8 active torsions:
REMARK  status: ('A' for Active; 'I' for Inactive)
REMARK    1  A    between atoms: N_1  and  C_15
REMARK    2  A    between atoms: C_2  and  C_9
REMARK    3  A    between atoms: C_3  and  O_7
REMARK    4  A    between atoms: C_9  and  S_10
REMARK    5  A    between atoms: S_10  and  C_11
REMARK    6  A    between atoms: C_11  and  C_12
REMARK    7  A    between atoms: C_12  and  C_13
REMARK    8  A    between atoms: C_15  and  C_20
REMARK                            x       y       z     vdW  Elec       q    Type
REMARK                         _______ _______ _______ _____ _____    ______ ____
ROOT
ATOM      1  N   UNL     1      34.966 -17.201 -22.025  0.00  0.00    +0.391 N 
ATOM      2  C   UNL     1      33.948 -15.180 -22.471  0.00  0.00    +0.015 C 
ATOM      3  C   UNL     1      34.220 -15.217 -20.965  0.00  0.00    +0.089 C 
ATOM      4  C   UNL     1      34.984 -16.144 -23.037  0.00  0.00    -0.073 C 
ATOM      5  C   UNL     1      35.000 -16.513 -20.729  0.00  0.00    -0.047 C 
ATOM      6  H   UNL     1      34.129 -17.777 -22.112  0.00  0.00    -0.079 HD
ENDROOT
BRANCH   3   7
ATOM      7  O   UNL     1      32.988 -15.225 -20.260  0.00  0.00    -0.387 OA
ATOM      8  H   UNL     1      32.825 -16.112 -19.903  0.00  0.00    +0.210 HD
ENDBRANCH   3   7
BRANCH   2   9
ATOM      9  C   UNL     1      34.054 -13.784 -23.065  0.00  0.00    +0.058 C 
BRANCH   9  10
ATOM     10  S   UNL     1      32.423 -13.195 -23.589  0.00  0.00    -0.140 S 
BRANCH  10  11
ATOM     11  C   UNL     1      32.280 -11.778 -22.475  0.00  0.00    +0.058 C 
BRANCH  11  12
ATOM     12  C   UNL     1      31.709 -12.148 -21.107  0.00  0.00    +0.012 C 
BRANCH  12  13
ATOM     13  C   UNL     1      30.877 -11.034 -20.466  0.00  0.00    +0.001 C 
ATOM     14  C   UNL     1      31.369 -10.716 -19.062  0.00  0.00    +0.000 C 
ENDBRANCH  12  13
ENDBRANCH  11  12
ENDBRANCH  10  11
ENDBRANCH   9  10
ENDBRANCH   2   9
BRANCH   1  15
ATOM     15  C   UNL     1      36.060 -18.146 -22.185  0.00  0.00    -0.047 C 
BRANCH  15  20
ATOM     16  N   UNL     1      36.411 -20.729 -19.617  0.00  0.00    -0.323 N 
ATOM     17  N   UNL     1      33.468 -19.725 -21.272  0.00  0.00    -0.247 NA
ATOM     18  N   UNL     1      32.811 -21.487 -19.728  0.00  0.00    -0.232 NA
ATOM     19  N   UNL     1      34.390 -22.586 -18.303  0.00  0.00    -0.345 N 
ATOM     20  C   UNL     1      35.924 -19.235 -21.170  0.00  0.00    -0.014 C 
ATOM     21  C   UNL     1      34.735 -19.891 -20.815  0.00  0.00    +0.076 C 
ATOM     22  C   UNL     1      36.945 -19.758 -20.426  0.00  0.00    +0.053 C 
ATOM     23  C   UNL     1      35.061 -20.827 -19.838  0.00  0.00    +0.163 C 
ATOM     24  C   UNL     1      34.080 -21.634 -19.290  0.00  0.00    +0.123 C 
ATOM     25  C   UNL     1      32.586 -20.554 -20.679  0.00  0.00    +0.251 C 
ATOM     26  H   UNL     1      36.921 -21.274 -18.974  0.00  0.00    +0.148 HD
ATOM     27  H   UNL     1      33.680 -23.151 -17.925  0.00  0.00    +0.143 HD
ATOM     28  H   UNL     1      35.319 -22.686 -17.991  0.00  0.00    +0.143 HD
ENDBRANCH  15  20
ENDBRANCH   1  15
TORSDOF 8
ENDMDL
MODEL 5
REMARK VINA RESULT:      -8.7      0.981      2.015
REMARK  Name = 11393519
REMARK  8 active torsions:
REMARK  status: ('A' for Active; 'I' for Inactive)
REMARK    1  A    between atoms: N_1  and  C_15
REMARK    2  A    between atoms: C_2  and  C_9
REMARK    3  A    between atoms: C_3  and  O_7
REMARK    4  A    between atoms: C_9  and  S_10
REMARK    5  A    between atoms: S_10  and  C_11
REMARK    6  A    between atoms: C_11  and  C_12
REMARK    7  A    between atoms: C_12  and  C_13
REMARK    8  A    between atoms: C_15  and  C_20
REMARK                            x       y       z     vdW  Elec       q    Type
REMARK                         _______ _______ _______ _____ _____    ______ ____
ROOT
ATOM      1  N   UNL     1      35.057 -17.304 -22.130  0.00  0.00    +0.391 N 
ATOM      2  C   UNL     1      33.870 -15.514 -22.970  0.00  0.00    +0.015 C 
ATOM      3  C   UNL     1      34.092 -15.238 -21.481  0.00  0.00    +0.089 C 
ATOM      4  C   UNL     1      35.010 -16.460 -23.325  0.00  0.00    -0.073 C 
ATOM      5  C   UNL     1      34.982 -16.383 -20.989  0.00  0.00    -0.047 C 
ATOM      6  H   UNL     1      34.282 -17.965 -22.118  0.00  0.00    -0.079 HD
ENDROOT
BRANCH   3   7
ATOM      7  O   UNL     1      32.842 -15.235 -20.807  0.00  0.00    -0.387 OA
ATOM      8  H   UNL     1      32.913 -14.706 -19.998  0.00  0.00    +0.210 HD
ENDBRANCH   3   7
BRANCH   2   9
ATOM      9  C   UNL     1      33.863 -14.252 -23.820  0.00  0.00    +0.058 C 
BRANCH   9  10
ATOM     10  S   UNL     1      32.623 -13.083 -23.206  0.00  0.00    -0.140 S 
BRANCH  10  11
ATOM     11  C   UNL     1      33.452 -11.545 -23.674  0.00  0.00    +0.058 C 
BRANCH  11  12
ATOM     12  C   UNL     1      33.996 -11.570 -25.102  0.00  0.00    +0.012 C 
BRANCH  12  13
ATOM     13  C   UNL     1      35.028 -10.476 -25.386  0.00  0.00    +0.001 C 
ATOM     14  C   UNL     1      34.958  -9.368 -24.346  0.00  0.00    +0.000 C 
ENDBRANCH  12  13
ENDBRANCH  11  12
ENDBRANCH  10  11
ENDBRANCH   9  10
ENDBRANCH   2   9
BRANCH   1  15
ATOM     15  C   UNL     1      36.241 -18.149 -22.089  0.00  0.00    -0.047 C 
BRANCH  15  20
ATOM     16  N   UNL     1      36.402 -20.783 -19.554  0.00  0.00    -0.323 N 
ATOM     17  N   UNL     1      33.562 -19.647 -21.300  0.00  0.00    -0.247 NA
ATOM     18  N   UNL     1      32.784 -21.409 -19.812  0.00  0.00    -0.232 NA
ATOM     19  N   UNL     1      34.269 -22.586 -18.348  0.00  0.00    -0.345 N 
ATOM     20  C   UNL     1      36.028 -19.248 -21.098  0.00  0.00    -0.014 C 
ATOM     21  C   UNL     1      34.803 -19.866 -20.800  0.00  0.00    +0.076 C 
ATOM     22  C   UNL     1      37.001 -19.819 -20.326  0.00  0.00    +0.053 C 
ATOM     23  C   UNL     1      35.059 -20.828 -19.827  0.00  0.00    +0.163 C 
ATOM     24  C   UNL     1      34.030 -21.608 -19.330  0.00  0.00    +0.123 C 
ATOM     25  C   UNL     1      32.629 -20.454 -20.755  0.00  0.00    +0.251 C 
ATOM     26  H   UNL     1      36.868 -21.356 -18.902  0.00  0.00    +0.148 HD
ATOM     27  H   UNL     1      33.525 -23.131 -18.007  0.00  0.00    +0.143 HD
ATOM     28  H   UNL     1      35.181 -22.724 -18.004  0.00  0.00    +0.143 HD
ENDBRANCH  15  20
ENDBRANCH   1  15
TORSDOF 8
ENDMDL
MODEL 6
REMARK VINA RESULT:      -8.7      3.438      5.220
REMARK  Name = 11393519
REMARK  8 active torsions:
REMARK  status: ('A' for Active; 'I' for Inactive)
REMARK    1  A    between atoms: N_1  and  C_15
REMARK    2  A    between atoms: C_2  and  C_9
REMARK    3  A    between atoms: C_3  and  O_7
REMARK    4  A    between atoms: C_9  and  S_10
REMARK    5  A    between atoms: S_10  and  C_11
REMARK    6  A    between atoms: C_11  and  C_12
REMARK    7  A    between atoms: C_12  and  C_13
REMARK    8  A    between atoms: C_15  and  C_20
REMARK                            x       y       z     vdW  Elec       q    Type
REMARK                         _______ _______ _______ _____ _____    ______ ____
ROOT
ATOM      1  N   UNL     1      33.594 -13.052 -24.112  0.00  0.00    +0.391 N 
ATOM      2  C   UNL     1      33.040 -11.027 -23.156  0.00  0.00    +0.015 C 
ATOM      3  C   UNL     1      33.905 -10.717 -24.381  0.00  0.00    +0.089 C 
ATOM      4  C   UNL     1      32.449 -12.393 -23.482  0.00  0.00    -0.073 C 
ATOM      5  C   UNL     1      34.150 -12.071 -25.052  0.00  0.00    -0.047 C 
ATOM      6  H   UNL     1      34.287 -13.325 -23.416  0.00  0.00    -0.079 HD
ENDROOT
BRANCH   3   7
ATOM      7  O   UNL     1      35.125 -10.124 -23.962  0.00  0.00    -0.387 OA
ATOM      8  H   UNL     1      35.380  -9.430 -24.589  0.00  0.00    +0.210 HD
ENDBRANCH   3   7
BRANCH   2   9
ATOM      9  C   UNL     1      31.977  -9.972 -22.890  0.00  0.00    +0.058 C 
BRANCH   9  10
ATOM     10  S   UNL     1      32.048  -9.423 -21.165  0.00  0.00    -0.140 S 
BRANCH  10  11
ATOM     11  C   UNL     1      32.394  -7.672 -21.456  0.00  0.00    +0.058 C 
BRANCH  11  12
ATOM     12  C   UNL     1      33.585  -7.445 -22.386  0.00  0.00    +0.012 C 
BRANCH  12  13
ATOM     13  C   UNL     1      33.221  -6.725 -23.687  0.00  0.00    +0.001 C 
ATOM     14  C   UNL     1      34.363  -6.785 -24.690  0.00  0.00    +0.000 C 
ENDBRANCH  12  13
ENDBRANCH  11  12
ENDBRANCH  10  11
ENDBRANCH   9  10
ENDBRANCH   2   9
BRANCH   1  15
ATOM     15  C   UNL     1      33.232 -14.303 -24.759  0.00  0.00    -0.047 C 
BRANCH  15  20
ATOM     16  N   UNL     1      35.095 -17.302 -23.796  0.00  0.00    -0.323 N 
ATOM     17  N   UNL     1      33.877 -14.757 -21.689  0.00  0.00    -0.247 NA
ATOM     18  N   UNL     1      34.991 -16.362 -20.239  0.00  0.00    -0.232 NA
ATOM     19  N   UNL     1      36.034 -18.341 -21.095  0.00  0.00    -0.345 N 
ATOM     20  C   UNL     1      33.967 -15.428 -24.102  0.00  0.00    -0.014 C 
ATOM     21  C   UNL     1      34.216 -15.561 -22.727  0.00  0.00    +0.076 C 
ATOM     22  C   UNL     1      34.512 -16.503 -24.747  0.00  0.00    +0.053 C 
ATOM     23  C   UNL     1      34.926 -16.746 -22.555  0.00  0.00    +0.163 C 
ATOM     24  C   UNL     1      35.317 -17.147 -21.289  0.00  0.00    +0.123 C 
ATOM     25  C   UNL     1      34.301 -15.231 -20.500  0.00  0.00    +0.251 C 
ATOM     26  H   UNL     1      35.564 -18.149 -23.979  0.00  0.00    +0.148 HD
ATOM     27  H   UNL     1      36.303 -18.610 -20.188  0.00  0.00    +0.143 HD
ATOM     28  H   UNL     1      36.265 -18.906 -21.867  0.00  0.00    +0.143 HD
ENDBRANCH  15  20
ENDBRANCH   1  15
TORSDOF 8
ENDMDL
MODEL 7
REMARK VINA RESULT:      -8.7      3.974      9.076
REMARK  Name = 11393519
REMARK  8 active torsions:
REMARK  status: ('A' for Active; 'I' for Inactive)
REMARK    1  A    between atoms: N_1  and  C_15
REMARK    2  A    between atoms: C_2  and  C_9
REMARK    3  A    between atoms: C_3  and  O_7
REMARK    4  A    between atoms: C_9  and  S_10
REMARK    5  A    between atoms: S_10  and  C_11
REMARK    6  A    between atoms: C_11  and  C_12
REMARK    7  A    between atoms: C_12  and  C_13
REMARK    8  A    between atoms: C_15  and  C_20
REMARK                            x       y       z     vdW  Elec       q    Type
REMARK                         _______ _______ _______ _____ _____    ______ ____
ROOT
ATOM      1  N   UNL     1      35.226 -19.624 -20.442  0.00  0.00    +0.391 N 
ATOM      2  C   UNL     1      34.153 -21.311 -19.294  0.00  0.00    +0.015 C 
ATOM      3  C   UNL     1      33.164 -20.787 -20.338  0.00  0.00    +0.089 C 
ATOM      4  C   UNL     1      35.510 -20.946 -19.883  0.00  0.00    -0.073 C 
ATOM      5  C   UNL     1      33.949 -19.758 -21.154  0.00  0.00    -0.047 C 
ATOM      6  H   UNL     1      35.163 -18.921 -19.707  0.00  0.00    -0.079 HD
ENDROOT
BRANCH   3   7
ATOM      7  O   UNL     1      32.057 -20.185 -19.683  0.00  0.00    -0.387 OA
ATOM      8  H   UNL     1      32.157 -19.221 -19.700  0.00  0.00    +0.210 HD
ENDBRANCH   3   7
BRANCH   2   9
ATOM      9  C   UNL     1      34.008 -22.802 -19.025  0.00  0.00    +0.058 C 
BRANCH   9  10
ATOM     10  S   UNL     1      33.996 -23.125 -17.242  0.00  0.00    -0.140 S 
BRANCH  10  11
ATOM     11  C   UNL     1      32.209 -23.063 -16.972  0.00  0.00    +0.058 C 
BRANCH  11  12
ATOM     12  C   UNL     1      31.812 -23.355 -15.526  0.00  0.00    +0.012 C 
BRANCH  12  13
ATOM     13  C   UNL     1      30.376 -22.944 -15.187  0.00  0.00    +0.001 C 
ATOM     14  C   UNL     1      29.530 -22.808 -16.444  0.00  0.00    +0.000 C 
ENDBRANCH  12  13
ENDBRANCH  11  12
ENDBRANCH  10  11
ENDBRANCH   9  10
ENDBRANCH   2   9
BRANCH   1  15
ATOM     15  C   UNL     1      36.296 -19.139 -21.301  0.00  0.00    -0.047 C 
BRANCH  15  20
ATOM     16  N   UNL     1      35.182 -16.904 -23.976  0.00  0.00    -0.323 N 
ATOM     17  N   UNL     1      35.026 -16.347 -20.501  0.00  0.00    -0.247 NA
ATOM     18  N   UNL     1      34.076 -14.367 -21.549  0.00  0.00    -0.232 NA
ATOM     19  N   UNL     1      33.905 -14.144 -23.927  0.00  0.00    -0.345 N 
ATOM     20  C   UNL     1      35.768 -18.053 -22.182  0.00  0.00    -0.014 C 
ATOM     21  C   UNL     1      35.215 -16.835 -21.753  0.00  0.00    +0.076 C 
ATOM     22  C   UNL     1      35.741 -18.083 -23.548  0.00  0.00    +0.053 C 
ATOM     23  C   UNL     1      34.854 -16.127 -22.895  0.00  0.00    +0.163 C 
ATOM     24  C   UNL     1      34.276 -14.875 -22.785  0.00  0.00    +0.123 C 
ATOM     25  C   UNL     1      34.459 -15.124 -20.498  0.00  0.00    +0.251 C 
ATOM     26  H   UNL     1      35.040 -16.654 -24.918  0.00  0.00    +0.148 HD
ATOM     27  H   UNL     1      33.496 -13.254 -23.830  0.00  0.00    +0.143 HD
ATOM     28  H   UNL     1      34.055 -14.522 -24.823  0.00  0.00    +0.143 HD
ENDBRANCH  15  20
ENDBRANCH   1  15
TORSDOF 8
ENDMDL
MODEL 8
REMARK VINA RESULT:      -8.6      4.186      9.718
REMARK  Name = 11393519
REMARK  8 active torsions:
REMARK  status: ('A' for Active; 'I' for Inactive)
REMARK    1  A    between atoms: N_1  and  C_15
REMARK    2  A    between atoms: C_2  and  C_9
REMARK    3  A    between atoms: C_3  and  O_7
REMARK    4  A    between atoms: C_9  and  S_10
REMARK    5  A    between atoms: S_10  and  C_11
REMARK    6  A    between atoms: C_11  and  C_12
REMARK    7  A    between atoms: C_12  and  C_13
REMARK    8  A    between atoms: C_15  and  C_20
REMARK                            x       y       z     vdW  Elec       q    Type
REMARK                         _______ _______ _______ _____ _____    ______ ____
ROOT
ATOM      1  N   UNL     1      33.967 -14.176 -23.364  0.00  0.00    +0.391 N 
ATOM      2  C   UNL     1      34.893 -16.179 -22.693  0.00  0.00    +0.015 C 
ATOM      3  C   UNL     1      34.057 -15.663 -21.520  0.00  0.00    +0.089 C 
ATOM      4  C   UNL     1      34.253 -15.507 -23.902  0.00  0.00    -0.073 C 
ATOM      5  C   UNL     1      33.366 -14.401 -22.044  0.00  0.00    -0.047 C 
ATOM      6  H   UNL     1      34.818 -13.621 -23.289  0.00  0.00    -0.079 HD
ENDROOT
BRANCH   3   7
ATOM      7  O   UNL     1      34.909 -15.363 -20.425  0.00  0.00    -0.387 OA
ATOM      8  H   UNL     1      34.992 -16.144 -19.856  0.00  0.00    +0.210 HD
ENDBRANCH   3   7
BRANCH   2   9
ATOM      9  C   UNL     1      34.906 -17.697 -22.799  0.00  0.00    +0.058 C 
BRANCH   9  10
ATOM     10  S   UNL     1      36.116 -18.401 -21.650  0.00  0.00    -0.140 S 
BRANCH  10  11
ATOM     11  C   UNL     1      35.154 -19.827 -21.090  0.00  0.00    +0.058 C 
BRANCH  11  12
ATOM     12  C   UNL     1      33.658 -19.536 -20.989  0.00  0.00    +0.012 C 
BRANCH  12  13
ATOM     13  C   UNL     1      32.906 -20.496 -20.062  0.00  0.00    +0.001 C 
ATOM     14  C   UNL     1      33.840 -21.549 -19.485  0.00  0.00    +0.000 C 
ENDBRANCH  12  13
ENDBRANCH  11  12
ENDBRANCH  10  11
ENDBRANCH   9  10
ENDBRANCH   2   9
BRANCH   1  15
ATOM     15  C   UNL     1      33.112 -13.392 -24.241  0.00  0.00    -0.047 C 
BRANCH  15  20
ATOM     16  N   UNL     1      34.538 -10.035 -24.540  0.00  0.00    -0.323 N 
ATOM     17  N   UNL     1      31.970 -11.098 -22.377  0.00  0.00    -0.247 NA
ATOM     18  N   UNL     1      32.299  -8.729 -21.927  0.00  0.00    -0.232 NA
ATOM     19  N   UNL     1      33.933  -7.426 -23.097  0.00  0.00    -0.345 N 
ATOM     20  C   UNL     1      33.510 -11.953 -24.160  0.00  0.00    -0.014 C 
ATOM     21  C   UNL     1      32.954 -10.989 -23.303  0.00  0.00    +0.076 C 
ATOM     22  C   UNL     1      34.480 -11.354 -24.914  0.00  0.00    +0.053 C 
ATOM     23  C   UNL     1      33.614  -9.790 -23.557  0.00  0.00    +0.163 C 
ATOM     24  C   UNL     1      33.277  -8.646 -22.855  0.00  0.00    +0.123 C 
ATOM     25  C   UNL     1      31.714  -9.933 -21.747  0.00  0.00    +0.251 C 
ATOM     26  H   UNL     1      35.152  -9.366 -24.920  0.00  0.00    +0.148 HD
ATOM     27  H   UNL     1      33.680  -6.624 -22.588  0.00  0.00    +0.143 HD
ATOM     28  H   UNL     1      34.645  -7.377 -23.775  0.00  0.00    +0.143 HD
ENDBRANCH  15  20
ENDBRANCH   1  15
TORSDOF 8
ENDMDL
MODEL 9
REMARK VINA RESULT:      -8.5      4.607      9.740
REMARK  Name = 11393519
REMARK  8 active torsions:
REMARK  status: ('A' for Active; 'I' for Inactive)
REMARK    1  A    between atoms: N_1  and  C_15
REMARK    2  A    between atoms: C_2  and  C_9
REMARK    3  A    between atoms: C_3  and  O_7
REMARK    4  A    between atoms: C_9  and  S_10
REMARK    5  A    between atoms: S_10  and  C_11
REMARK    6  A    between atoms: C_11  and  C_12
REMARK    7  A    between atoms: C_12  and  C_13
REMARK    8  A    between atoms: C_15  and  C_20
REMARK                            x       y       z     vdW  Elec       q    Type
REMARK                         _______ _______ _______ _____ _____    ______ ____
ROOT
ATOM      1  N   UNL     1      32.755 -13.432 -21.595  0.00  0.00    +0.391 N 
ATOM      2  C   UNL     1      34.106 -15.097 -22.445  0.00  0.00    +0.015 C 
ATOM      3  C   UNL     1      33.704 -15.531 -21.033  0.00  0.00    +0.089 C 
ATOM      4  C   UNL     1      32.987 -14.146 -22.851  0.00  0.00    -0.073 C 
ATOM      5  C   UNL     1      32.716 -14.465 -20.552  0.00  0.00    -0.047 C 
ATOM      6  H   UNL     1      33.498 -12.758 -21.415  0.00  0.00    -0.079 HD
ENDROOT
BRANCH   3   7
ATOM      7  O   UNL     1      34.855 -15.575 -20.204  0.00  0.00    -0.387 OA
ATOM      8  H   UNL     1      34.598 -15.402 -19.285  0.00  0.00    +0.210 HD
ENDBRANCH   3   7
BRANCH   2   9
ATOM      9  C   UNL     1      34.269 -16.263 -23.408  0.00  0.00    +0.058 C 
BRANCH   9  10
ATOM     10  S   UNL     1      35.555 -17.395 -22.819  0.00  0.00    -0.140 S 
BRANCH  10  11
ATOM     11  C   UNL     1      34.552 -18.894 -22.688  0.00  0.00    +0.058 C 
BRANCH  11  12
ATOM     12  C   UNL     1      34.543 -19.486 -21.279  0.00  0.00    +0.012 C 
BRANCH  12  13
ATOM     13  C   UNL     1      33.145 -19.855 -20.776  0.00  0.00    +0.001 C 
ATOM     14  C   UNL     1      33.206 -20.967 -19.740  0.00  0.00    +0.000 C 
ENDBRANCH  12  13
ENDBRANCH  11  12
ENDBRANCH  10  11
ENDBRANCH   9  10
ENDBRANCH   2   9
BRANCH   1  15
ATOM     15  C   UNL     1      31.546 -12.624 -21.627  0.00  0.00    -0.047 C 
BRANCH  15  20
ATOM     16  N   UNL     1      31.921  -9.919 -19.191  0.00  0.00    -0.323 N 
ATOM     17  N   UNL     1      32.480  -9.779 -22.666  0.00  0.00    -0.247 NA
ATOM     18  N   UNL     1      32.962  -7.553 -21.811  0.00  0.00    -0.232 NA
ATOM     19  N   UNL     1      32.761  -7.010 -19.487  0.00  0.00    -0.345 N 
ATOM     20  C   UNL     1      31.775 -11.364 -20.856  0.00  0.00    -0.014 C 
ATOM     21  C   UNL     1      32.192 -10.133 -21.389  0.00  0.00    +0.076 C 
ATOM     22  C   UNL     1      31.612 -11.219 -19.507  0.00  0.00    +0.053 C 
ATOM     23  C   UNL     1      32.277  -9.238 -20.326  0.00  0.00    +0.163 C 
ATOM     24  C   UNL     1      32.670  -7.929 -20.547  0.00  0.00    +0.123 C 
ATOM     25  C   UNL     1      32.851  -8.488 -22.779  0.00  0.00    +0.251 C 
ATOM     26  H   UNL     1      31.889  -9.534 -18.285  0.00  0.00    +0.148 HD
ATOM     27  H   UNL     1      33.041  -6.084 -19.664  0.00  0.00    +0.143 HD
ATOM     28  H   UNL     1      32.544  -7.294 -18.570  0.00  0.00    +0.143 HD
ENDBRANCH  15  20
ENDBRANCH   1  15
TORSDOF 8
ENDMDL
