MODEL 1
REMARK VINA RESULT:     -11.8      0.000      0.000
REMARK  Name = 11689883
REMARK  5 active torsions:
REMARK  status: ('A' for Active; 'I' for Inactive)
REMARK    1  A    between atoms: C_2  and  C_21
REMARK    2  A    between atoms: C_5  and  N_9
REMARK    3  A    between atoms: N_10  and  C_15
REMARK    4  A    between atoms: C_21  and  N_23
REMARK    5  A    between atoms: C_29  and  O_31
REMARK                            x       y       z     vdW  Elec       q    Type
REMARK                         _______ _______ _______ _____ _____    ______ ____
ROOT
ATOM      1  F   UNL     1      35.478 -16.102 -21.783  0.00  0.00    -0.203 F 
ATOM      2  C   UNL     1      35.228 -18.323 -22.569  0.00  0.00    -0.014 C 
ATOM      3  C   UNL     1      35.142 -16.953 -22.766  0.00  0.00    +0.147 C 
ATOM      4  C   UNL     1      34.884 -19.213 -23.578  0.00  0.00    -0.004 C 
ATOM      5  C   UNL     1      34.703 -16.460 -23.995  0.00  0.00    +0.079 C 
ATOM      6  C   UNL     1      34.445 -18.721 -24.807  0.00  0.00    +0.001 C 
ATOM      7  C   UNL     1      34.354 -17.345 -25.016  0.00  0.00    +0.017 C 
ENDROOT
BRANCH   5   9
ATOM      8  O   UNL     1      33.075 -14.398 -22.576  0.00  0.00    -0.252 OA
ATOM      9  N   UNL     1      34.612 -15.084 -24.207  0.00  0.00    -0.266 N 
ATOM     10  N   UNL     1      34.032 -12.854 -24.048  0.00  0.00    -0.267 N 
ATOM     11  C   UNL     1      33.825 -14.134 -23.510  0.00  0.00    +0.308 C 
ATOM     12  H   UNL     1      35.167 -14.726 -24.936  0.00  0.00    +0.156 HD
ATOM     13  H   UNL     1      34.667 -12.798 -24.799  0.00  0.00    +0.156 HD
BRANCH  10  15
ATOM     14  N   UNL     1      31.722 -10.507 -22.407  0.00  0.00    -0.247 NA
ATOM     15  C   UNL     1      33.442 -11.633 -23.643  0.00  0.00    +0.071 C 
ATOM     16  C   UNL     1      33.973 -10.432 -24.063  0.00  0.00    +0.018 C 
ATOM     17  C   UNL     1      32.335 -11.636 -22.829  0.00  0.00    +0.113 C 
ATOM     18  C   UNL     1      33.371  -9.248 -23.649  0.00  0.00    +0.016 C 
ATOM     19  C   UNL     1      32.258  -9.340 -22.830  0.00  0.00    +0.059 C 
ATOM     20  C   UNL     1      31.586  -8.090 -22.366  0.00  0.00    +0.052 C 
ENDBRANCH  10  15
ENDBRANCH   5   9
BRANCH   2  21
ATOM     21  C   UNL     1      35.701 -18.858 -21.244  0.00  0.00    -0.047 C 
BRANCH  21  23
ATOM     22  O   UNL     1      34.081 -23.469 -17.340  0.00  0.00    -0.226 OA
ATOM     23  N   UNL     1      35.056 -20.126 -20.905  0.00  0.00    +0.392 N 
ATOM     24  N   UNL     1      33.856 -22.056 -19.170  0.00  0.00    -0.250 N 
ATOM     25  C   UNL     1      35.881 -20.887 -19.956  0.00  0.00    -0.055 C 
ATOM     26  C   UNL     1      33.715 -19.891 -20.351  0.00  0.00    -0.055 C 
ATOM     27  C   UNL     1      35.232 -22.231 -19.629  0.00  0.00    +0.074 C 
ATOM     28  C   UNL     1      33.018 -21.214 -20.027  0.00  0.00    +0.074 C 
ATOM     29  C   UNL     1      33.381 -22.761 -18.062  0.00  0.00    +0.405 C 
ATOM     30  H   UNL     1      34.960 -20.675 -21.760  0.00  0.00    -0.079 HD
BRANCH  29  31
ATOM     31  O   UNL     1      32.038 -22.585 -17.861  0.00  0.00    -0.430 OA
ATOM     32  C   UNL     1      31.526 -23.030 -16.599  0.00  0.00    +0.257 C 
ENDBRANCH  29  31
ENDBRANCH  21  23
ENDBRANCH   2  21
TORSDOF 5
ENDMDL
MODEL 2
REMARK VINA RESULT:     -11.7      4.087      6.684
REMARK  Name = 11689883
REMARK  5 active torsions:
REMARK  status: ('A' for Active; 'I' for Inactive)
REMARK    1  A    between atoms: C_2  and  C_21
REMARK    2  A    between atoms: C_5  and  N_9
REMARK    3  A    between atoms: N_10  and  C_15
REMARK    4  A    between atoms: C_21  and  N_23
REMARK    5  A    between atoms: C_29  and  O_31
REMARK                            x       y       z     vdW  Elec       q    Type
REMARK                         _______ _______ _______ _____ _____    ______ ____
ROOT
ATOM      1  F   UNL     1      37.204 -20.634 -18.962  0.00  0.00    -0.203 F 
ATOM      2  C   UNL     1      35.749 -22.039 -17.728  0.00  0.00    -0.014 C 
ATOM      3  C   UNL     1      36.027 -21.270 -18.849  0.00  0.00    +0.147 C 
ATOM      4  C   UNL     1      34.536 -22.703 -17.601  0.00  0.00    -0.004 C 
ATOM      5  C   UNL     1      35.075 -21.162 -19.863  0.00  0.00    +0.079 C 
ATOM      6  C   UNL     1      33.583 -22.594 -18.613  0.00  0.00    +0.001 C 
ATOM      7  C   UNL     1      33.852 -21.824 -19.745  0.00  0.00    +0.017 C 
ENDROOT
BRANCH   5   9
ATOM      8  O   UNL     1      33.461 -19.001 -21.145  0.00  0.00    -0.252 OA
ATOM      9  N   UNL     1      35.342 -20.391 -20.995  0.00  0.00    -0.266 N 
ATOM     10  N   UNL     1      35.192 -18.852 -22.710  0.00  0.00    -0.267 N 
ATOM     11  C   UNL     1      34.549 -19.370 -21.576  0.00  0.00    +0.308 C 
ATOM     12  H   UNL     1      36.193 -20.582 -21.451  0.00  0.00    +0.156 HD
ATOM     13  H   UNL     1      36.065 -19.251 -22.933  0.00  0.00    +0.156 HD
BRANCH  10  15
ATOM     14  N   UNL     1      33.937 -17.186 -25.741  0.00  0.00    -0.247 NA
ATOM     15  C   UNL     1      34.742 -17.825 -23.574  0.00  0.00    +0.071 C 
ATOM     16  C   UNL     1      34.669 -16.523 -23.126  0.00  0.00    +0.018 C 
ATOM     17  C   UNL     1      34.374 -18.118 -24.865  0.00  0.00    +0.113 C 
ATOM     18  C   UNL     1      34.223 -15.535 -23.998  0.00  0.00    +0.016 C 
ATOM     19  C   UNL     1      33.873 -15.915 -25.283  0.00  0.00    +0.059 C 
ATOM     20  C   UNL     1      33.390 -14.882 -26.246  0.00  0.00    +0.052 C 
ENDBRANCH  10  15
ENDBRANCH   5   9
BRANCH   2  21
ATOM     21  C   UNL     1      36.774 -22.160 -16.633  0.00  0.00    -0.047 C 
BRANCH  21  23
ATOM     22  O   UNL     1      37.957 -25.944 -11.794  0.00  0.00    -0.226 OA
ATOM     23  N   UNL     1      36.574 -23.365 -15.828  0.00  0.00    +0.392 N 
ATOM     24  N   UNL     1      36.667 -24.957 -13.455  0.00  0.00    -0.250 N 
ATOM     25  C   UNL     1      37.859 -23.864 -15.317  0.00  0.00    -0.055 C 
ATOM     26  C   UNL     1      35.646 -23.097 -14.719  0.00  0.00    -0.055 C 
ATOM     27  C   UNL     1      37.661 -25.145 -14.509  0.00  0.00    +0.074 C 
ATOM     28  C   UNL     1      35.402 -24.362 -13.894  0.00  0.00    +0.074 C 
ATOM     29  C   UNL     1      36.897 -25.443 -12.166  0.00  0.00    +0.405 C 
ATOM     30  H   UNL     1      36.164 -24.084 -16.425  0.00  0.00    -0.079 HD
BRANCH  29  31
ATOM     31  O   UNL     1      35.807 -25.306 -11.348  0.00  0.00    -0.430 OA
ATOM     32  C   UNL     1      35.843 -24.208 -10.429  0.00  0.00    +0.257 C 
ENDBRANCH  29  31
ENDBRANCH  21  23
ENDBRANCH   2  21
TORSDOF 5
ENDMDL
MODEL 3
REMARK VINA RESULT:     -11.7      2.115      9.627
REMARK  Name = 11689883
REMARK  5 active torsions:
REMARK  status: ('A' for Active; 'I' for Inactive)
REMARK    1  A    between atoms: C_2  and  C_21
REMARK    2  A    between atoms: C_5  and  N_9
REMARK    3  A    between atoms: N_10  and  C_15
REMARK    4  A    between atoms: C_21  and  N_23
REMARK    5  A    between atoms: C_29  and  O_31
REMARK                            x       y       z     vdW  Elec       q    Type
REMARK                         _______ _______ _______ _____ _____    ______ ____
ROOT
ATOM      1  F   UNL     1      35.633 -17.097 -21.397  0.00  0.00    -0.203 F 
ATOM      2  C   UNL     1      34.852 -16.576 -23.573  0.00  0.00    -0.014 C 
ATOM      3  C   UNL     1      35.206 -17.503 -22.604  0.00  0.00    +0.147 C 
ATOM      4  C   UNL     1      34.408 -16.984 -24.823  0.00  0.00    -0.004 C 
ATOM      5  C   UNL     1      35.115 -18.866 -22.889  0.00  0.00    +0.079 C 
ATOM      6  C   UNL     1      34.317 -18.346 -25.109  0.00  0.00    +0.001 C 
ATOM      7  C   UNL     1      34.670 -19.288 -24.143  0.00  0.00    +0.017 C 
ENDROOT
BRANCH   5   9
ATOM      8  O   UNL     1      33.619 -19.811 -20.483  0.00  0.00    -0.252 OA
ATOM      9  N   UNL     1      35.468 -19.809 -21.924  0.00  0.00    -0.266 N 
ATOM     10  N   UNL     1      35.455 -21.203 -20.081  0.00  0.00    -0.267 N 
ATOM     11  C   UNL     1      34.729 -20.234 -20.791  0.00  0.00    +0.308 C 
ATOM     12  H   UNL     1      36.346 -20.237 -22.044  0.00  0.00    +0.156 HD
ATOM     13  H   UNL     1      36.335 -21.441 -20.453  0.00  0.00    +0.156 HD
BRANCH  10  15
ATOM     14  N   UNL     1      35.672 -22.636 -16.699  0.00  0.00    -0.247 NA
ATOM     15  C   UNL     1      35.078 -21.879 -18.897  0.00  0.00    +0.071 C 
ATOM     16  C   UNL     1      33.816 -22.421 -18.779  0.00  0.00    +0.018 C 
ATOM     17  C   UNL     1      35.967 -22.002 -17.856  0.00  0.00    +0.113 C 
ATOM     18  C   UNL     1      33.474 -23.081 -17.603  0.00  0.00    +0.016 C 
ATOM     19  C   UNL     1      34.430 -23.160 -16.603  0.00  0.00    +0.059 C 
ATOM     20  C   UNL     1      34.098 -23.861 -15.328  0.00  0.00    +0.052 C 
ENDBRANCH  10  15
ENDBRANCH   5   9
BRANCH   2  21
ATOM     21  C   UNL     1      34.949 -15.105 -23.268  0.00  0.00    -0.047 C 
BRANCH  21  23
ATOM     22  O   UNL     1      31.566 -11.593 -19.350  0.00  0.00    -0.226 OA
ATOM     23  N   UNL     1      33.698 -14.578 -22.725  0.00  0.00    +0.392 N 
ATOM     24  N   UNL     1      32.049 -12.700 -21.336  0.00  0.00    -0.250 N 
ATOM     25  C   UNL     1      33.781 -14.454 -21.263  0.00  0.00    -0.055 C 
ATOM     26  C   UNL     1      33.378 -13.278 -23.335  0.00  0.00    -0.055 C 
ATOM     27  C   UNL     1      32.463 -13.940 -20.685  0.00  0.00    +0.074 C 
ATOM     28  C   UNL     1      32.051 -12.736 -22.800  0.00  0.00    +0.074 C 
ATOM     29  C   UNL     1      31.570 -11.627 -20.580  0.00  0.00    +0.405 C 
ATOM     30  H   UNL     1      32.949 -15.233 -22.950  0.00  0.00    -0.079 HD
BRANCH  29  31
ATOM     31  O   UNL     1      31.095 -10.604 -21.357  0.00  0.00    -0.430 OA
ATOM     32  C   UNL     1      31.809  -9.365 -21.273  0.00  0.00    +0.257 C 
ENDBRANCH  29  31
ENDBRANCH  21  23
ENDBRANCH   2  21
TORSDOF 5
ENDMDL
MODEL 4
REMARK VINA RESULT:     -11.4      3.481     11.156
REMARK  Name = 11689883
REMARK  5 active torsions:
REMARK  status: ('A' for Active; 'I' for Inactive)
REMARK    1  A    between atoms: C_2  and  C_21
REMARK    2  A    between atoms: C_5  and  N_9
REMARK    3  A    between atoms: N_10  and  C_15
REMARK    4  A    between atoms: C_21  and  N_23
REMARK    5  A    between atoms: C_29  and  O_31
REMARK                            x       y       z     vdW  Elec       q    Type
REMARK                         _______ _______ _______ _____ _____    ______ ____
ROOT
ATOM      1  F   UNL     1      37.354 -19.374 -20.648  0.00  0.00    -0.203 F 
ATOM      2  C   UNL     1      35.190 -19.279 -21.609  0.00  0.00    -0.014 C 
ATOM      3  C   UNL     1      36.068 -19.759 -20.648  0.00  0.00    +0.147 C 
ATOM      4  C   UNL     1      33.858 -19.669 -21.619  0.00  0.00    -0.004 C 
ATOM      5  C   UNL     1      35.605 -20.647 -19.676  0.00  0.00    +0.079 C 
ATOM      6  C   UNL     1      33.395 -20.557 -20.648  0.00  0.00    +0.001 C 
ATOM      7  C   UNL     1      34.269 -21.046 -19.677  0.00  0.00    +0.017 C 
ENDROOT
BRANCH   5   9
ATOM      8  O   UNL     1      35.112 -22.560 -17.437  0.00  0.00    -0.252 OA
ATOM      9  N   UNL     1      36.477 -21.138 -18.704  0.00  0.00    -0.266 N 
ATOM     10  N   UNL     1      37.370 -22.274 -16.902  0.00  0.00    -0.267 N 
ATOM     11  C   UNL     1      36.206 -22.048 -17.653  0.00  0.00    +0.308 C 
ATOM     12  H   UNL     1      37.403 -20.808 -18.754  0.00  0.00    +0.156 HD
ATOM     13  H   UNL     1      38.176 -21.790 -17.197  0.00  0.00    +0.156 HD
BRANCH  10  15
ATOM     14  N   UNL     1      38.880 -24.691 -14.575  0.00  0.00    -0.247 NA
ATOM     15  C   UNL     1      37.529 -23.111 -15.772  0.00  0.00    +0.071 C 
ATOM     16  C   UNL     1      36.546 -23.170 -14.807  0.00  0.00    +0.018 C 
ATOM     17  C   UNL     1      38.666 -23.871 -15.628  0.00  0.00    +0.113 C 
ATOM     18  C   UNL     1      36.731 -24.002 -13.708  0.00  0.00    +0.016 C 
ATOM     19  C   UNL     1      37.905 -24.736 -13.641  0.00  0.00    +0.059 C 
ATOM     20  C   UNL     1      38.137 -25.639 -12.476  0.00  0.00    +0.052 C 
ENDBRANCH  10  15
ENDBRANCH   5   9
BRANCH   2  21
ATOM     21  C   UNL     1      35.686 -18.320 -22.659  0.00  0.00    -0.047 C 
BRANCH  21  23
ATOM     22  O   UNL     1      33.445 -12.514 -23.297  0.00  0.00    -0.226 OA
ATOM     23  N   UNL     1      34.664 -17.339 -23.027  0.00  0.00    +0.392 N 
ATOM     24  N   UNL     1      33.683 -14.769 -23.806  0.00  0.00    -0.250 N 
ATOM     25  C   UNL     1      34.646 -16.227 -22.065  0.00  0.00    -0.055 C 
ATOM     26  C   UNL     1      34.898 -16.838 -24.390  0.00  0.00    -0.055 C 
ATOM     27  C   UNL     1      33.555 -15.219 -22.422  0.00  0.00    +0.074 C 
ATOM     28  C   UNL     1      33.813 -15.839 -24.797  0.00  0.00    +0.074 C 
ATOM     29  C   UNL     1      33.554 -13.416 -24.127  0.00  0.00    +0.405 C 
ATOM     30  H   UNL     1      33.755 -17.800 -23.004  0.00  0.00    -0.079 HD
BRANCH  29  31
ATOM     31  O   UNL     1      33.560 -13.192 -25.478  0.00  0.00    -0.430 OA
ATOM     32  C   UNL     1      33.875 -11.858 -25.895  0.00  0.00    +0.257 C 
ENDBRANCH  29  31
ENDBRANCH  21  23
ENDBRANCH   2  21
TORSDOF 5
ENDMDL
MODEL 5
REMARK VINA RESULT:     -11.2      1.740      2.707
REMARK  Name = 11689883
REMARK  5 active torsions:
REMARK  status: ('A' for Active; 'I' for Inactive)
REMARK    1  A    between atoms: C_2  and  C_21
REMARK    2  A    between atoms: C_5  and  N_9
REMARK    3  A    between atoms: N_10  and  C_15
REMARK    4  A    between atoms: C_21  and  N_23
REMARK    5  A    between atoms: C_29  and  O_31
REMARK                            x       y       z     vdW  Elec       q    Type
REMARK                         _______ _______ _______ _____ _____    ______ ____
ROOT
ATOM      1  F   UNL     1      33.828 -14.419 -20.966  0.00  0.00    -0.203 F 
ATOM      2  C   UNL     1      34.516 -15.970 -22.620  0.00  0.00    -0.014 C 
ATOM      3  C   UNL     1      33.813 -14.835 -22.243  0.00  0.00    +0.147 C 
ATOM      4  C   UNL     1      34.510 -16.408 -23.938  0.00  0.00    -0.004 C 
ATOM      5  C   UNL     1      33.089 -14.124 -23.200  0.00  0.00    +0.079 C 
ATOM      6  C   UNL     1      33.785 -15.699 -24.895  0.00  0.00    +0.001 C 
ATOM      7  C   UNL     1      33.075 -14.556 -24.526  0.00  0.00    +0.017 C 
ENDROOT
BRANCH   5   9
ATOM      8  O   UNL     1      33.783 -11.237 -23.521  0.00  0.00    -0.252 OA
ATOM      9  N   UNL     1      32.377 -12.981 -22.834  0.00  0.00    -0.266 N 
ATOM     10  N   UNL     1      31.732 -10.790 -22.491  0.00  0.00    -0.267 N 
ATOM     11  C   UNL     1      32.740 -11.622 -23.003  0.00  0.00    +0.308 C 
ATOM     12  H   UNL     1      31.507 -13.140 -22.400  0.00  0.00    +0.156 HD
ATOM     13  H   UNL     1      30.950 -11.246 -22.104  0.00  0.00    +0.156 HD
BRANCH  10  15
ATOM     14  N   UNL     1      31.206  -7.320 -23.596  0.00  0.00    -0.247 NA
ATOM     15  C   UNL     1      31.701  -9.376 -22.462  0.00  0.00    +0.071 C 
ATOM     16  C   UNL     1      32.115  -8.694 -21.338  0.00  0.00    +0.018 C 
ATOM     17  C   UNL     1      31.259  -8.670 -23.556  0.00  0.00    +0.113 C 
ATOM     18  C   UNL     1      32.074  -7.304 -21.339  0.00  0.00    +0.016 C 
ATOM     19  C   UNL     1      31.616  -6.671 -22.483  0.00  0.00    +0.059 C 
ATOM     20  C   UNL     1      31.558  -5.180 -22.521  0.00  0.00    +0.052 C 
ENDBRANCH  10  15
ENDBRANCH   5   9
BRANCH   2  21
ATOM     21  C   UNL     1      35.300 -16.739 -21.591  0.00  0.00    -0.047 C 
BRANCH  21  23
ATOM     22  O   UNL     1      35.127 -22.464 -19.076  0.00  0.00    -0.226 OA
ATOM     23  N   UNL     1      34.935 -18.155 -21.573  0.00  0.00    +0.392 N 
ATOM     24  N   UNL     1      34.371 -20.684 -20.365  0.00  0.00    -0.250 N 
ATOM     25  C   UNL     1      36.019 -18.961 -20.994  0.00  0.00    -0.055 C 
ATOM     26  C   UNL     1      33.686 -18.357 -20.824  0.00  0.00    -0.055 C 
ATOM     27  C   UNL     1      35.660 -20.446 -21.009  0.00  0.00    +0.074 C 
ATOM     28  C   UNL     1      33.276 -19.831 -20.831  0.00  0.00    +0.074 C 
ATOM     29  C   UNL     1      34.210 -21.745 -19.470  0.00  0.00    +0.405 C 
ATOM     30  H   UNL     1      34.786 -18.460 -22.535  0.00  0.00    -0.079 HD
BRANCH  29  31
ATOM     31  O   UNL     1      32.909 -21.907 -19.072  0.00  0.00    -0.430 OA
ATOM     32  C   UNL     1      32.708 -22.629 -17.852  0.00  0.00    +0.257 C 
ENDBRANCH  29  31
ENDBRANCH  21  23
ENDBRANCH   2  21
TORSDOF 5
ENDMDL
MODEL 6
REMARK VINA RESULT:     -11.1      2.689      4.603
REMARK  Name = 11689883
REMARK  5 active torsions:
REMARK  status: ('A' for Active; 'I' for Inactive)
REMARK    1  A    between atoms: C_2  and  C_21
REMARK    2  A    between atoms: C_5  and  N_9
REMARK    3  A    between atoms: N_10  and  C_15
REMARK    4  A    between atoms: C_21  and  N_23
REMARK    5  A    between atoms: C_29  and  O_31
REMARK                            x       y       z     vdW  Elec       q    Type
REMARK                         _______ _______ _______ _____ _____    ______ ____
ROOT
ATOM      1  F   UNL     1      32.796 -20.564 -20.451  0.00  0.00    -0.203 F 
ATOM      2  C   UNL     1      34.760 -21.538 -19.551  0.00  0.00    -0.014 C 
ATOM      3  C   UNL     1      34.128 -20.545 -20.287  0.00  0.00    +0.147 C 
ATOM      4  C   UNL     1      36.137 -21.528 -19.374  0.00  0.00    -0.004 C 
ATOM      5  C   UNL     1      34.887 -19.523 -20.857  0.00  0.00    +0.079 C 
ATOM      6  C   UNL     1      36.896 -20.506 -19.944  0.00  0.00    +0.001 C 
ATOM      7  C   UNL     1      36.271 -19.503 -20.685  0.00  0.00    +0.017 C 
ENDROOT
BRANCH   5   9
ATOM      8  O   UNL     1      34.996 -16.554 -20.552  0.00  0.00    -0.252 OA
ATOM      9  N   UNL     1      34.265 -18.519 -21.599  0.00  0.00    -0.266 N 
ATOM     10  N   UNL     1      33.556 -16.468 -22.393  0.00  0.00    -0.267 N 
ATOM     11  C   UNL     1      34.340 -17.115 -21.424  0.00  0.00    +0.308 C 
ATOM     12  H   UNL     1      33.697 -18.826 -22.343  0.00  0.00    +0.156 HD
ATOM     13  H   UNL     1      33.086 -17.054 -23.029  0.00  0.00    +0.156 HD
BRANCH  10  15
ATOM     14  N   UNL     1      33.940 -13.064 -23.735  0.00  0.00    -0.247 NA
ATOM     15  C   UNL     1      33.359 -15.078 -22.568  0.00  0.00    +0.071 C 
ATOM     16  C   UNL     1      32.445 -14.402 -21.788  0.00  0.00    +0.018 C 
ATOM     17  C   UNL     1      34.078 -14.391 -23.517  0.00  0.00    +0.113 C 
ATOM     18  C   UNL     1      32.273 -13.036 -21.983  0.00  0.00    +0.016 C 
ATOM     19  C   UNL     1      33.039 -12.420 -22.960  0.00  0.00    +0.059 C 
ATOM     20  C   UNL     1      32.881 -10.954 -23.196  0.00  0.00    +0.052 C 
ENDBRANCH  10  15
ENDBRANCH   5   9
BRANCH   2  21
ATOM     21  C   UNL     1      33.944 -22.642 -18.934  0.00  0.00    -0.047 C 
BRANCH  21  23
ATOM     22  O   UNL     1      32.786 -24.788 -13.174  0.00  0.00    -0.226 OA
ATOM     23  N   UNL     1      33.885 -22.527 -17.477  0.00  0.00    +0.392 N 
ATOM     24  N   UNL     1      33.848 -23.498 -14.788  0.00  0.00    -0.250 N 
ATOM     25  C   UNL     1      32.699 -23.220 -16.953  0.00  0.00    -0.055 C 
ATOM     26  C   UNL     1      35.109 -23.067 -16.867  0.00  0.00    -0.055 C 
ATOM     27  C   UNL     1      32.610 -23.070 -15.435  0.00  0.00    +0.074 C 
ATOM     28  C   UNL     1      35.072 -22.918 -15.345  0.00  0.00    +0.074 C 
ATOM     29  C   UNL     1      33.812 -24.299 -13.645  0.00  0.00    +0.405 C 
ATOM     30  H   UNL     1      33.813 -21.539 -17.236  0.00  0.00    -0.079 HD
BRANCH  29  31
ATOM     31  O   UNL     1      35.051 -24.486 -13.091  0.00  0.00    -0.430 OA
ATOM     32  C   UNL     1      35.262 -23.895 -11.804  0.00  0.00    +0.257 C 
ENDBRANCH  29  31
ENDBRANCH  21  23
ENDBRANCH   2  21
TORSDOF 5
ENDMDL
MODEL 7
REMARK VINA RESULT:     -11.0      3.965      7.340
REMARK  Name = 11689883
REMARK  5 active torsions:
REMARK  status: ('A' for Active; 'I' for Inactive)
REMARK    1  A    between atoms: C_2  and  C_21
REMARK    2  A    between atoms: C_5  and  N_9
REMARK    3  A    between atoms: N_10  and  C_15
REMARK    4  A    between atoms: C_21  and  N_23
REMARK    5  A    between atoms: C_29  and  O_31
REMARK                            x       y       z     vdW  Elec       q    Type
REMARK                         _______ _______ _______ _____ _____    ______ ____
ROOT
ATOM      1  F   UNL     1      32.567 -10.578 -23.485  0.00  0.00    -0.203 F 
ATOM      2  C   UNL     1      31.855 -11.768 -21.563  0.00  0.00    -0.014 C 
ATOM      3  C   UNL     1      32.210 -10.582 -22.190  0.00  0.00    +0.147 C 
ATOM      4  C   UNL     1      31.484 -11.785 -20.225  0.00  0.00    -0.004 C 
ATOM      5  C   UNL     1      32.194  -9.389 -21.467  0.00  0.00    +0.079 C 
ATOM      6  C   UNL     1      31.467 -10.593 -19.502  0.00  0.00    +0.001 C 
ATOM      7  C   UNL     1      31.822  -9.395 -20.122  0.00  0.00    +0.017 C 
ENDROOT
BRANCH   5   9
ATOM      8  O   UNL     1      30.650  -7.666 -23.356  0.00  0.00    -0.252 OA
ATOM      9  N   UNL     1      32.549  -8.190 -22.085  0.00  0.00    -0.266 N 
ATOM     10  N   UNL     1      32.525  -6.268 -23.366  0.00  0.00    -0.267 N 
ATOM     11  C   UNL     1      31.787  -7.398 -22.979  0.00  0.00    +0.308 C 
ATOM     12  H   UNL     1      33.447  -7.849 -21.873  0.00  0.00    +0.156 HD
ATOM     13  H   UNL     1      33.427  -6.188 -22.979  0.00  0.00    +0.156 HD
BRANCH  10  15
ATOM     14  N   UNL     1      30.784  -3.283 -24.629  0.00  0.00    -0.247 NA
ATOM     15  C   UNL     1      32.132  -5.229 -24.243  0.00  0.00    +0.071 C 
ATOM     16  C   UNL     1      32.677  -5.144 -25.507  0.00  0.00    +0.018 C 
ATOM     17  C   UNL     1      31.204  -4.298 -23.842  0.00  0.00    +0.113 C 
ATOM     18  C   UNL     1      32.271  -4.112 -26.347  0.00  0.00    +0.016 C 
ATOM     19  C   UNL     1      31.330  -3.216 -25.864  0.00  0.00    +0.059 C 
ATOM     20  C   UNL     1      30.871  -2.097 -26.738  0.00  0.00    +0.052 C 
ENDBRANCH  10  15
ENDBRANCH   5   9
BRANCH   2  21
ATOM     21  C   UNL     1      31.871 -13.057 -22.340  0.00  0.00    -0.047 C 
BRANCH  21  23
ATOM     22  O   UNL     1      35.405 -17.948 -20.692  0.00  0.00    -0.226 OA
ATOM     23  N   UNL     1      33.140 -13.769 -22.190  0.00  0.00    +0.392 N 
ATOM     24  N   UNL     1      34.821 -16.066 -21.924  0.00  0.00    -0.250 N 
ATOM     25  C   UNL     1      33.154 -14.539 -20.938  0.00  0.00    -0.055 C 
ATOM     26  C   UNL     1      33.375 -14.652 -23.342  0.00  0.00    -0.055 C 
ATOM     27  C   UNL     1      34.492 -15.254 -20.755  0.00  0.00    +0.074 C 
ATOM     28  C   UNL     1      34.718 -15.374 -23.210  0.00  0.00    +0.074 C 
ATOM     29  C   UNL     1      35.317 -17.363 -21.770  0.00  0.00    +0.405 C 
ATOM     30  H   UNL     1      33.891 -13.080 -22.153  0.00  0.00    -0.079 HD
BRANCH  29  31
ATOM     31  O   UNL     1      35.704 -17.924 -22.959  0.00  0.00    -0.430 OA
ATOM     32  C   UNL     1      34.938 -19.050 -23.403  0.00  0.00    +0.257 C 
ENDBRANCH  29  31
ENDBRANCH  21  23
ENDBRANCH   2  21
TORSDOF 5
ENDMDL
MODEL 8
REMARK VINA RESULT:     -10.9      3.498     10.758
REMARK  Name = 11689883
REMARK  5 active torsions:
REMARK  status: ('A' for Active; 'I' for Inactive)
REMARK    1  A    between atoms: C_2  and  C_21
REMARK    2  A    between atoms: C_5  and  N_9
REMARK    3  A    between atoms: N_10  and  C_15
REMARK    4  A    between atoms: C_21  and  N_23
REMARK    5  A    between atoms: C_29  and  O_31
REMARK                            x       y       z     vdW  Elec       q    Type
REMARK                         _______ _______ _______ _____ _____    ______ ____
ROOT
ATOM      1  F   UNL     1      37.366 -19.414 -20.659  0.00  0.00    -0.203 F 
ATOM      2  C   UNL     1      35.219 -19.324 -21.657  0.00  0.00    -0.014 C 
ATOM      3  C   UNL     1      36.071 -19.768 -20.656  0.00  0.00    +0.147 C 
ATOM      4  C   UNL     1      33.877 -19.682 -21.664  0.00  0.00    -0.004 C 
ATOM      5  C   UNL     1      35.573 -20.586 -19.642  0.00  0.00    +0.079 C 
ATOM      6  C   UNL     1      33.379 -20.500 -20.651  0.00  0.00    +0.001 C 
ATOM      7  C   UNL     1      34.227 -20.953 -19.639  0.00  0.00    +0.017 C 
ENDROOT
BRANCH   5   9
ATOM      8  O   UNL     1      35.131 -22.679 -17.558  0.00  0.00    -0.252 OA
ATOM      9  N   UNL     1      36.419 -21.040 -18.629  0.00  0.00    -0.266 N 
ATOM     10  N   UNL     1      37.296 -22.184 -16.824  0.00  0.00    -0.267 N 
ATOM     11  C   UNL     1      36.173 -22.040 -17.655  0.00  0.00    +0.308 C 
ATOM     12  H   UNL     1      37.303 -20.610 -18.585  0.00  0.00    +0.156 HD
ATOM     13  H   UNL     1      38.061 -21.598 -17.026  0.00  0.00    +0.156 HD
BRANCH  10  15
ATOM     14  N   UNL     1      36.663 -23.882 -13.622  0.00  0.00    -0.247 NA
ATOM     15  C   UNL     1      37.463 -23.069 -15.732  0.00  0.00    +0.071 C 
ATOM     16  C   UNL     1      38.530 -23.941 -15.701  0.00  0.00    +0.018 C 
ATOM     17  C   UNL     1      36.562 -23.065 -14.694  0.00  0.00    +0.113 C 
ATOM     18  C   UNL     1      38.669 -24.798 -14.615  0.00  0.00    +0.016 C 
ATOM     19  C   UNL     1      37.717 -24.729 -13.610  0.00  0.00    +0.059 C 
ATOM     20  C   UNL     1      37.834 -25.634 -12.429  0.00  0.00    +0.052 C 
ENDBRANCH  10  15
ENDBRANCH   5   9
BRANCH   2  21
ATOM     21  C   UNL     1      35.752 -18.440 -22.752  0.00  0.00    -0.047 C 
BRANCH  21  23
ATOM     22  O   UNL     1      32.221 -13.277 -22.831  0.00  0.00    -0.226 OA
ATOM     23  N   UNL     1      35.487 -17.026 -22.489  0.00  0.00    +0.392 N 
ATOM     24  N   UNL     1      33.855 -14.723 -22.033  0.00  0.00    -0.250 N 
ATOM     25  C   UNL     1      34.716 -16.431 -23.590  0.00  0.00    -0.055 C 
ATOM     26  C   UNL     1      34.775 -16.863 -21.213  0.00  0.00    -0.055 C 
ATOM     27  C   UNL     1      34.470 -14.944 -23.340  0.00  0.00    +0.074 C 
ATOM     28  C   UNL     1      34.526 -15.384 -20.911  0.00  0.00    +0.074 C 
ATOM     29  C   UNL     1      32.787 -13.835 -21.892  0.00  0.00    +0.405 C 
ATOM     30  H   UNL     1      36.381 -16.539 -22.423  0.00  0.00    -0.079 HD
BRANCH  29  31
ATOM     31  O   UNL     1      32.429 -13.642 -20.584  0.00  0.00    -0.430 OA
ATOM     32  C   UNL     1      31.887 -12.356 -20.261  0.00  0.00    +0.257 C 
ENDBRANCH  29  31
ENDBRANCH  21  23
ENDBRANCH   2  21
TORSDOF 5
ENDMDL
MODEL 9
REMARK VINA RESULT:     -10.7      2.745      4.070
REMARK  Name = 11689883
REMARK  5 active torsions:
REMARK  status: ('A' for Active; 'I' for Inactive)
REMARK    1  A    between atoms: C_2  and  C_21
REMARK    2  A    between atoms: C_5  and  N_9
REMARK    3  A    between atoms: N_10  and  C_15
REMARK    4  A    between atoms: C_21  and  N_23
REMARK    5  A    between atoms: C_29  and  O_31
REMARK                            x       y       z     vdW  Elec       q    Type
REMARK                         _______ _______ _______ _____ _____    ______ ____
ROOT
ATOM      1  F   UNL     1      33.029 -19.858 -20.611  0.00  0.00    -0.203 F 
ATOM      2  C   UNL     1      35.129 -20.791 -20.036  0.00  0.00    -0.014 C 
ATOM      3  C   UNL     1      34.370 -19.800 -20.641  0.00  0.00    +0.147 C 
ATOM      4  C   UNL     1      36.516 -20.742 -20.059  0.00  0.00    -0.004 C 
ATOM      5  C   UNL     1      35.009 -18.739 -21.283  0.00  0.00    +0.079 C 
ATOM      6  C   UNL     1      37.156 -19.682 -20.700  0.00  0.00    +0.001 C 
ATOM      7  C   UNL     1      36.402 -18.680 -21.313  0.00  0.00    +0.017 C 
ENDROOT
BRANCH   5   9
ATOM      8  O   UNL     1      34.999 -15.788 -20.825  0.00  0.00    -0.252 OA
ATOM      9  N   UNL     1      34.257 -17.736 -21.896  0.00  0.00    -0.266 N 
ATOM     10  N   UNL     1      33.361 -15.692 -22.492  0.00  0.00    -0.267 N 
ATOM     11  C   UNL     1      34.280 -16.341 -21.652  0.00  0.00    +0.308 C 
ATOM     12  H   UNL     1      33.627 -18.037 -22.590  0.00  0.00    +0.156 HD
ATOM     13  H   UNL     1      32.853 -16.272 -23.105  0.00  0.00    +0.156 HD
BRANCH  10  15
ATOM     14  N   UNL     1      31.887 -12.419 -21.689  0.00  0.00    -0.247 NA
ATOM     15  C   UNL     1      33.075 -14.309 -22.566  0.00  0.00    +0.071 C 
ATOM     16  C   UNL     1      33.668 -13.528 -23.536  0.00  0.00    +0.018 C 
ATOM     17  C   UNL     1      32.204 -13.733 -21.672  0.00  0.00    +0.113 C 
ATOM     18  C   UNL     1      33.367 -12.171 -23.584  0.00  0.00    +0.016 C 
ATOM     19  C   UNL     1      32.478 -11.670 -22.647  0.00  0.00    +0.059 C 
ATOM     20  C   UNL     1      32.132 -10.218 -22.669  0.00  0.00    +0.052 C 
ENDBRANCH  10  15
ENDBRANCH   5   9
BRANCH   2  21
ATOM     21  C   UNL     1      34.443 -21.937 -19.341  0.00  0.00    -0.047 C 
BRANCH  21  23
ATOM     22  O   UNL     1      35.982 -24.996 -14.106  0.00  0.00    -0.226 OA
ATOM     23  N   UNL     1      34.813 -22.019 -17.928  0.00  0.00    +0.392 N 
ATOM     24  N   UNL     1      35.965 -23.219 -15.604  0.00  0.00    -0.250 N 
ATOM     25  C   UNL     1      34.169 -23.178 -17.293  0.00  0.00    -0.055 C 
ATOM     26  C   UNL     1      36.274 -22.096 -17.781  0.00  0.00    -0.055 C 
ATOM     27  C   UNL     1      34.519 -23.246 -15.807  0.00  0.00    +0.074 C 
ATOM     28  C   UNL     1      36.672 -22.145 -16.305  0.00  0.00    +0.074 C 
ATOM     29  C   UNL     1      36.571 -24.092 -14.697  0.00  0.00    +0.405 C 
ATOM     30  H   UNL     1      34.485 -21.173 -17.462  0.00  0.00    -0.079 HD
BRANCH  29  31
ATOM     31  O   UNL     1      37.906 -23.835 -14.528  0.00  0.00    -0.430 OA
ATOM     32  C   UNL     1      38.780 -24.968 -14.594  0.00  0.00    +0.257 C 
ENDBRANCH  29  31
ENDBRANCH  21  23
ENDBRANCH   2  21
TORSDOF 5
ENDMDL
