MODEL 1
REMARK VINA RESULT:     -14.1      0.000      0.000
REMARK  Name = 76958312
REMARK  3 active torsions:
REMARK  status: ('A' for Active; 'I' for Inactive)
REMARK    1  A    between atoms: C_16  and  C_21
REMARK    2  A    between atoms: C_26  and  N_28
REMARK    3  A    between atoms: N_29  and  C_34
REMARK                            x       y       z     vdW  Elec       q    Type
REMARK                         _______ _______ _______ _____ _____    ______ ____
ROOT
ATOM      1  O   UNL     1      30.393 -23.007 -13.588  0.00  0.00    -0.350 OA
ATOM      2  O   UNL     1      38.386 -24.991 -13.243  0.00  0.00    -0.350 OA
ATOM      3  N   UNL     1      31.633 -24.407 -15.713  0.00  0.00    -0.231 N 
ATOM      4  N   UNL     1      33.894 -24.428 -15.273  0.00  0.00    -0.246 NA
ATOM      5  N   UNL     1      32.989 -23.172 -17.107  0.00  0.00    -0.260 NA
ATOM      6  N   UNL     1      36.198 -24.390 -14.902  0.00  0.00    -0.228 N 
ATOM      7  N   UNL     1      35.353 -23.157 -16.693  0.00  0.00    -0.260 NA
ATOM      8  C   UNL     1      31.347 -25.099 -14.455  0.00  0.00    +0.114 C 
ATOM      9  C   UNL     1      30.444 -23.594 -15.974  0.00  0.00    +0.114 C 
ATOM     10  C   UNL     1      29.910 -25.594 -14.692  0.00  0.00    +0.025 C 
ATOM     11  C   UNL     1      29.313 -24.600 -15.696  0.00  0.00    +0.025 C 
ATOM     12  C   UNL     1      30.450 -22.470 -14.920  0.00  0.00    +0.163 C 
ATOM     13  C   UNL     1      31.383 -24.023 -13.354  0.00  0.00    +0.163 C 
ATOM     14  C   UNL     1      32.888 -23.987 -16.045  0.00  0.00    +0.224 C 
ATOM     15  C   UNL     1      35.098 -23.972 -15.657  0.00  0.00    +0.224 C 
ATOM     16  C   UNL     1      34.251 -22.798 -17.372  0.00  0.00    +0.163 C 
ATOM     17  C   UNL     1      37.546 -23.935 -15.259  0.00  0.00    +0.135 C 
ATOM     18  C   UNL     1      35.993 -24.677 -13.475  0.00  0.00    +0.135 C 
ATOM     19  C   UNL     1      37.114 -25.574 -12.964  0.00  0.00    +0.164 C 
ATOM     20  C   UNL     1      38.585 -24.871 -14.651  0.00  0.00    +0.164 C 
ENDROOT
BRANCH  16  21
ATOM     21  C   UNL     1      34.444 -21.923 -18.498  0.00  0.00    +0.087 C 
ATOM     22  C   UNL     1      35.734 -21.574 -18.898  0.00  0.00    +0.013 C 
ATOM     23  C   UNL     1      33.340 -21.423 -19.189  0.00  0.00    +0.013 C 
ATOM     24  C   UNL     1      35.920 -20.726 -19.990  0.00  0.00    +0.015 C 
ATOM     25  C   UNL     1      33.527 -20.574 -20.281  0.00  0.00    +0.015 C 
ATOM     26  C   UNL     1      34.817 -20.226 -20.681  0.00  0.00    +0.052 C 
BRANCH  26  28
ATOM     27  O   UNL     1      33.472 -17.651 -21.373  0.00  0.00    -0.252 OA
ATOM     28  N   UNL     1      35.004 -19.378 -21.772  0.00  0.00    -0.268 N 
ATOM     29  N   UNL     1      34.838 -17.627 -23.271  0.00  0.00    -0.268 N 
ATOM     30  C   UNL     1      34.345 -18.160 -22.069  0.00  0.00    +0.308 C 
ATOM     31  H   UNL     1      35.684 -19.664 -22.424  0.00  0.00    +0.156 HD
ATOM     32  H   UNL     1      35.541 -18.151 -23.718  0.00  0.00    +0.156 HD
BRANCH  29  34
ATOM     33  N   UNL     1      33.680 -14.065 -25.192  0.00  0.00    -0.242 NA
ATOM     34  C   UNL     1      34.449 -16.430 -23.917  0.00  0.00    +0.055 C 
ATOM     35  C   UNL     1      34.500 -15.220 -23.234  0.00  0.00    +0.035 C 
ATOM     36  C   UNL     1      34.014 -16.459 -25.237  0.00  0.00    +0.035 C 
ATOM     37  C   UNL     1      34.108 -14.077 -23.909  0.00  0.00    +0.100 C 
ATOM     38  C   UNL     1      33.644 -15.259 -25.824  0.00  0.00    +0.100 C 
ENDBRANCH  29  34
ENDBRANCH  26  28
ENDBRANCH  16  21
TORSDOF 3
ENDMDL
MODEL 2
REMARK VINA RESULT:     -12.7      1.232      4.695
REMARK  Name = 76958312
REMARK  3 active torsions:
REMARK  status: ('A' for Active; 'I' for Inactive)
REMARK    1  A    between atoms: C_16  and  C_21
REMARK    2  A    between atoms: C_26  and  N_28
REMARK    3  A    between atoms: N_29  and  C_34
REMARK                            x       y       z     vdW  Elec       q    Type
REMARK                         _______ _______ _______ _____ _____    ______ ____
ROOT
ATOM      1  O   UNL     1      37.840 -27.081 -14.626  0.00  0.00    -0.350 OA
ATOM      2  O   UNL     1      29.943 -24.886 -13.739  0.00  0.00    -0.350 OA
ATOM      3  N   UNL     1      37.126 -24.375 -14.200  0.00  0.00    -0.231 N 
ATOM      4  N   UNL     1      34.828 -24.258 -14.338  0.00  0.00    -0.246 NA
ATOM      5  N   UNL     1      36.234 -23.249 -16.001  0.00  0.00    -0.260 NA
ATOM      6  N   UNL     1      32.511 -24.091 -14.560  0.00  0.00    -0.228 N 
ATOM      7  N   UNL     1      33.847 -23.098 -16.195  0.00  0.00    -0.260 NA
ATOM      8  C   UNL     1      37.044 -25.332 -13.095  0.00  0.00    +0.114 C 
ATOM      9  C   UNL     1      38.379 -24.698 -14.884  0.00  0.00    +0.114 C 
ATOM     10  C   UNL     1      38.469 -25.263 -12.518  0.00  0.00    +0.025 C 
ATOM     11  C   UNL     1      39.351 -24.843 -13.701  0.00  0.00    +0.025 C 
ATOM     12  C   UNL     1      38.153 -26.053 -15.581  0.00  0.00    +0.163 C 
ATOM     13  C   UNL     1      36.776 -26.707 -13.733  0.00  0.00    +0.163 C 
ATOM     14  C   UNL     1      36.020 -23.943 -14.872  0.00  0.00    +0.224 C 
ATOM     15  C   UNL     1      33.787 -23.803 -15.054  0.00  0.00    +0.224 C 
ATOM     16  C   UNL     1      35.102 -22.860 -16.609  0.00  0.00    +0.163 C 
ATOM     17  C   UNL     1      31.324 -23.627 -15.286  0.00  0.00    +0.135 C 
ATOM     18  C   UNL     1      32.328 -25.327 -13.786  0.00  0.00    +0.135 C 
ATOM     19  C   UNL     1      31.072 -25.217 -12.930  0.00  0.00    +0.164 C 
ATOM     20  C   UNL     1      30.121 -23.609 -14.350  0.00  0.00    +0.164 C 
ENDROOT
BRANCH  16  21
ATOM     21  C   UNL     1      35.248 -22.109 -17.829  0.00  0.00    +0.087 C 
ATOM     22  C   UNL     1      36.486 -21.565 -18.169  0.00  0.00    +0.013 C 
ATOM     23  C   UNL     1      34.150 -21.927 -18.669  0.00  0.00    +0.013 C 
ATOM     24  C   UNL     1      36.626 -20.838 -19.352  0.00  0.00    +0.015 C 
ATOM     25  C   UNL     1      34.291 -21.199 -19.851  0.00  0.00    +0.015 C 
ATOM     26  C   UNL     1      35.529 -20.654 -20.192  0.00  0.00    +0.052 C 
BRANCH  26  28
ATOM     27  O   UNL     1      33.929 -18.364 -21.247  0.00  0.00    -0.252 OA
ATOM     28  N   UNL     1      35.669 -19.927 -21.374  0.00  0.00    -0.268 N 
ATOM     29  N   UNL     1      35.375 -18.403 -23.085  0.00  0.00    -0.268 N 
ATOM     30  C   UNL     1      34.889 -18.843 -21.844  0.00  0.00    +0.308 C 
ATOM     31  H   UNL     1      36.410 -20.205 -21.961  0.00  0.00    +0.156 HD
ATOM     32  H   UNL     1      36.156 -18.887 -23.439  0.00  0.00    +0.156 HD
BRANCH  29  34
ATOM     33  N   UNL     1      33.908 -15.264 -25.476  0.00  0.00    -0.242 NA
ATOM     34  C   UNL     1      34.882 -17.348 -23.889  0.00  0.00    +0.055 C 
ATOM     35  C   UNL     1      34.971 -16.033 -23.447  0.00  0.00    +0.035 C 
ATOM     36  C   UNL     1      34.306 -17.623 -25.124  0.00  0.00    +0.035 C 
ATOM     37  C   UNL     1      34.474 -15.036 -24.270  0.00  0.00    +0.100 C 
ATOM     38  C   UNL     1      33.838 -16.554 -25.873  0.00  0.00    +0.100 C 
ENDBRANCH  29  34
ENDBRANCH  26  28
ENDBRANCH  16  21
TORSDOF 3
ENDMDL
