MODEL 1
REMARK VINA RESULT:     -10.5      0.000      0.000
REMARK  Name = 71301
REMARK  8 active torsions:
REMARK  status: ('A' for Active; 'I' for Inactive)
REMARK    1  A    between atoms: N_1  and  C_4
REMARK    2  A    between atoms: N_1  and  C_19
REMARK    3  A    between atoms: C_4  and  C_5
REMARK    4  A    between atoms: C_5  and  C_8
REMARK    5  A    between atoms: C_5  and  O_17
REMARK    6  A    between atoms: C_19  and  C_20
REMARK    7  A    between atoms: C_20  and  C_23
REMARK    8  A    between atoms: C_20  and  O_32
REMARK                            x       y       z     vdW  Elec       q    Type
REMARK                         _______ _______ _______ _____ _____    ______ ____
ROOT
ATOM      1  N   UNL     1      31.294 -10.217 -19.950  0.00  0.00    +0.387 N 
ATOM      2  H   UNL     1      30.780 -10.192 -20.831  0.00  0.00    -0.084 HD
ATOM      3  H   UNL     1      30.661 -10.075 -19.164  0.00  0.00    -0.084 HD
ENDROOT
BRANCH   1   4
ATOM      4  C   UNL     1      32.286  -9.150 -19.947  0.00  0.00    -0.048 C 
BRANCH   4   5
ATOM      5  C   UNL     1      31.910  -8.011 -20.896  0.00  0.00    +0.129 C 
BRANCH   5   8
ATOM      6  F   UNL     1      35.958 -10.840 -26.826  0.00  0.00    -0.204 F 
ATOM      7  O   UNL     1      32.743  -9.482 -22.576  0.00  0.00    -0.477 OA
ATOM      8  C   UNL     1      32.625  -8.092 -22.240  0.00  0.00    +0.191 C 
ATOM      9  C   UNL     1      33.996  -7.420 -22.167  0.00  0.00    +0.051 C 
ATOM     10  C   UNL     1      34.650  -7.473 -23.541  0.00  0.00    +0.033 C 
ATOM     11  C   UNL     1      34.509  -8.844 -24.137  0.00  0.00    +0.014 C 
ATOM     12  C   UNL     1      33.569  -9.755 -23.637  0.00  0.00    +0.135 C 
ATOM     13  C   UNL     1      35.307  -9.218 -25.227  0.00  0.00    +0.028 C 
ATOM     14  C   UNL     1      33.459 -11.032 -24.192  0.00  0.00    +0.039 C 
ATOM     15  C   UNL     1      35.186 -10.490 -25.788  0.00  0.00    +0.140 C 
ATOM     16  C   UNL     1      34.265 -11.397 -25.269  0.00  0.00    +0.033 C 
ENDBRANCH   5   8
BRANCH   5  17
ATOM     17  O   UNL     1      32.272  -6.770 -20.290  0.00  0.00    -0.383 OA
ATOM     18  H   UNL     1      33.177  -6.536 -20.546  0.00  0.00    +0.210 HD
ENDBRANCH   5  17
ENDBRANCH   4   5
ENDBRANCH   1   4
BRANCH   1  19
ATOM     19  C   UNL     1      31.929 -11.520 -19.806  0.00  0.00    -0.048 C 
BRANCH  19  20
ATOM     20  C   UNL     1      31.458 -12.512 -20.873  0.00  0.00    +0.129 C 
BRANCH  20  23
ATOM     21  F   UNL     1      35.297 -17.444 -25.400  0.00  0.00    -0.204 F 
ATOM     22  O   UNL     1      32.260 -13.671 -22.795  0.00  0.00    -0.477 OA
ATOM     23  C   UNL     1      32.589 -13.369 -21.431  0.00  0.00    +0.191 C 
ATOM     24  C   UNL     1      32.763 -14.643 -20.606  0.00  0.00    +0.051 C 
ATOM     25  C   UNL     1      33.935 -15.441 -21.163  0.00  0.00    +0.033 C 
ATOM     26  C   UNL     1      33.859 -15.512 -22.660  0.00  0.00    +0.014 C 
ATOM     27  C   UNL     1      33.047 -14.628 -23.383  0.00  0.00    +0.135 C 
ATOM     28  C   UNL     1      34.627 -16.456 -23.354  0.00  0.00    +0.028 C 
ATOM     29  C   UNL     1      32.974 -14.716 -24.776  0.00  0.00    +0.039 C 
ATOM     30  C   UNL     1      34.563 -16.533 -24.746  0.00  0.00    +0.140 C 
ATOM     31  C   UNL     1      33.735 -15.667 -25.455  0.00  0.00    +0.033 C 
ENDBRANCH  20  23
BRANCH  20  32
ATOM     32  O   UNL     1      30.893 -11.782 -21.961  0.00  0.00    -0.383 OA
ATOM     33  H   UNL     1      30.101 -12.240 -22.281  0.00  0.00    +0.210 HD
ENDBRANCH  20  32
ENDBRANCH  19  20
ENDBRANCH   1  19
TORSDOF 8
ENDMDL
MODEL 2
REMARK VINA RESULT:     -10.4      0.080      5.692
REMARK  Name = 71301
REMARK  8 active torsions:
REMARK  status: ('A' for Active; 'I' for Inactive)
REMARK    1  A    between atoms: N_1  and  C_4
REMARK    2  A    between atoms: N_1  and  C_19
REMARK    3  A    between atoms: C_4  and  C_5
REMARK    4  A    between atoms: C_5  and  C_8
REMARK    5  A    between atoms: C_5  and  O_17
REMARK    6  A    between atoms: C_19  and  C_20
REMARK    7  A    between atoms: C_20  and  C_23
REMARK    8  A    between atoms: C_20  and  O_32
REMARK                            x       y       z     vdW  Elec       q    Type
REMARK                         _______ _______ _______ _____ _____    ______ ____
ROOT
ATOM      1  N   UNL     1      31.291 -10.241 -19.978  0.00  0.00    +0.387 N 
ATOM      2  H   UNL     1      30.640 -10.110 -19.204  0.00  0.00    -0.084 HD
ATOM      3  H   UNL     1      30.797 -10.205 -20.869  0.00  0.00    -0.084 HD
ENDROOT
BRANCH   1   4
ATOM      4  C   UNL     1      31.926 -11.546 -19.851  0.00  0.00    -0.048 C 
BRANCH   4   5
ATOM      5  C   UNL     1      31.448 -12.526 -20.924  0.00  0.00    +0.129 C 
BRANCH   5   8
ATOM      6  F   UNL     1      35.247 -17.383 -25.562  0.00  0.00    -0.204 F 
ATOM      7  O   UNL     1      32.227 -13.659 -22.870  0.00  0.00    -0.477 OA
ATOM      8  C   UNL     1      32.575 -13.369 -21.508  0.00  0.00    +0.191 C 
ATOM      9  C   UNL     1      32.770 -14.651 -20.699  0.00  0.00    +0.051 C 
ATOM     10  C   UNL     1      33.938 -15.434 -21.281  0.00  0.00    +0.033 C 
ATOM     11  C   UNL     1      33.839 -15.491 -22.779  0.00  0.00    +0.014 C 
ATOM     12  C   UNL     1      33.010 -14.605 -23.480  0.00  0.00    +0.135 C 
ATOM     13  C   UNL     1      34.603 -16.422 -23.495  0.00  0.00    +0.028 C 
ATOM     14  C   UNL     1      32.917 -14.679 -24.873  0.00  0.00    +0.039 C 
ATOM     15  C   UNL     1      34.518 -16.485 -24.886  0.00  0.00    +0.140 C 
ATOM     16  C   UNL     1      33.673 -15.616 -25.574  0.00  0.00    +0.033 C 
ENDBRANCH   5   8
BRANCH   5  17
ATOM     17  O   UNL     1      30.865 -11.784 -21.995  0.00  0.00    -0.383 OA
ATOM     18  H   UNL     1      31.189 -10.871 -21.971  0.00  0.00    +0.210 HD
ENDBRANCH   5  17
ENDBRANCH   4   5
ENDBRANCH   1   4
BRANCH   1  19
ATOM     19  C   UNL     1      32.282  -9.173 -19.953  0.00  0.00    -0.048 C 
BRANCH  19  20
ATOM     20  C   UNL     1      31.914  -8.022 -20.892  0.00  0.00    +0.129 C 
BRANCH  20  23
ATOM     21  F   UNL     1      35.948 -10.836 -26.839  0.00  0.00    -0.204 F 
ATOM     22  O   UNL     1      32.743  -9.490 -22.578  0.00  0.00    -0.477 OA
ATOM     23  C   UNL     1      32.625  -8.100 -22.238  0.00  0.00    +0.191 C 
ATOM     24  C   UNL     1      33.994  -7.427 -22.168  0.00  0.00    +0.051 C 
ATOM     25  C   UNL     1      34.646  -7.478 -23.545  0.00  0.00    +0.033 C 
ATOM     26  C   UNL     1      34.504  -8.847 -24.143  0.00  0.00    +0.014 C 
ATOM     27  C   UNL     1      33.566  -9.759 -23.641  0.00  0.00    +0.135 C 
ATOM     28  C   UNL     1      35.299  -9.218 -25.235  0.00  0.00    +0.028 C 
ATOM     29  C   UNL     1      33.456 -11.036 -24.198  0.00  0.00    +0.039 C 
ATOM     30  C   UNL     1      35.178 -10.489 -25.798  0.00  0.00    +0.140 C 
ATOM     31  C   UNL     1      34.260 -11.398 -25.278  0.00  0.00    +0.033 C 
ENDBRANCH  20  23
BRANCH  20  32
ATOM     32  O   UNL     1      32.289  -6.790 -20.277  0.00  0.00    -0.383 OA
ATOM     33  H   UNL     1      31.728  -6.076 -20.615  0.00  0.00    +0.210 HD
ENDBRANCH  20  32
ENDBRANCH  19  20
ENDBRANCH   1  19
TORSDOF 8
ENDMDL
MODEL 3
REMARK VINA RESULT:     -10.4      7.801     12.315
REMARK  Name = 71301
REMARK  8 active torsions:
REMARK  status: ('A' for Active; 'I' for Inactive)
REMARK    1  A    between atoms: N_1  and  C_4
REMARK    2  A    between atoms: N_1  and  C_19
REMARK    3  A    between atoms: C_4  and  C_5
REMARK    4  A    between atoms: C_5  and  C_8
REMARK    5  A    between atoms: C_5  and  O_17
REMARK    6  A    between atoms: C_19  and  C_20
REMARK    7  A    between atoms: C_20  and  C_23
REMARK    8  A    between atoms: C_20  and  O_32
REMARK                            x       y       z     vdW  Elec       q    Type
REMARK                         _______ _______ _______ _____ _____    ______ ____
ROOT
ATOM      1  N   UNL     1      35.793 -21.298 -20.259  0.00  0.00    +0.387 N 
ATOM      2  H   UNL     1      35.668 -22.035 -20.953  0.00  0.00    -0.084 HD
ATOM      3  H   UNL     1      36.781 -21.064 -20.161  0.00  0.00    -0.084 HD
ENDROOT
BRANCH   1   4
ATOM      4  C   UNL     1      35.297 -21.765 -18.972  0.00  0.00    -0.048 C 
BRANCH   4   5
ATOM      5  C   UNL     1      34.030 -22.611 -19.115  0.00  0.00    +0.129 C 
BRANCH   5   8
ATOM      6  F   UNL     1      30.236 -23.974 -12.535  0.00  0.00    -0.204 F 
ATOM      7  O   UNL     1      32.286 -22.809 -17.503  0.00  0.00    -0.477 OA
ATOM      8  C   UNL     1      33.606 -23.279 -17.813  0.00  0.00    +0.191 C 
ATOM      9  C   UNL     1      34.589 -22.953 -16.690  0.00  0.00    +0.051 C 
ATOM     10  C   UNL     1      34.161 -23.684 -15.425  0.00  0.00    +0.033 C 
ATOM     11  C   UNL     1      32.683 -23.533 -15.205  0.00  0.00    +0.014 C 
ATOM     12  C   UNL     1      31.838 -23.122 -16.245  0.00  0.00    +0.135 C 
ATOM     13  C   UNL     1      32.128 -23.831 -13.954  0.00  0.00    +0.028 C 
ATOM     14  C   UNL     1      30.467 -22.971 -16.023  0.00  0.00    +0.039 C 
ATOM     15  C   UNL     1      30.756 -23.693 -13.738  0.00  0.00    +0.140 C 
ATOM     16  C   UNL     1      29.928 -23.260 -14.771  0.00  0.00    +0.033 C 
ENDBRANCH   5   8
BRANCH   5  17
ATOM     17  O   UNL     1      34.274 -23.644 -20.070  0.00  0.00    -0.383 OA
ATOM     18  H   UNL     1      34.443 -24.479 -19.607  0.00  0.00    +0.210 HD
ENDBRANCH   5  17
ENDBRANCH   4   5
ENDBRANCH   1   4
BRANCH   1  19
ATOM     19  C   UNL     1      35.075 -20.107 -20.694  0.00  0.00    -0.048 C 
BRANCH  19  20
ATOM     20  C   UNL     1      36.013 -18.918 -20.918  0.00  0.00    +0.129 C 
BRANCH  20  23
ATOM     21  F   UNL     1      33.076 -14.079 -26.163  0.00  0.00    -0.204 F 
ATOM     22  O   UNL     1      35.137 -16.959 -21.956  0.00  0.00    -0.477 OA
ATOM     23  C   UNL     1      35.774 -18.212 -22.247  0.00  0.00    +0.191 C 
ATOM     24  C   UNL     1      34.913 -19.071 -23.171  0.00  0.00    +0.051 C 
ATOM     25  C   UNL     1      34.746 -18.355 -24.506  0.00  0.00    +0.033 C 
ATOM     26  C   UNL     1      34.412 -16.909 -24.287  0.00  0.00    +0.014 C 
ATOM     27  C   UNL     1      34.633 -16.297 -23.046  0.00  0.00    +0.135 C 
ATOM     28  C   UNL     1      33.894 -16.145 -25.341  0.00  0.00    +0.028 C 
ATOM     29  C   UNL     1      34.303 -14.952 -22.853  0.00  0.00    +0.039 C 
ATOM     30  C   UNL     1      33.577 -14.799 -25.150  0.00  0.00    +0.140 C 
ATOM     31  C   UNL     1      33.779 -14.205 -23.906  0.00  0.00    +0.033 C 
ENDBRANCH  20  23
BRANCH  20  32
ATOM     32  O   UNL     1      37.360 -19.389 -20.915  0.00  0.00    -0.383 OA
ATOM     33  H   UNL     1      37.823 -19.047 -21.695  0.00  0.00    +0.210 HD
ENDBRANCH  20  32
ENDBRANCH  19  20
ENDBRANCH   1  19
TORSDOF 8
ENDMDL
MODEL 4
REMARK VINA RESULT:     -10.4      7.798     10.507
REMARK  Name = 71301
REMARK  8 active torsions:
REMARK  status: ('A' for Active; 'I' for Inactive)
REMARK    1  A    between atoms: N_1  and  C_4
REMARK    2  A    between atoms: N_1  and  C_19
REMARK    3  A    between atoms: C_4  and  C_5
REMARK    4  A    between atoms: C_5  and  C_8
REMARK    5  A    between atoms: C_5  and  O_17
REMARK    6  A    between atoms: C_19  and  C_20
REMARK    7  A    between atoms: C_20  and  C_23
REMARK    8  A    between atoms: C_20  and  O_32
REMARK                            x       y       z     vdW  Elec       q    Type
REMARK                         _______ _______ _______ _____ _____    ______ ____
ROOT
ATOM      1  N   UNL     1      35.788 -21.288 -20.264  0.00  0.00    +0.387 N 
ATOM      2  H   UNL     1      36.783 -21.076 -20.188  0.00  0.00    -0.084 HD
ATOM      3  H   UNL     1      35.630 -22.013 -20.964  0.00  0.00    -0.084 HD
ENDROOT
BRANCH   1   4
ATOM      4  C   UNL     1      35.074 -20.086 -20.673  0.00  0.00    -0.048 C 
BRANCH   4   5
ATOM      5  C   UNL     1      36.020 -18.907 -20.911  0.00  0.00    +0.129 C 
BRANCH   5   8
ATOM      6  F   UNL     1      33.063 -14.108 -26.181  0.00  0.00    -0.204 F 
ATOM      7  O   UNL     1      35.131 -16.960 -21.958  0.00  0.00    -0.477 OA
ATOM      8  C   UNL     1      35.781 -18.208 -22.243  0.00  0.00    +0.191 C 
ATOM      9  C   UNL     1      34.931 -19.077 -23.169  0.00  0.00    +0.051 C 
ATOM     10  C   UNL     1      34.764 -18.367 -24.505  0.00  0.00    +0.033 C 
ATOM     11  C   UNL     1      34.416 -16.922 -24.292  0.00  0.00    +0.014 C 
ATOM     12  C   UNL     1      34.627 -16.305 -23.052  0.00  0.00    +0.135 C 
ATOM     13  C   UNL     1      33.895 -16.165 -25.351  0.00  0.00    +0.028 C 
ATOM     14  C   UNL     1      34.284 -14.963 -22.864  0.00  0.00    +0.039 C 
ATOM     15  C   UNL     1      33.566 -14.822 -25.164  0.00  0.00    +0.140 C 
ATOM     16  C   UNL     1      33.757 -14.223 -23.921  0.00  0.00    +0.033 C 
ENDBRANCH   5   8
BRANCH   5  17
ATOM     17  O   UNL     1      37.363 -19.391 -20.913  0.00  0.00    -0.383 OA
ATOM     18  H   UNL     1      37.913 -18.817 -21.469  0.00  0.00    +0.210 HD
ENDBRANCH   5  17
ENDBRANCH   4   5
ENDBRANCH   1   4
BRANCH   1  19
ATOM     19  C   UNL     1      35.304 -21.771 -18.978  0.00  0.00    -0.048 C 
BRANCH  19  20
ATOM     20  C   UNL     1      34.033 -22.613 -19.119  0.00  0.00    +0.129 C 
BRANCH  20  23
ATOM     21  F   UNL     1      30.245 -23.960 -12.532  0.00  0.00    -0.204 F 
ATOM     22  O   UNL     1      32.290 -22.809 -17.505  0.00  0.00    -0.477 OA
ATOM     23  C   UNL     1      33.611 -23.278 -17.814  0.00  0.00    +0.191 C 
ATOM     24  C   UNL     1      34.594 -22.948 -16.693  0.00  0.00    +0.051 C 
ATOM     25  C   UNL     1      34.166 -23.675 -15.424  0.00  0.00    +0.033 C 
ATOM     26  C   UNL     1      32.689 -23.525 -15.205  0.00  0.00    +0.014 C 
ATOM     27  C   UNL     1      31.844 -23.118 -16.246  0.00  0.00    +0.135 C 
ATOM     28  C   UNL     1      32.136 -23.819 -13.952  0.00  0.00    +0.028 C 
ATOM     29  C   UNL     1      30.472 -22.969 -16.023  0.00  0.00    +0.039 C 
ATOM     30  C   UNL     1      30.764 -23.682 -13.736  0.00  0.00    +0.140 C 
ATOM     31  C   UNL     1      29.934 -23.254 -14.769  0.00  0.00    +0.033 C 
ENDBRANCH  20  23
BRANCH  20  32
ATOM     32  O   UNL     1      34.272 -23.648 -20.072  0.00  0.00    -0.383 OA
ATOM     33  H   UNL     1      34.130 -24.511 -19.655  0.00  0.00    +0.210 HD
ENDBRANCH  20  32
ENDBRANCH  19  20
ENDBRANCH   1  19
TORSDOF 8
ENDMDL
MODEL 5
REMARK VINA RESULT:     -10.3      3.916      5.726
REMARK  Name = 71301
REMARK  8 active torsions:
REMARK  status: ('A' for Active; 'I' for Inactive)
REMARK    1  A    between atoms: N_1  and  C_4
REMARK    2  A    between atoms: N_1  and  C_19
REMARK    3  A    between atoms: C_4  and  C_5
REMARK    4  A    between atoms: C_5  and  C_8
REMARK    5  A    between atoms: C_5  and  O_17
REMARK    6  A    between atoms: C_19  and  C_20
REMARK    7  A    between atoms: C_20  and  C_23
REMARK    8  A    between atoms: C_20  and  O_32
REMARK                            x       y       z     vdW  Elec       q    Type
REMARK                         _______ _______ _______ _____ _____    ______ ____
ROOT
ATOM      1  N   UNL     1      33.489 -15.474 -22.094  0.00  0.00    +0.387 N 
ATOM      2  H   UNL     1      32.903 -16.307 -22.037  0.00  0.00    -0.084 HD
ATOM      3  H   UNL     1      33.767 -15.169 -21.162  0.00  0.00    -0.084 HD
ENDROOT
BRANCH   1   4
ATOM      4  C   UNL     1      32.733 -14.402 -22.727  0.00  0.00    -0.048 C 
BRANCH   4   5
ATOM      5  C   UNL     1      33.486 -13.784 -23.906  0.00  0.00    +0.129 C 
BRANCH   5   8
ATOM      6  F   UNL     1      32.746  -6.208 -22.635  0.00  0.00    -0.204 F 
ATOM      7  O   UNL     1      32.726 -11.691 -23.055  0.00  0.00    -0.477 OA
ATOM      8  C   UNL     1      33.853 -12.322 -23.682  0.00  0.00    +0.191 C 
ATOM      9  C   UNL     1      34.207 -11.641 -25.003  0.00  0.00    +0.051 C 
ATOM     10  C   UNL     1      34.621 -10.202 -24.727  0.00  0.00    +0.033 C 
ATOM     11  C   UNL     1      33.660  -9.552 -23.773  0.00  0.00    +0.014 C 
ATOM     12  C   UNL     1      32.787 -10.323 -22.993  0.00  0.00    +0.135 C 
ATOM     13  C   UNL     1      33.646  -8.158 -23.636  0.00  0.00    +0.028 C 
ATOM     14  C   UNL     1      31.887  -9.704 -22.121  0.00  0.00    +0.039 C 
ATOM     15  C   UNL     1      32.756  -7.543 -22.755  0.00  0.00    +0.140 C 
ATOM     16  C   UNL     1      31.875  -8.315 -22.001  0.00  0.00    +0.033 C 
ENDBRANCH   5   8
BRANCH   5  17
ATOM     17  O   UNL     1      32.654 -13.846 -25.064  0.00  0.00    -0.383 OA
ATOM     18  H   UNL     1      33.143 -14.260 -25.793  0.00  0.00    +0.210 HD
ENDBRANCH   5  17
ENDBRANCH   4   5
ENDBRANCH   1   4
BRANCH   1  19
ATOM     19  C   UNL     1      34.689 -15.787 -22.858  0.00  0.00    -0.048 C 
BRANCH  19  20
ATOM     20  C   UNL     1      34.545 -17.088 -23.651  0.00  0.00    +0.129 C 
BRANCH  20  23
ATOM     21  F   UNL     1      34.867 -22.581 -18.240  0.00  0.00    -0.204 F 
ATOM     22  O   UNL     1      33.906 -18.747 -22.063  0.00  0.00    -0.477 OA
ATOM     23  C   UNL     1      35.008 -18.315 -22.874  0.00  0.00    +0.191 C 
ATOM     24  C   UNL     1      36.231 -17.987 -22.020  0.00  0.00    +0.051 C 
ATOM     25  C   UNL     1      36.694 -19.251 -21.306  0.00  0.00    +0.033 C 
ATOM     26  C   UNL     1      35.523 -19.974 -20.707  0.00  0.00    +0.014 C 
ATOM     27  C   UNL     1      34.214 -19.695 -21.121  0.00  0.00    +0.135 C 
ATOM     28  C   UNL     1      35.735 -20.963 -19.737  0.00  0.00    +0.028 C 
ATOM     29  C   UNL     1      33.133 -20.366 -20.544  0.00  0.00    +0.039 C 
ATOM     30  C   UNL     1      34.655 -21.641 -19.171  0.00  0.00    +0.140 C 
ATOM     31  C   UNL     1      33.355 -21.340 -19.572  0.00  0.00    +0.033 C 
ENDBRANCH  20  23
BRANCH  20  32
ATOM     32  O   UNL     1      35.344 -16.997 -24.830  0.00  0.00    -0.383 OA
ATOM     33  H   UNL     1      35.360 -16.079 -25.140  0.00  0.00    +0.210 HD
ENDBRANCH  20  32
ENDBRANCH  19  20
ENDBRANCH   1  19
TORSDOF 8
ENDMDL
MODEL 6
REMARK VINA RESULT:     -10.3      4.328      6.081
REMARK  Name = 71301
REMARK  8 active torsions:
REMARK  status: ('A' for Active; 'I' for Inactive)
REMARK    1  A    between atoms: N_1  and  C_4
REMARK    2  A    between atoms: N_1  and  C_19
REMARK    3  A    between atoms: C_4  and  C_5
REMARK    4  A    between atoms: C_5  and  C_8
REMARK    5  A    between atoms: C_5  and  O_17
REMARK    6  A    between atoms: C_19  and  C_20
REMARK    7  A    between atoms: C_20  and  C_23
REMARK    8  A    between atoms: C_20  and  O_32
REMARK                            x       y       z     vdW  Elec       q    Type
REMARK                         _______ _______ _______ _____ _____    ______ ____
ROOT
ATOM      1  N   UNL     1      33.573 -15.367 -22.682  0.00  0.00    +0.387 N 
ATOM      2  H   UNL     1      33.264 -15.681 -23.602  0.00  0.00    -0.084 HD
ATOM      3  H   UNL     1      32.781 -15.294 -22.044  0.00  0.00    -0.084 HD
ENDROOT
BRANCH   1   4
ATOM      4  C   UNL     1      34.188 -14.052 -22.810  0.00  0.00    -0.048 C 
BRANCH   4   5
ATOM      5  C   UNL     1      33.787 -13.353 -24.111  0.00  0.00    +0.129 C 
BRANCH   5   8
ATOM      6  F   UNL     1      32.713  -5.908 -22.387  0.00  0.00    -0.204 F 
ATOM      7  O   UNL     1      34.095 -10.995 -23.954  0.00  0.00    -0.477 OA
ATOM      8  C   UNL     1      33.090 -12.017 -23.881  0.00  0.00    +0.191 C 
ATOM      9  C   UNL     1      32.378 -12.001 -22.529  0.00  0.00    +0.051 C 
ATOM     10  C   UNL     1      31.650 -10.673 -22.365  0.00  0.00    +0.033 C 
ATOM     11  C   UNL     1      32.541  -9.532 -22.766  0.00  0.00    +0.014 C 
ATOM     12  C   UNL     1      33.691  -9.752 -23.537  0.00  0.00    +0.135 C 
ATOM     13  C   UNL     1      32.212  -8.223 -22.391  0.00  0.00    +0.028 C 
ATOM     14  C   UNL     1      34.518  -8.683 -23.890  0.00  0.00    +0.039 C 
ATOM     15  C   UNL     1      33.033  -7.156 -22.756  0.00  0.00    +0.140 C 
ATOM     16  C   UNL     1      34.187  -7.386 -23.502  0.00  0.00    +0.033 C 
ENDBRANCH   5   8
BRANCH   5  17
ATOM     17  O   UNL     1      32.880 -14.194 -24.823  0.00  0.00    -0.383 OA
ATOM     18  H   UNL     1      31.981 -14.060 -24.486  0.00  0.00    +0.210 HD
ENDBRANCH   5  17
ENDBRANCH   4   5
ENDBRANCH   1   4
BRANCH   1  19
ATOM     19  C   UNL     1      34.519 -16.334 -22.142  0.00  0.00    -0.048 C 
BRANCH  19  20
ATOM     20  C   UNL     1      34.663 -17.564 -23.041  0.00  0.00    +0.129 C 
BRANCH  20  23
ATOM     21  F   UNL     1      34.659 -23.154 -17.720  0.00  0.00    -0.204 F 
ATOM     22  O   UNL     1      33.927 -19.226 -21.498  0.00  0.00    -0.477 OA
ATOM     23  C   UNL     1      35.063 -18.820 -22.275  0.00  0.00    +0.191 C 
ATOM     24  C   UNL     1      36.276 -18.549 -21.385  0.00  0.00    +0.051 C 
ATOM     25  C   UNL     1      36.676 -19.840 -20.682  0.00  0.00    +0.033 C 
ATOM     26  C   UNL     1      35.466 -20.532 -20.124  0.00  0.00    +0.014 C 
ATOM     27  C   UNL     1      34.178 -20.200 -20.566  0.00  0.00    +0.135 C 
ATOM     28  C   UNL     1      35.619 -21.543 -19.167  0.00  0.00    +0.028 C 
ATOM     29  C   UNL     1      33.060 -20.842 -20.027  0.00  0.00    +0.039 C 
ATOM     30  C   UNL     1      34.503 -22.192 -18.640  0.00  0.00    +0.140 C 
ATOM     31  C   UNL     1      33.224 -21.839 -19.067  0.00  0.00    +0.033 C 
ENDBRANCH  20  23
BRANCH  20  32
ATOM     32  O   UNL     1      35.679 -17.308 -24.010  0.00  0.00    -0.383 OA
ATOM     33  H   UNL     1      35.986 -16.393 -23.922  0.00  0.00    +0.210 HD
ENDBRANCH  20  32
ENDBRANCH  19  20
ENDBRANCH   1  19
TORSDOF 8
ENDMDL
MODEL 7
REMARK VINA RESULT:     -10.3      3.967      9.137
REMARK  Name = 71301
REMARK  8 active torsions:
REMARK  status: ('A' for Active; 'I' for Inactive)
REMARK    1  A    between atoms: N_1  and  C_4
REMARK    2  A    between atoms: N_1  and  C_19
REMARK    3  A    between atoms: C_4  and  C_5
REMARK    4  A    between atoms: C_5  and  C_8
REMARK    5  A    between atoms: C_5  and  O_17
REMARK    6  A    between atoms: C_19  and  C_20
REMARK    7  A    between atoms: C_20  and  C_23
REMARK    8  A    between atoms: C_20  and  O_32
REMARK                            x       y       z     vdW  Elec       q    Type
REMARK                         _______ _______ _______ _____ _____    ______ ____
ROOT
ATOM      1  N   UNL     1      33.471 -15.556 -22.076  0.00  0.00    +0.387 N 
ATOM      2  H   UNL     1      33.732 -15.237 -21.144  0.00  0.00    -0.084 HD
ATOM      3  H   UNL     1      32.890 -16.392 -22.017  0.00  0.00    -0.084 HD
ENDROOT
BRANCH   1   4
ATOM      4  C   UNL     1      34.678 -15.882 -22.824  0.00  0.00    -0.048 C 
BRANCH   4   5
ATOM      5  C   UNL     1      34.537 -17.192 -23.603  0.00  0.00    +0.129 C 
BRANCH   5   8
ATOM      6  F   UNL     1      34.843 -22.644 -18.151  0.00  0.00    -0.204 F 
ATOM      7  O   UNL     1      33.894 -18.843 -22.009  0.00  0.00    -0.477 OA
ATOM      8  C   UNL     1      35.001 -18.410 -22.813  0.00  0.00    +0.191 C 
ATOM      9  C   UNL     1      36.214 -18.068 -21.949  0.00  0.00    +0.051 C 
ATOM     10  C   UNL     1      36.678 -19.323 -21.223  0.00  0.00    +0.033 C 
ATOM     11  C   UNL     1      35.506 -20.051 -20.629  0.00  0.00    +0.014 C 
ATOM     12  C   UNL     1      34.199 -19.782 -21.058  0.00  0.00    +0.135 C 
ATOM     13  C   UNL     1      35.715 -21.032 -19.651  0.00  0.00    +0.028 C 
ATOM     14  C   UNL     1      33.117 -20.456 -20.486  0.00  0.00    +0.039 C 
ATOM     15  C   UNL     1      34.633 -21.712 -19.090  0.00  0.00    +0.140 C 
ATOM     16  C   UNL     1      33.335 -21.422 -19.506  0.00  0.00    +0.033 C 
ENDBRANCH   5   8
BRANCH   5  17
ATOM     17  O   UNL     1      35.338 -17.112 -24.781  0.00  0.00    -0.383 OA
ATOM     18  H   UNL     1      35.694 -17.990 -24.991  0.00  0.00    +0.210 HD
ENDBRANCH   5  17
ENDBRANCH   4   5
ENDBRANCH   1   4
BRANCH   1  19
ATOM     19  C   UNL     1      32.711 -14.508 -22.744  0.00  0.00    -0.048 C 
BRANCH  19  20
ATOM     20  C   UNL     1      33.479 -13.897 -23.918  0.00  0.00    +0.129 C 
BRANCH  20  23
ATOM     21  F   UNL     1      32.746  -6.335 -22.566  0.00  0.00    -0.204 F 
ATOM     22  O   UNL     1      32.739 -11.815 -23.024  0.00  0.00    -0.477 OA
ATOM     23  C   UNL     1      33.846 -12.435 -23.696  0.00  0.00    +0.191 C 
ATOM     24  C   UNL     1      34.148 -11.743 -25.024  0.00  0.00    +0.051 C 
ATOM     25  C   UNL     1      34.563 -10.302 -24.752  0.00  0.00    +0.033 C 
ATOM     26  C   UNL     1      33.635  -9.666 -23.760  0.00  0.00    +0.014 C 
ATOM     27  C   UNL     1      32.795 -10.447 -22.954  0.00  0.00    +0.135 C 
ATOM     28  C   UNL     1      33.619  -8.273 -23.613  0.00  0.00    +0.028 C 
ATOM     29  C   UNL     1      31.925  -9.839 -22.045  0.00  0.00    +0.039 C 
ATOM     30  C   UNL     1      32.758  -7.669 -22.695  0.00  0.00    +0.140 C 
ATOM     31  C   UNL     1      31.910  -8.451 -21.915  0.00  0.00    +0.033 C 
ENDBRANCH  20  23
BRANCH  20  32
ATOM     32  O   UNL     1      32.660 -13.963 -25.086  0.00  0.00    -0.383 OA
ATOM     33  H   UNL     1      32.276 -14.850 -25.161  0.00  0.00    +0.210 HD
ENDBRANCH  20  32
ENDBRANCH  19  20
ENDBRANCH   1  19
TORSDOF 8
ENDMDL
MODEL 8
REMARK VINA RESULT:     -10.3      7.480     12.030
REMARK  Name = 71301
REMARK  8 active torsions:
REMARK  status: ('A' for Active; 'I' for Inactive)
REMARK    1  A    between atoms: N_1  and  C_4
REMARK    2  A    between atoms: N_1  and  C_19
REMARK    3  A    between atoms: C_4  and  C_5
REMARK    4  A    between atoms: C_5  and  C_8
REMARK    5  A    between atoms: C_5  and  O_17
REMARK    6  A    between atoms: C_19  and  C_20
REMARK    7  A    between atoms: C_20  and  C_23
REMARK    8  A    between atoms: C_20  and  O_32
REMARK                            x       y       z     vdW  Elec       q    Type
REMARK                         _______ _______ _______ _____ _____    ______ ____
ROOT
ATOM      1  N   UNL     1      32.831 -20.529 -20.782  0.00  0.00    +0.387 N 
ATOM      2  H   UNL     1      32.045 -19.893 -20.645  0.00  0.00    -0.084 HD
ATOM      3  H   UNL     1      32.528 -21.372 -21.269  0.00  0.00    -0.084 HD
ENDROOT
BRANCH   1   4
ATOM      4  C   UNL     1      33.366 -20.911 -19.482  0.00  0.00    -0.048 C 
BRANCH   4   5
ATOM      5  C   UNL     1      33.863 -22.358 -19.467  0.00  0.00    +0.129 C 
BRANCH   5   8
ATOM      6  F   UNL     1      30.393 -24.119 -12.803  0.00  0.00    -0.204 F 
ATOM      7  O   UNL     1      32.197 -22.670 -17.791  0.00  0.00    -0.477 OA
ATOM      8  C   UNL     1      33.510 -23.098 -18.182  0.00  0.00    +0.191 C 
ATOM      9  C   UNL     1      34.537 -22.809 -17.088  0.00  0.00    +0.051 C 
ATOM     10  C   UNL     1      34.178 -23.610 -15.844  0.00  0.00    +0.033 C 
ATOM     11  C   UNL     1      32.709 -23.499 -15.553  0.00  0.00    +0.014 C 
ATOM     12  C   UNL     1      31.812 -23.053 -16.532  0.00  0.00    +0.135 C 
ATOM     13  C   UNL     1      32.216 -23.869 -14.294  0.00  0.00    +0.028 C 
ATOM     14  C   UNL     1      30.449 -22.940 -16.243  0.00  0.00    +0.039 C 
ATOM     15  C   UNL     1      30.853 -23.768 -14.012  0.00  0.00    +0.140 C 
ATOM     16  C   UNL     1      29.972 -23.301 -14.984  0.00  0.00    +0.033 C 
ENDBRANCH   5   8
BRANCH   5  17
ATOM     17  O   UNL     1      35.286 -22.356 -19.585  0.00  0.00    -0.383 OA
ATOM     18  H   UNL     1      35.652 -23.115 -19.106  0.00  0.00    +0.210 HD
ENDBRANCH   5  17
ENDBRANCH   4   5
ENDBRANCH   1   4
BRANCH   1  19
ATOM     19  C   UNL     1      33.846 -19.866 -21.590  0.00  0.00    -0.048 C 
BRANCH  19  20
ATOM     20  C   UNL     1      34.691 -18.890 -20.767  0.00  0.00    +0.129 C 
BRANCH  20  23
ATOM     21  F   UNL     1      32.863 -11.959 -23.626  0.00  0.00    -0.204 F 
ATOM     22  O   UNL     1      33.694 -16.742 -21.044  0.00  0.00    -0.477 OA
ATOM     23  C   UNL     1      34.836 -17.524 -21.426  0.00  0.00    +0.191 C 
ATOM     24  C   UNL     1      34.932 -17.661 -22.945  0.00  0.00    +0.051 C 
ATOM     25  C   UNL     1      35.131 -16.281 -23.559  0.00  0.00    +0.033 C 
ATOM     26  C   UNL     1      34.184 -15.291 -22.945  0.00  0.00    +0.014 C 
ATOM     27  C   UNL     1      33.537 -15.568 -21.734  0.00  0.00    +0.135 C 
ATOM     28  C   UNL     1      33.958 -14.060 -23.574  0.00  0.00    +0.028 C 
ATOM     29  C   UNL     1      32.646 -14.643 -21.182  0.00  0.00    +0.039 C 
ATOM     30  C   UNL     1      33.078 -13.132 -23.014  0.00  0.00    +0.140 C 
ATOM     31  C   UNL     1      32.420 -13.425 -21.821  0.00  0.00    +0.033 C 
ENDBRANCH  20  23
BRANCH  20  32
ATOM     32  O   UNL     1      36.001 -19.436 -20.613  0.00  0.00    -0.383 OA
ATOM     33  H   UNL     1      36.656 -18.803 -20.943  0.00  0.00    +0.210 HD
ENDBRANCH  20  32
ENDBRANCH  19  20
ENDBRANCH   1  19
TORSDOF 8
ENDMDL
MODEL 9
REMARK VINA RESULT:     -10.3      4.296      9.456
REMARK  Name = 71301
REMARK  8 active torsions:
REMARK  status: ('A' for Active; 'I' for Inactive)
REMARK    1  A    between atoms: N_1  and  C_4
REMARK    2  A    between atoms: N_1  and  C_19
REMARK    3  A    between atoms: C_4  and  C_5
REMARK    4  A    between atoms: C_5  and  C_8
REMARK    5  A    between atoms: C_5  and  O_17
REMARK    6  A    between atoms: C_19  and  C_20
REMARK    7  A    between atoms: C_20  and  C_23
REMARK    8  A    between atoms: C_20  and  O_32
REMARK                            x       y       z     vdW  Elec       q    Type
REMARK                         _______ _______ _______ _____ _____    ______ ____
ROOT
ATOM      1  N   UNL     1      33.555 -15.284 -22.546  0.00  0.00    +0.387 N 
ATOM      2  H   UNL     1      32.778 -15.201 -21.891  0.00  0.00    -0.084 HD
ATOM      3  H   UNL     1      33.222 -15.605 -23.455  0.00  0.00    -0.084 HD
ENDROOT
BRANCH   1   4
ATOM      4  C   UNL     1      34.511 -16.255 -22.031  0.00  0.00    -0.048 C 
BRANCH   4   5
ATOM      5  C   UNL     1      34.687 -17.446 -22.975  0.00  0.00    +0.129 C 
BRANCH   5   8
ATOM      6  F   UNL     1      34.578 -23.184 -17.816  0.00  0.00    -0.204 F 
ATOM      7  O   UNL     1      33.920 -19.128 -21.471  0.00  0.00    -0.477 OA
ATOM      8  C   UNL     1      35.059 -18.733 -22.250  0.00  0.00    +0.191 C 
ATOM      9  C   UNL     1      36.289 -18.524 -21.367  0.00  0.00    +0.051 C 
ATOM     10  C   UNL     1      36.659 -19.845 -20.707  0.00  0.00    +0.033 C 
ATOM     11  C   UNL     1      35.436 -20.518 -20.154  0.00  0.00    +0.014 C 
ATOM     12  C   UNL     1      34.153 -20.135 -20.570  0.00  0.00    +0.135 C 
ATOM     13  C   UNL     1      35.569 -21.561 -19.228  0.00  0.00    +0.028 C 
ATOM     14  C   UNL     1      33.023 -20.760 -20.036  0.00  0.00    +0.039 C 
ATOM     15  C   UNL     1      34.439 -22.191 -18.706  0.00  0.00    +0.140 C 
ATOM     16  C   UNL     1      33.167 -21.789 -19.107  0.00  0.00    +0.033 C 
ENDBRANCH   5   8
BRANCH   5  17
ATOM     17  O   UNL     1      35.738 -17.150 -23.895  0.00  0.00    -0.383 OA
ATOM     18  H   UNL     1      35.366 -17.023 -24.781  0.00  0.00    +0.210 HD
ENDBRANCH   5  17
ENDBRANCH   4   5
ENDBRANCH   1   4
BRANCH   1  19
ATOM     19  C   UNL     1      34.177 -13.977 -22.715  0.00  0.00    -0.048 C 
BRANCH  19  20
ATOM     20  C   UNL     1      33.785 -13.318 -24.039  0.00  0.00    +0.129 C 
BRANCH  20  23
ATOM     21  F   UNL     1      32.661  -5.842 -22.493  0.00  0.00    -0.204 F 
ATOM     22  O   UNL     1      34.087 -10.956 -23.924  0.00  0.00    -0.477 OA
ATOM     23  C   UNL     1      33.081 -11.979 -23.854  0.00  0.00    +0.191 C 
ATOM     24  C   UNL     1      32.337 -11.936 -22.521  0.00  0.00    +0.051 C 
ATOM     25  C   UNL     1      31.604 -10.606 -22.401  0.00  0.00    +0.033 C 
ATOM     26  C   UNL     1      32.503  -9.473 -22.804  0.00  0.00    +0.014 C 
ATOM     27  C   UNL     1      33.671  -9.707 -23.542  0.00  0.00    +0.135 C 
ATOM     28  C   UNL     1      32.163  -8.157 -22.463  0.00  0.00    +0.028 C 
ATOM     29  C   UNL     1      34.505  -8.643 -23.897  0.00  0.00    +0.039 C 
ATOM     30  C   UNL     1      32.991  -7.096 -22.830  0.00  0.00    +0.140 C 
ATOM     31  C   UNL     1      34.163  -7.340 -23.543  0.00  0.00    +0.033 C 
ENDBRANCH  20  23
BRANCH  20  32
ATOM     32  O   UNL     1      32.888 -14.184 -24.735  0.00  0.00    -0.383 OA
ATOM     33  H   UNL     1      33.065 -15.103 -24.483  0.00  0.00    +0.210 HD
ENDBRANCH  20  32
ENDBRANCH  19  20
ENDBRANCH   1  19
TORSDOF 8
ENDMDL
