MODEL 1
REMARK VINA RESULT:      -6.3      0.000      0.000
REMARK  Name = 2447
REMARK  2 active torsions:
REMARK  status: ('A' for Active; 'I' for Inactive)
REMARK    1  A    between atoms: C_5  and  C_11
REMARK    2  A    between atoms: C_11  and  C_12
REMARK                            x       y       z     vdW  Elec       q    Type
REMARK                         _______ _______ _______ _____ _____    ______ ____
ROOT
ATOM      1  O   UNL     1      35.998 -18.959 -20.593  0.00  0.00    -0.274 OA
ATOM      2  O   UNL     1      35.030 -21.258 -19.296  0.00  0.00    -0.253 OA
ATOM      3  N   UNL     1      33.865 -19.880 -20.780  0.00  0.00    -0.239 N 
ATOM      4  N   UNL     1      32.846 -21.720 -19.841  0.00  0.00    -0.313 N 
ATOM      5  C   UNL     1      34.861 -18.945 -21.063  0.00  0.00    +0.239 C 
ATOM      6  C   UNL     1      34.009 -20.973 -19.919  0.00  0.00    +0.303 C 
ATOM      7  H   UNL     1      32.993 -19.761 -21.219  0.00  0.00    +0.159 HD
ATOM      8  H   UNL     1      32.812 -22.519 -19.268  0.00  0.00    +0.146 HD
ATOM      9  H   UNL     1      32.053 -21.451 -20.359  0.00  0.00    +0.146 HD
ENDROOT
BRANCH   5  11
ATOM     10 BR   UNL     1      34.690 -16.208 -20.981  0.00  0.00    -0.072 Br
ATOM     11  C   UNL     1      34.381 -17.854 -22.011  0.00  0.00    +0.133 C 
BRANCH  11  12
ATOM     12  C   UNL     1      35.152 -17.818 -23.343  0.00  0.00    +0.019 C 
ATOM     13  C   UNL     1      34.844 -16.553 -24.156  0.00  0.00    +0.001 C 
ATOM     14  C   UNL     1      34.798 -19.039 -24.205  0.00  0.00    +0.001 C 
ENDBRANCH  11  12
ENDBRANCH   5  11
TORSDOF 2
ENDMDL
MODEL 2
REMARK VINA RESULT:      -6.1      3.291      4.924
REMARK  Name = 2447
REMARK  2 active torsions:
REMARK  status: ('A' for Active; 'I' for Inactive)
REMARK    1  A    between atoms: C_5  and  C_11
REMARK    2  A    between atoms: C_11  and  C_12
REMARK                            x       y       z     vdW  Elec       q    Type
REMARK                         _______ _______ _______ _____ _____    ______ ____
ROOT
ATOM      1  O   UNL     1      34.954 -19.058 -24.382  0.00  0.00    -0.274 OA
ATOM      2  O   UNL     1      33.856 -16.956 -25.892  0.00  0.00    -0.253 OA
ATOM      3  N   UNL     1      34.574 -16.872 -23.670  0.00  0.00    -0.239 N 
ATOM      4  N   UNL     1      33.704 -15.001 -24.694  0.00  0.00    -0.313 N 
ATOM      5  C   UNL     1      34.999 -18.191 -23.511  0.00  0.00    +0.239 C 
ATOM      6  C   UNL     1      34.032 -16.337 -24.843  0.00  0.00    +0.303 C 
ATOM      7  H   UNL     1      34.662 -16.270 -22.897  0.00  0.00    +0.159 HD
ATOM      8  H   UNL     1      33.312 -14.503 -25.447  0.00  0.00    +0.146 HD
ATOM      9  H   UNL     1      33.864 -14.548 -23.834  0.00  0.00    +0.146 HD
ENDROOT
BRANCH   5  11
ATOM     10 BR   UNL     1      34.867 -16.917 -21.086  0.00  0.00    -0.072 Br
ATOM     11  C   UNL     1      35.508 -18.471 -22.103  0.00  0.00    +0.133 C 
BRANCH  11  12
ATOM     12  C   UNL     1      34.963 -19.780 -21.505  0.00  0.00    +0.019 C 
ATOM     13  C   UNL     1      33.554 -19.606 -20.920  0.00  0.00    +0.001 C 
ATOM     14  C   UNL     1      35.885 -20.290 -20.387  0.00  0.00    +0.001 C 
ENDBRANCH  11  12
ENDBRANCH   5  11
TORSDOF 2
ENDMDL
MODEL 3
REMARK VINA RESULT:      -6.1      1.640      2.132
REMARK  Name = 2447
REMARK  2 active torsions:
REMARK  status: ('A' for Active; 'I' for Inactive)
REMARK    1  A    between atoms: C_5  and  C_11
REMARK    2  A    between atoms: C_11  and  C_12
REMARK                            x       y       z     vdW  Elec       q    Type
REMARK                         _______ _______ _______ _____ _____    ______ ____
ROOT
ATOM      1  O   UNL     1      36.437 -18.977 -20.634  0.00  0.00    -0.274 OA
ATOM      2  O   UNL     1      34.747 -20.963 -19.583  0.00  0.00    -0.253 OA
ATOM      3  N   UNL     1      34.189 -19.318 -21.145  0.00  0.00    -0.239 N 
ATOM      4  N   UNL     1      32.616 -20.843 -20.434  0.00  0.00    -0.313 N 
ATOM      5  C   UNL     1      35.419 -18.667 -21.249  0.00  0.00    +0.239 C 
ATOM      6  C   UNL     1      33.929 -20.419 -20.323  0.00  0.00    +0.303 C 
ATOM      7  H   UNL     1      33.446 -18.975 -21.691  0.00  0.00    +0.159 HD
ATOM      8  H   UNL     1      32.301 -21.613 -19.907  0.00  0.00    +0.146 HD
ATOM      9  H   UNL     1      31.998 -20.375 -21.041  0.00  0.00    +0.146 HD
ENDROOT
BRANCH   5  11
ATOM     10 BR   UNL     1      35.022 -18.328 -23.942  0.00  0.00    -0.072 Br
ATOM     11  C   UNL     1      35.368 -17.480 -22.203  0.00  0.00    +0.133 C 
BRANCH  11  12
ATOM     12  C   UNL     1      34.262 -16.466 -21.859  0.00  0.00    +0.019 C 
ATOM     13  C   UNL     1      34.020 -15.465 -22.997  0.00  0.00    +0.001 C 
ATOM     14  C   UNL     1      34.628 -15.674 -20.595  0.00  0.00    +0.001 C 
ENDBRANCH  11  12
ENDBRANCH   5  11
TORSDOF 2
ENDMDL
MODEL 4
REMARK VINA RESULT:      -6.1      2.764      4.712
REMARK  Name = 2447
REMARK  2 active torsions:
REMARK  status: ('A' for Active; 'I' for Inactive)
REMARK    1  A    between atoms: C_5  and  C_11
REMARK    2  A    between atoms: C_11  and  C_12
REMARK                            x       y       z     vdW  Elec       q    Type
REMARK                         _______ _______ _______ _____ _____    ______ ____
ROOT
ATOM      1  O   UNL     1      35.319 -17.480 -20.655  0.00  0.00    -0.274 OA
ATOM      2  O   UNL     1      35.300 -15.851 -22.947  0.00  0.00    -0.253 OA
ATOM      3  N   UNL     1      35.106 -18.178 -22.868  0.00  0.00    -0.239 N 
ATOM      4  N   UNL     1      35.063 -17.064 -24.884  0.00  0.00    -0.313 N 
ATOM      5  C   UNL     1      35.186 -18.374 -21.489  0.00  0.00    +0.239 C 
ATOM      6  C   UNL     1      35.168 -16.936 -23.510  0.00  0.00    +0.303 C 
ATOM      7  H   UNL     1      34.999 -18.975 -23.435  0.00  0.00    +0.159 HD
ATOM      8  H   UNL     1      35.091 -16.264 -25.456  0.00  0.00    +0.146 HD
ATOM      9  H   UNL     1      34.958 -17.955 -25.289  0.00  0.00    +0.146 HD
ENDROOT
BRANCH   5  11
ATOM     10 BR   UNL     1      36.853 -20.148 -20.226  0.00  0.00    -0.072 Br
ATOM     11  C   UNL     1      35.122 -19.847 -21.107  0.00  0.00    +0.133 C 
BRANCH  11  12
ATOM     12  C   UNL     1      33.959 -20.183 -20.157  0.00  0.00    +0.019 C 
ATOM     13  C   UNL     1      34.051 -21.615 -19.612  0.00  0.00    +0.001 C 
ATOM     14  C   UNL     1      32.611 -20.032 -20.877  0.00  0.00    +0.001 C 
ENDBRANCH  11  12
ENDBRANCH   5  11
TORSDOF 2
ENDMDL
MODEL 5
REMARK VINA RESULT:      -6.0      1.915      2.383
REMARK  Name = 2447
REMARK  2 active torsions:
REMARK  status: ('A' for Active; 'I' for Inactive)
REMARK    1  A    between atoms: C_5  and  C_11
REMARK    2  A    between atoms: C_11  and  C_12
REMARK                            x       y       z     vdW  Elec       q    Type
REMARK                         _______ _______ _______ _____ _____    ______ ____
ROOT
ATOM      1  O   UNL     1      36.395 -20.480 -19.599  0.00  0.00    -0.274 OA
ATOM      2  O   UNL     1      35.539 -22.444 -17.778  0.00  0.00    -0.253 OA
ATOM      3  N   UNL     1      34.356 -21.608 -19.611  0.00  0.00    -0.239 N 
ATOM      4  N   UNL     1      33.432 -23.226 -18.257  0.00  0.00    -0.313 N 
ATOM      5  C   UNL     1      35.290 -20.691 -20.095  0.00  0.00    +0.239 C 
ATOM      6  C   UNL     1      34.535 -22.423 -18.489  0.00  0.00    +0.303 C 
ATOM      7  H   UNL     1      33.504 -21.686 -20.096  0.00  0.00    +0.159 HD
ATOM      8  H   UNL     1      33.429 -23.850 -17.496  0.00  0.00    +0.146 HD
ATOM      9  H   UNL     1      32.651 -23.174 -18.856  0.00  0.00    +0.146 HD
ENDROOT
BRANCH   5  11
ATOM     10 BR   UNL     1      32.898 -19.590 -20.862  0.00  0.00    -0.072 Br
ATOM     11  C   UNL     1      34.781 -19.931 -21.312  0.00  0.00    +0.133 C 
BRANCH  11  12
ATOM     12  C   UNL     1      35.530 -18.610 -21.566  0.00  0.00    +0.019 C 
ATOM     13  C   UNL     1      34.765 -17.396 -21.021  0.00  0.00    +0.001 C 
ATOM     14  C   UNL     1      35.757 -18.397 -23.070  0.00  0.00    +0.001 C 
ENDBRANCH  11  12
ENDBRANCH   5  11
TORSDOF 2
ENDMDL
MODEL 6
REMARK VINA RESULT:      -5.9      4.523      5.635
REMARK  Name = 2447
REMARK  2 active torsions:
REMARK  status: ('A' for Active; 'I' for Inactive)
REMARK    1  A    between atoms: C_5  and  C_11
REMARK    2  A    between atoms: C_11  and  C_12
REMARK                            x       y       z     vdW  Elec       q    Type
REMARK                         _______ _______ _______ _____ _____    ______ ____
ROOT
ATOM      1  O   UNL     1      33.230 -14.917 -25.184  0.00  0.00    -0.274 OA
ATOM      2  O   UNL     1      34.408 -17.433 -25.616  0.00  0.00    -0.253 OA
ATOM      3  N   UNL     1      34.572 -16.109 -23.698  0.00  0.00    -0.239 N 
ATOM      4  N   UNL     1      35.637 -18.148 -23.812  0.00  0.00    -0.313 N 
ATOM      5  C   UNL     1      33.793 -15.022 -24.096  0.00  0.00    +0.239 C 
ATOM      6  C   UNL     1      34.831 -17.242 -24.477  0.00  0.00    +0.303 C 
ATOM      7  H   UNL     1      34.971 -16.077 -22.800  0.00  0.00    +0.159 HD
ATOM      8  H   UNL     1      35.895 -18.991 -24.249  0.00  0.00    +0.146 HD
ATOM      9  H   UNL     1      35.951 -17.950 -22.899  0.00  0.00    +0.146 HD
ENDROOT
BRANCH   5  11
ATOM     10 BR   UNL     1      33.682 -12.281 -24.101  0.00  0.00    -0.072 Br
ATOM     11  C   UNL     1      33.732 -13.932 -23.034  0.00  0.00    +0.133 C 
BRANCH  11  12
ATOM     12  C   UNL     1      32.495 -14.033 -22.124  0.00  0.00    +0.019 C 
ATOM     13  C   UNL     1      31.947 -12.652 -21.738  0.00  0.00    +0.001 C 
ATOM     14  C   UNL     1      32.834 -14.791 -20.832  0.00  0.00    +0.001 C 
ENDBRANCH  11  12
ENDBRANCH   5  11
TORSDOF 2
ENDMDL
MODEL 7
REMARK VINA RESULT:      -5.8      7.679      9.175
REMARK  Name = 2447
REMARK  2 active torsions:
REMARK  status: ('A' for Active; 'I' for Inactive)
REMARK    1  A    between atoms: C_5  and  C_11
REMARK    2  A    between atoms: C_11  and  C_12
REMARK                            x       y       z     vdW  Elec       q    Type
REMARK                         _______ _______ _______ _____ _____    ______ ____
ROOT
ATOM      1  O   UNL     1      35.815 -26.136 -15.641  0.00  0.00    -0.274 OA
ATOM      2  O   UNL     1      38.227 -27.287 -14.770  0.00  0.00    -0.253 OA
ATOM      3  N   UNL     1      37.514 -25.087 -14.441  0.00  0.00    -0.239 N 
ATOM      4  N   UNL     1      39.548 -25.796 -13.624  0.00  0.00    -0.313 N 
ATOM      5  C   UNL     1      36.280 -25.140 -15.090  0.00  0.00    +0.239 C 
ATOM      6  C   UNL     1      38.407 -26.157 -14.321  0.00  0.00    +0.303 C 
ATOM      7  H   UNL     1      37.778 -24.230 -14.037  0.00  0.00    +0.159 HD
ATOM      8  H   UNL     1      40.259 -26.458 -13.468  0.00  0.00    +0.146 HD
ATOM      9  H   UNL     1      39.647 -24.877 -13.284  0.00  0.00    +0.146 HD
ENDROOT
BRANCH   5  11
ATOM     10 BR   UNL     1      36.815 -22.617 -16.021  0.00  0.00    -0.072 Br
ATOM     11  C   UNL     1      35.560 -23.799 -15.079  0.00  0.00    +0.133 C 
BRANCH  11  12
ATOM     12  C   UNL     1      34.197 -23.831 -15.794  0.00  0.00    +0.019 C 
ATOM     13  C   UNL     1      34.211 -23.028 -17.102  0.00  0.00    +0.001 C 
ATOM     14  C   UNL     1      33.098 -23.253 -14.890  0.00  0.00    +0.001 C 
ENDBRANCH  11  12
ENDBRANCH   5  11
TORSDOF 2
ENDMDL
MODEL 8
REMARK VINA RESULT:      -5.8     10.034     11.013
REMARK  Name = 2447
REMARK  2 active torsions:
REMARK  status: ('A' for Active; 'I' for Inactive)
REMARK    1  A    between atoms: C_5  and  C_11
REMARK    2  A    between atoms: C_11  and  C_12
REMARK                            x       y       z     vdW  Elec       q    Type
REMARK                         _______ _______ _______ _____ _____    ______ ____
ROOT
ATOM      1  O   UNL     1      37.302 -26.678 -11.686  0.00  0.00    -0.274 OA
ATOM      2  O   UNL     1      35.211 -25.020 -10.801  0.00  0.00    -0.253 OA
ATOM      3  N   UNL     1      36.191 -25.044 -12.921  0.00  0.00    -0.239 N 
ATOM      4  N   UNL     1      34.479 -23.582 -12.436  0.00  0.00    -0.313 N 
ATOM      5  C   UNL     1      37.137 -26.053 -12.731  0.00  0.00    +0.239 C 
ATOM      6  C   UNL     1      35.291 -24.592 -11.951  0.00  0.00    +0.303 C 
ATOM      7  H   UNL     1      36.154 -24.617 -13.807  0.00  0.00    +0.159 HD
ATOM      8  H   UNL     1      33.799 -23.174 -11.853  0.00  0.00    +0.146 HD
ATOM      9  H   UNL     1      34.581 -23.272 -13.365  0.00  0.00    +0.146 HD
ENDROOT
BRANCH   5  11
ATOM     10 BR   UNL     1      36.651 -26.517 -15.391  0.00  0.00    -0.072 Br
ATOM     11  C   UNL     1      37.990 -26.288 -13.970  0.00  0.00    +0.133 C 
BRANCH  11  12
ATOM     12  C   UNL     1      38.936 -25.117 -14.293  0.00  0.00    +0.019 C 
ATOM     13  C   UNL     1      38.340 -24.163 -15.338  0.00  0.00    +0.001 C 
ATOM     14  C   UNL     1      40.277 -25.636 -14.830  0.00  0.00    +0.001 C 
ENDBRANCH  11  12
ENDBRANCH   5  11
TORSDOF 2
ENDMDL
MODEL 9
REMARK VINA RESULT:      -5.8     10.484     11.608
REMARK  Name = 2447
REMARK  2 active torsions:
REMARK  status: ('A' for Active; 'I' for Inactive)
REMARK    1  A    between atoms: C_5  and  C_11
REMARK    2  A    between atoms: C_11  and  C_12
REMARK                            x       y       z     vdW  Elec       q    Type
REMARK                         _______ _______ _______ _____ _____    ______ ____
ROOT
ATOM      1  O   UNL     1      33.043  -7.198 -19.525  0.00  0.00    -0.274 OA
ATOM      2  O   UNL     1      32.226  -9.777 -18.758  0.00  0.00    -0.253 OA
ATOM      3  N   UNL     1      32.001  -8.794 -20.865  0.00  0.00    -0.239 N 
ATOM      4  N   UNL     1      31.246 -10.936 -20.482  0.00  0.00    -0.313 N 
ATOM      5  C   UNL     1      32.580  -7.551 -20.608  0.00  0.00    +0.239 C 
ATOM      6  C   UNL     1      31.860  -9.825 -19.931  0.00  0.00    +0.303 C 
ATOM      7  H   UNL     1      31.665  -8.959 -21.775  0.00  0.00    +0.159 HD
ATOM      8  H   UNL     1      31.086 -11.735 -19.930  0.00  0.00    +0.146 HD
ATOM      9  H   UNL     1      30.970 -10.928 -21.428  0.00  0.00    +0.146 HD
ENDROOT
BRANCH   5  11
ATOM     10 BR   UNL     1      33.822  -7.493 -23.052  0.00  0.00    -0.072 Br
ATOM     11  C   UNL     1      32.551  -6.634 -21.823  0.00  0.00    +0.133 C 
BRANCH  11  12
ATOM     12  C   UNL     1      31.158  -6.519 -22.469  0.00  0.00    +0.019 C 
ATOM     13  C   UNL     1      31.237  -6.399 -23.998  0.00  0.00    +0.001 C 
ATOM     14  C   UNL     1      30.412  -5.289 -21.931  0.00  0.00    +0.001 C 
ENDBRANCH  11  12
ENDBRANCH   5  11
TORSDOF 2
ENDMDL
