MODEL 1
REMARK VINA RESULT:      -6.7      0.000      0.000
REMARK  Name = 70164
REMARK  5 active torsions:
REMARK  status: ('A' for Active; 'I' for Inactive)
REMARK    1  A    between atoms: C_1  and  C_14
REMARK    2  A    between atoms: C_2  and  O_7
REMARK    3  A    between atoms: C_3  and  O_9
REMARK    4  A    between atoms: C_4  and  O_11
REMARK    5  A    between atoms: C_14  and  O_15
REMARK                            x       y       z     vdW  Elec       q    Type
REMARK                         _______ _______ _______ _____ _____    ______ ____
ROOT
ATOM      1  C   UNL     1      33.332 -23.252 -16.848  0.00  0.00    +0.082 C 
ATOM      2  C   UNL     1      34.339 -24.195 -14.866  0.00  0.00    +0.175 C 
ATOM      3  C   UNL     1      31.939 -23.954 -15.003  0.00  0.00    +0.175 C 
ATOM      4  C   UNL     1      33.075 -24.349 -14.297  0.00  0.00    +0.202 C 
ATOM      5  C   UNL     1      34.468 -23.646 -16.141  0.00  0.00    +0.047 C 
ATOM      6  C   UNL     1      32.068 -23.406 -16.279  0.00  0.00    +0.047 C 
ENDROOT
BRANCH   2   7
ATOM      7  O   UNL     1      35.456 -24.577 -14.186  0.00  0.00    -0.468 OA
ATOM      8  C   UNL     1      36.303 -25.536 -14.817  0.00  0.00    +0.253 C 
ENDBRANCH   2   7
BRANCH   3   9
ATOM      9  O   UNL     1      30.699 -24.102 -14.460  0.00  0.00    -0.468 OA
ATOM     10  C   UNL     1      29.960 -25.262 -14.839  0.00  0.00    +0.253 C 
ENDBRANCH   3   9
BRANCH   4  11
ATOM     11  O   UNL     1      32.950 -24.885 -13.049  0.00  0.00    -0.501 OA
ATOM     12  H   UNL     1      33.473 -25.621 -12.800  0.00  0.00    +0.292 HD
ENDBRANCH   4  11
BRANCH   1  14
ATOM     13  O   UNL     1      32.552 -22.112 -18.792  0.00  0.00    -0.245 OA
ATOM     14  C   UNL     1      33.466 -22.680 -18.179  0.00  0.00    +0.342 C 
BRANCH  14  15
ATOM     15  O   UNL     1      34.731 -22.848 -18.674  0.00  0.00    -0.441 OA
ATOM     16  C   UNL     1      35.330 -21.717 -19.315  0.00  0.00    +0.256 C 
ENDBRANCH  14  15
ENDBRANCH   1  14
TORSDOF 5
ENDMDL
MODEL 2
REMARK VINA RESULT:      -6.7      1.454      1.892
REMARK  Name = 70164
REMARK  5 active torsions:
REMARK  status: ('A' for Active; 'I' for Inactive)
REMARK    1  A    between atoms: C_1  and  C_14
REMARK    2  A    between atoms: C_2  and  O_7
REMARK    3  A    between atoms: C_3  and  O_9
REMARK    4  A    between atoms: C_4  and  O_11
REMARK    5  A    between atoms: C_14  and  O_15
REMARK                            x       y       z     vdW  Elec       q    Type
REMARK                         _______ _______ _______ _____ _____    ______ ____
ROOT
ATOM      1  C   UNL     1      32.808 -23.246 -16.324  0.00  0.00    +0.082 C 
ATOM      2  C   UNL     1      32.798 -23.863 -13.989  0.00  0.00    +0.175 C 
ATOM      3  C   UNL     1      30.712 -23.475 -15.145  0.00  0.00    +0.175 C 
ATOM      4  C   UNL     1      31.404 -23.810 -13.981  0.00  0.00    +0.202 C 
ATOM      5  C   UNL     1      33.500 -23.581 -15.160  0.00  0.00    +0.047 C 
ATOM      6  C   UNL     1      31.414 -23.194 -16.316  0.00  0.00    +0.047 C 
ENDROOT
BRANCH   2   7
ATOM      7  O   UNL     1      33.485 -24.189 -12.859  0.00  0.00    -0.468 OA
ATOM      8  C   UNL     1      34.907 -24.246 -12.958  0.00  0.00    +0.253 C 
ENDBRANCH   2   7
BRANCH   3   9
ATOM      9  O   UNL     1      29.351 -23.423 -15.151  0.00  0.00    -0.468 OA
ATOM     10  C   UNL     1      28.688 -23.952 -16.298  0.00  0.00    +0.253 C 
ENDBRANCH   3   9
BRANCH   4  11
ATOM     11  O   UNL     1      30.718 -24.085 -12.835  0.00  0.00    -0.501 OA
ATOM     12  H   UNL     1      30.036 -23.510 -12.548  0.00  0.00    +0.292 HD
ENDBRANCH   4  11
BRANCH   1  14
ATOM     13  O   UNL     1      34.749 -23.168 -17.707  0.00  0.00    -0.245 OA
ATOM     14  C   UNL     1      33.540 -22.953 -17.547  0.00  0.00    +0.342 C 
BRANCH  14  15
ATOM     15  O   UNL     1      32.726 -22.408 -18.503  0.00  0.00    -0.441 OA
ATOM     16  C   UNL     1      33.348 -21.566 -19.478  0.00  0.00    +0.256 C 
ENDBRANCH  14  15
ENDBRANCH   1  14
TORSDOF 5
ENDMDL
MODEL 3
REMARK VINA RESULT:      -6.6      0.164      3.166
REMARK  Name = 70164
REMARK  5 active torsions:
REMARK  status: ('A' for Active; 'I' for Inactive)
REMARK    1  A    between atoms: C_1  and  C_14
REMARK    2  A    between atoms: C_2  and  O_7
REMARK    3  A    between atoms: C_3  and  O_9
REMARK    4  A    between atoms: C_4  and  O_11
REMARK    5  A    between atoms: C_14  and  O_15
REMARK                            x       y       z     vdW  Elec       q    Type
REMARK                         _______ _______ _______ _____ _____    ______ ____
ROOT
ATOM      1  C   UNL     1      33.437 -23.161 -16.925  0.00  0.00    +0.082 C 
ATOM      2  C   UNL     1      32.008 -23.870 -15.111  0.00  0.00    +0.175 C 
ATOM      3  C   UNL     1      34.407 -24.078 -14.911  0.00  0.00    +0.175 C 
ATOM      4  C   UNL     1      33.130 -24.245 -14.373  0.00  0.00    +0.202 C 
ATOM      5  C   UNL     1      32.161 -23.328 -16.386  0.00  0.00    +0.047 C 
ATOM      6  C   UNL     1      34.559 -23.535 -16.186  0.00  0.00    +0.047 C 
ENDROOT
BRANCH   2   7
ATOM      7  O   UNL     1      30.756 -24.027 -14.596  0.00  0.00    -0.468 OA
ATOM      8  C   UNL     1      30.029 -25.185 -15.004  0.00  0.00    +0.253 C 
ENDBRANCH   2   7
BRANCH   3   9
ATOM      9  O   UNL     1      35.511 -24.437 -14.199  0.00  0.00    -0.468 OA
ATOM     10  C   UNL     1      36.386 -25.391 -14.798  0.00  0.00    +0.253 C 
ENDBRANCH   3   9
BRANCH   4  11
ATOM     11  O   UNL     1      32.981 -24.776 -13.125  0.00  0.00    -0.501 OA
ATOM     12  H   UNL     1      33.730 -24.908 -12.580  0.00  0.00    +0.292 HD
ENDBRANCH   4  11
BRANCH   1  14
ATOM     13  O   UNL     1      32.694 -22.036 -18.891  0.00  0.00    -0.245 OA
ATOM     14  C   UNL     1      33.597 -22.595 -18.255  0.00  0.00    +0.342 C 
BRANCH  14  15
ATOM     15  O   UNL     1      34.874 -22.757 -18.721  0.00  0.00    -0.441 OA
ATOM     16  C   UNL     1      35.442 -21.661 -19.444  0.00  0.00    +0.256 C 
ENDBRANCH  14  15
ENDBRANCH   1  14
TORSDOF 5
ENDMDL
MODEL 4
REMARK VINA RESULT:      -6.6      9.297     12.436
REMARK  Name = 70164
REMARK  5 active torsions:
REMARK  status: ('A' for Active; 'I' for Inactive)
REMARK    1  A    between atoms: C_1  and  C_14
REMARK    2  A    between atoms: C_2  and  O_7
REMARK    3  A    between atoms: C_3  and  O_9
REMARK    4  A    between atoms: C_4  and  O_11
REMARK    5  A    between atoms: C_14  and  O_15
REMARK                            x       y       z     vdW  Elec       q    Type
REMARK                         _______ _______ _______ _____ _____    ______ ____
ROOT
ATOM      1  C   UNL     1      33.331 -14.723 -23.056  0.00  0.00    +0.082 C 
ATOM      2  C   UNL     1      33.629 -15.335 -25.374  0.00  0.00    +0.175 C 
ATOM      3  C   UNL     1      34.635 -16.674 -23.632  0.00  0.00    +0.175 C 
ATOM      4  C   UNL     1      34.399 -16.431 -24.985  0.00  0.00    +0.202 C 
ATOM      5  C   UNL     1      33.095 -14.481 -24.410  0.00  0.00    +0.047 C 
ATOM      6  C   UNL     1      34.100 -15.820 -22.668  0.00  0.00    +0.047 C 
ENDROOT
BRANCH   2   7
ATOM      7  O   UNL     1      33.391 -15.088 -26.692  0.00  0.00    -0.468 OA
ATOM      8  C   UNL     1      33.268 -13.722 -27.084  0.00  0.00    +0.253 C 
ENDBRANCH   2   7
BRANCH   3   9
ATOM      9  O   UNL     1      35.382 -17.743 -23.240  0.00  0.00    -0.468 OA
ATOM     10  C   UNL     1      34.676 -18.890 -22.771  0.00  0.00    +0.253 C 
ENDBRANCH   3   9
BRANCH   4  11
ATOM     11  O   UNL     1      34.922 -17.266 -25.929  0.00  0.00    -0.501 OA
ATOM     12  H   UNL     1      35.769 -17.095 -26.288  0.00  0.00    +0.292 HD
ENDBRANCH   4  11
BRANCH   1  14
ATOM     13  O   UNL     1      32.862 -14.014 -20.829  0.00  0.00    -0.245 OA
ATOM     14  C   UNL     1      32.774 -13.833 -22.050  0.00  0.00    +0.342 C 
BRANCH  14  15
ATOM     15  O   UNL     1      32.136 -12.764 -22.621  0.00  0.00    -0.441 OA
ATOM     16  C   UNL     1      31.577 -11.794 -21.730  0.00  0.00    +0.256 C 
ENDBRANCH  14  15
ENDBRANCH   1  14
TORSDOF 5
ENDMDL
MODEL 5
REMARK VINA RESULT:      -6.5      8.677     11.160
REMARK  Name = 70164
REMARK  5 active torsions:
REMARK  status: ('A' for Active; 'I' for Inactive)
REMARK    1  A    between atoms: C_1  and  C_14
REMARK    2  A    between atoms: C_2  and  O_7
REMARK    3  A    between atoms: C_3  and  O_9
REMARK    4  A    between atoms: C_4  and  O_11
REMARK    5  A    between atoms: C_14  and  O_15
REMARK                            x       y       z     vdW  Elec       q    Type
REMARK                         _______ _______ _______ _____ _____    ______ ____
ROOT
ATOM      1  C   UNL     1      33.854 -15.517 -24.253  0.00  0.00    +0.082 C 
ATOM      2  C   UNL     1      35.039 -17.006 -22.766  0.00  0.00    +0.175 C 
ATOM      3  C   UNL     1      33.953 -15.034 -21.888  0.00  0.00    +0.175 C 
ATOM      4  C   UNL     1      34.711 -16.188 -21.685  0.00  0.00    +0.202 C 
ATOM      5  C   UNL     1      34.612 -16.670 -24.050  0.00  0.00    +0.047 C 
ATOM      6  C   UNL     1      33.525 -14.699 -23.172  0.00  0.00    +0.047 C 
ENDROOT
BRANCH   2   7
ATOM      7  O   UNL     1      35.778 -18.135 -22.581  0.00  0.00    -0.468 OA
ATOM      8  C   UNL     1      35.067 -19.369 -22.498  0.00  0.00    +0.253 C 
ENDBRANCH   2   7
BRANCH   3   9
ATOM      9  O   UNL     1      33.623 -14.229 -20.840  0.00  0.00    -0.468 OA
ATOM     10  C   UNL     1      32.427 -13.462 -20.964  0.00  0.00    +0.253 C 
ENDBRANCH   3   9
BRANCH   4  11
ATOM     11  O   UNL     1      35.130 -16.516 -20.429  0.00  0.00    -0.501 OA
ATOM     12  H   UNL     1      34.886 -15.982 -19.700  0.00  0.00    +0.292 HD
ENDBRANCH   4  11
BRANCH   1  14
ATOM     13  O   UNL     1      33.272 -15.976 -26.519  0.00  0.00    -0.245 OA
ATOM     14  C   UNL     1      33.407 -15.167 -25.592  0.00  0.00    +0.342 C 
BRANCH  14  15
ATOM     15  O   UNL     1      33.152 -13.826 -25.704  0.00  0.00    -0.441 OA
ATOM     16  C   UNL     1      33.277 -13.251 -27.009  0.00  0.00    +0.256 C 
ENDBRANCH  14  15
ENDBRANCH   1  14
TORSDOF 5
ENDMDL
MODEL 6
REMARK VINA RESULT:      -6.5      9.270     12.258
REMARK  Name = 70164
REMARK  5 active torsions:
REMARK  status: ('A' for Active; 'I' for Inactive)
REMARK    1  A    between atoms: C_1  and  C_14
REMARK    2  A    between atoms: C_2  and  O_7
REMARK    3  A    between atoms: C_3  and  O_9
REMARK    4  A    between atoms: C_4  and  O_11
REMARK    5  A    between atoms: C_14  and  O_15
REMARK                            x       y       z     vdW  Elec       q    Type
REMARK                         _______ _______ _______ _____ _____    ______ ____
ROOT
ATOM      1  C   UNL     1      33.337 -14.778 -23.062  0.00  0.00    +0.082 C 
ATOM      2  C   UNL     1      34.637 -16.727 -23.645  0.00  0.00    +0.175 C 
ATOM      3  C   UNL     1      33.653 -15.368 -25.383  0.00  0.00    +0.175 C 
ATOM      4  C   UNL     1      34.415 -16.472 -24.998  0.00  0.00    +0.202 C 
ATOM      5  C   UNL     1      34.098 -15.881 -22.677  0.00  0.00    +0.047 C 
ATOM      6  C   UNL     1      33.115 -14.521 -24.415  0.00  0.00    +0.047 C 
ENDROOT
BRANCH   2   7
ATOM      7  O   UNL     1      35.379 -17.802 -23.256  0.00  0.00    -0.468 OA
ATOM      8  C   UNL     1      34.669 -18.939 -22.768  0.00  0.00    +0.253 C 
ENDBRANCH   2   7
BRANCH   3   9
ATOM      9  O   UNL     1      33.432 -15.105 -26.701  0.00  0.00    -0.468 OA
ATOM     10  C   UNL     1      33.225 -13.741 -27.064  0.00  0.00    +0.253 C 
ENDBRANCH   3   9
BRANCH   4  11
ATOM     11  O   UNL     1      34.941 -17.300 -25.945  0.00  0.00    -0.501 OA
ATOM     12  H   UNL     1      34.378 -17.726 -26.560  0.00  0.00    +0.292 HD
ENDBRANCH   4  11
BRANCH   1  14
ATOM     13  O   UNL     1      32.926 -14.039 -20.833  0.00  0.00    -0.245 OA
ATOM     14  C   UNL     1      32.775 -13.894 -22.052  0.00  0.00    +0.342 C 
BRANCH  14  15
ATOM     15  O   UNL     1      32.055 -12.876 -22.619  0.00  0.00    -0.441 OA
ATOM     16  C   UNL     1      31.614 -11.832 -21.745  0.00  0.00    +0.256 C 
ENDBRANCH  14  15
ENDBRANCH   1  14
TORSDOF 5
ENDMDL
MODEL 7
REMARK VINA RESULT:      -6.5      8.713     11.474
REMARK  Name = 70164
REMARK  5 active torsions:
REMARK  status: ('A' for Active; 'I' for Inactive)
REMARK    1  A    between atoms: C_1  and  C_14
REMARK    2  A    between atoms: C_2  and  O_7
REMARK    3  A    between atoms: C_3  and  O_9
REMARK    4  A    between atoms: C_4  and  O_11
REMARK    5  A    between atoms: C_14  and  O_15
REMARK                            x       y       z     vdW  Elec       q    Type
REMARK                         _______ _______ _______ _____ _____    ______ ____
ROOT
ATOM      1  C   UNL     1      33.808 -15.405 -24.176  0.00  0.00    +0.082 C 
ATOM      2  C   UNL     1      33.711 -14.846 -21.828  0.00  0.00    +0.175 C 
ATOM      3  C   UNL     1      35.073 -16.697 -22.574  0.00  0.00    +0.175 C 
ATOM      4  C   UNL     1      34.586 -15.894 -21.543  0.00  0.00    +0.202 C 
ATOM      5  C   UNL     1      33.322 -14.601 -23.145  0.00  0.00    +0.047 C 
ATOM      6  C   UNL     1      34.684 -16.452 -23.891  0.00  0.00    +0.047 C 
ENDROOT
BRANCH   2   7
ATOM      7  O   UNL     1      33.229 -14.054 -20.830  0.00  0.00    -0.468 OA
ATOM      8  C   UNL     1      32.240 -13.090 -21.186  0.00  0.00    +0.253 C 
ENDBRANCH   2   7
BRANCH   3   9
ATOM      9  O   UNL     1      35.930 -17.722 -22.309  0.00  0.00    -0.468 OA
ATOM     10  C   UNL     1      35.356 -19.012 -22.109  0.00  0.00    +0.253 C 
ENDBRANCH   3   9
BRANCH   4  11
ATOM     11  O   UNL     1      34.966 -16.134 -20.255  0.00  0.00    -0.501 OA
ATOM     12  H   UNL     1      34.392 -15.913 -19.548  0.00  0.00    +0.292 HD
ENDBRANCH   4  11
BRANCH   1  14
ATOM     13  O   UNL     1      33.400 -16.000 -26.448  0.00  0.00    -0.245 OA
ATOM     14  C   UNL     1      33.403 -15.149 -25.550  0.00  0.00    +0.342 C 
BRANCH  14  15
ATOM     15  O   UNL     1      33.025 -13.845 -25.729  0.00  0.00    -0.441 OA
ATOM     16  C   UNL     1      33.253 -13.278 -27.022  0.00  0.00    +0.256 C 
ENDBRANCH  14  15
ENDBRANCH   1  14
TORSDOF 5
ENDMDL
MODEL 8
REMARK VINA RESULT:      -6.3      1.249      3.920
REMARK  Name = 70164
REMARK  5 active torsions:
REMARK  status: ('A' for Active; 'I' for Inactive)
REMARK    1  A    between atoms: C_1  and  C_14
REMARK    2  A    between atoms: C_2  and  O_7
REMARK    3  A    between atoms: C_3  and  O_9
REMARK    4  A    between atoms: C_4  and  O_11
REMARK    5  A    between atoms: C_14  and  O_15
REMARK                            x       y       z     vdW  Elec       q    Type
REMARK                         _______ _______ _______ _____ _____    ______ ____
ROOT
ATOM      1  C   UNL     1      34.162 -23.572 -15.465  0.00  0.00    +0.082 C 
ATOM      2  C   UNL     1      32.796 -22.871 -17.329  0.00  0.00    +0.175 C 
ATOM      3  C   UNL     1      31.770 -23.365 -15.198  0.00  0.00    +0.175 C 
ATOM      4  C   UNL     1      31.657 -22.967 -16.530  0.00  0.00    +0.202 C 
ATOM      5  C   UNL     1      34.049 -23.174 -16.797  0.00  0.00    +0.047 C 
ATOM      6  C   UNL     1      33.023 -23.667 -14.666  0.00  0.00    +0.047 C 
ENDROOT
BRANCH   2   7
ATOM      7  O   UNL     1      32.699 -22.483 -18.631  0.00  0.00    -0.468 OA
ATOM      8  C   UNL     1      33.909 -22.117 -19.291  0.00  0.00    +0.253 C 
ENDBRANCH   2   7
BRANCH   3   9
ATOM      9  O   UNL     1      30.666 -23.459 -14.407  0.00  0.00    -0.468 OA
ATOM     10  C   UNL     1      30.126 -24.764 -14.201  0.00  0.00    +0.253 C 
ENDBRANCH   3   9
BRANCH   4  11
ATOM     11  O   UNL     1      30.432 -22.672 -17.052  0.00  0.00    -0.501 OA
ATOM     12  H   UNL     1      30.315 -22.632 -17.980  0.00  0.00    +0.292 HD
ENDBRANCH   4  11
BRANCH   1  14
ATOM     13  O   UNL     1      35.925 -23.393 -13.869  0.00  0.00    -0.245 OA
ATOM     14  C   UNL     1      35.469 -23.887 -14.909  0.00  0.00    +0.342 C 
BRANCH  14  15
ATOM     15  O   UNL     1      36.137 -24.801 -15.679  0.00  0.00    -0.441 OA
ATOM     16  C   UNL     1      36.449 -26.057 -15.067  0.00  0.00    +0.256 C 
ENDBRANCH  14  15
ENDBRANCH   1  14
TORSDOF 5
ENDMDL
MODEL 9
REMARK VINA RESULT:      -6.3      1.331      4.513
REMARK  Name = 70164
REMARK  5 active torsions:
REMARK  status: ('A' for Active; 'I' for Inactive)
REMARK    1  A    between atoms: C_1  and  C_14
REMARK    2  A    between atoms: C_2  and  O_7
REMARK    3  A    between atoms: C_3  and  O_9
REMARK    4  A    between atoms: C_4  and  O_11
REMARK    5  A    between atoms: C_14  and  O_15
REMARK                            x       y       z     vdW  Elec       q    Type
REMARK                         _______ _______ _______ _____ _____    ______ ____
ROOT
ATOM      1  C   UNL     1      34.051 -23.593 -15.612  0.00  0.00    +0.082 C 
ATOM      2  C   UNL     1      31.677 -23.248 -15.328  0.00  0.00    +0.175 C 
ATOM      3  C   UNL     1      32.719 -22.784 -17.458  0.00  0.00    +0.175 C 
ATOM      4  C   UNL     1      31.580 -22.824 -16.653  0.00  0.00    +0.202 C 
ATOM      5  C   UNL     1      32.912 -23.632 -14.807  0.00  0.00    +0.047 C 
ATOM      6  C   UNL     1      33.954 -23.169 -16.937  0.00  0.00    +0.047 C 
ENDROOT
BRANCH   2   7
ATOM      7  O   UNL     1      30.573 -23.291 -14.532  0.00  0.00    -0.468 OA
ATOM      8  C   UNL     1      30.288 -24.530 -13.883  0.00  0.00    +0.253 C 
ENDBRANCH   2   7
BRANCH   3   9
ATOM      9  O   UNL     1      32.637 -22.375 -18.755  0.00  0.00    -0.468 OA
ATOM     10  C   UNL     1      33.816 -21.820 -19.335  0.00  0.00    +0.253 C 
ENDBRANCH   3   9
BRANCH   4  11
ATOM     11  O   UNL     1      30.372 -22.447 -17.162  0.00  0.00    -0.501 OA
ATOM     12  H   UNL     1      29.765 -21.976 -16.627  0.00  0.00    +0.292 HD
ENDBRANCH   4  11
BRANCH   1  14
ATOM     13  O   UNL     1      35.894 -23.449 -14.106  0.00  0.00    -0.245 OA
ATOM     14  C   UNL     1      35.339 -23.994 -15.069  0.00  0.00    +0.342 C 
BRANCH  14  15
ATOM     15  O   UNL     1      35.867 -25.054 -15.757  0.00  0.00    -0.441 OA
ATOM     16  C   UNL     1      36.538 -26.056 -14.986  0.00  0.00    +0.256 C 
ENDBRANCH  14  15
ENDBRANCH   1  14
TORSDOF 5
ENDMDL
