MODEL 1
REMARK VINA RESULT:      -8.8      0.000      0.000
REMARK  Name = 25920890
REMARK  6 active torsions:
REMARK  status: ('A' for Active; 'I' for Inactive)
REMARK    1  A    between atoms: N_1  and  C_24
REMARK    2  A    between atoms: N_4  and  C_11
REMARK    3  A    between atoms: C_6  and  C_35
REMARK    4  A    between atoms: C_14  and  S_17
REMARK    5  A    between atoms: S_17  and  N_20
REMARK    6  A    between atoms: C_23  and  N_28
REMARK                            x       y       z     vdW  Elec       q    Type
REMARK                         _______ _______ _______ _____ _____    ______ ____
ROOT
ATOM      1  N   UNL     1      33.317 -10.402 -24.110  0.00  0.00    -0.311 N 
ATOM      2  N   UNL     1      32.730 -11.807 -22.332  0.00  0.00    -0.322 NA
ATOM      3  N   UNL     1      31.224 -11.015 -20.626  0.00  0.00    -0.170 NA
ATOM      4  N   UNL     1      32.113 -13.184 -20.535  0.00  0.00    -0.247 N 
ATOM      5  C   UNL     1      32.614 -10.608 -22.939  0.00  0.00    +0.198 C 
ATOM      6  C   UNL     1      31.832  -9.578 -22.457  0.00  0.00    +0.136 C 
ATOM      7  C   UNL     1      31.153  -9.840 -21.286  0.00  0.00    +0.119 C 
ATOM      8  C   UNL     1      32.018 -11.941 -21.197  0.00  0.00    +0.150 C 
ATOM      9  H   UNL     1      33.235  -9.528 -24.556  0.00  0.00    +0.149 HD
ATOM     10  H   UNL     1      31.576 -13.237 -19.711  0.00  0.00    +0.165 HD
ENDROOT
BRANCH   4  11
ATOM     11  C   UNL     1      32.827 -14.363 -20.822  0.00  0.00    +0.058 C 
ATOM     12  C   UNL     1      34.218 -14.332 -20.917  0.00  0.00    +0.017 C 
ATOM     13  C   UNL     1      32.142 -15.565 -21.010  0.00  0.00    +0.017 C 
ATOM     14  C   UNL     1      34.239 -16.701 -21.390  0.00  0.00    +0.122 C 
ATOM     15  C   UNL     1      34.924 -15.501 -21.201  0.00  0.00    +0.021 C 
ATOM     16  C   UNL     1      32.848 -16.732 -21.294  0.00  0.00    +0.021 C 
BRANCH  14  17
ATOM     17  S   UNL     1      35.123 -18.164 -21.745  0.00  0.00    +0.060 S 
ATOM     18  O   UNL     1      36.177 -18.328 -20.752  0.00  0.00    -0.153 OA
ATOM     19  O   UNL     1      34.154 -19.234 -21.939  0.00  0.00    -0.153 OA
BRANCH  17  20
ATOM     20  N   UNL     1      35.844 -17.802 -23.252  0.00  0.00    -0.178 NA
ATOM     21  C   UNL     1      35.000 -17.595 -24.438  0.00  0.00    +0.110 C 
ATOM     22  H   UNL     1      36.474 -18.574 -23.470  0.00  0.00    +0.149 HD
ENDBRANCH  17  20
ENDBRANCH  14  17
ENDBRANCH   4  11
BRANCH   1  24
ATOM     23  C   UNL     1      33.400 -12.169 -25.801  0.00  0.00    -0.040 C 
ATOM     24  C   UNL     1      34.168 -11.402 -24.714  0.00  0.00    +0.053 C 
ATOM     25  C   UNL     1      34.446 -12.428 -26.881  0.00  0.00    -0.019 C 
ATOM     26  C   UNL     1      35.356 -10.745 -25.433  0.00  0.00    +0.017 C 
ATOM     27  C   UNL     1      35.213 -11.116 -26.908  0.00  0.00    -0.000 C 
BRANCH  23  28
ATOM     28  N   UNL     1      32.810 -13.404 -25.305  0.00  0.00    +0.386 N 
ATOM     29  C   UNL     1      33.719 -14.062 -24.367  0.00  0.00    -0.101 C 
ATOM     30  C   UNL     1      32.485 -14.296 -26.415  0.00  0.00    -0.101 C 
ATOM     31  H   UNL     1      31.946 -13.176 -24.811  0.00  0.00    -0.080 HD
ENDBRANCH  23  28
ENDBRANCH   1  24
BRANCH   6  35
ATOM     32  F   UNL     1      30.919  -7.382 -22.436  0.00  0.00    -0.166 F 
ATOM     33  F   UNL     1      32.898  -7.611 -23.307  0.00  0.00    -0.166 F 
ATOM     34  F   UNL     1      31.154  -8.326 -24.380  0.00  0.00    -0.166 F 
ATOM     35  C   UNL     1      31.706  -8.258 -23.131  0.00  0.00    +0.424 C 
ENDBRANCH   6  35
TORSDOF 6
ENDMDL
MODEL 2
REMARK VINA RESULT:      -7.8     10.925     13.789
REMARK  Name = 25920890
REMARK  6 active torsions:
REMARK  status: ('A' for Active; 'I' for Inactive)
REMARK    1  A    between atoms: N_1  and  C_24
REMARK    2  A    between atoms: N_4  and  C_11
REMARK    3  A    between atoms: C_6  and  C_35
REMARK    4  A    between atoms: C_14  and  S_17
REMARK    5  A    between atoms: S_17  and  N_20
REMARK    6  A    between atoms: C_23  and  N_28
REMARK                            x       y       z     vdW  Elec       q    Type
REMARK                         _______ _______ _______ _____ _____    ______ ____
ROOT
ATOM      1  N   UNL     1      32.877 -23.103 -17.103  0.00  0.00    -0.311 N 
ATOM      2  N   UNL     1      33.822 -23.920 -15.124  0.00  0.00    -0.322 NA
ATOM      3  N   UNL     1      32.438 -24.235 -13.176  0.00  0.00    -0.170 NA
ATOM      4  N   UNL     1      34.729 -24.740 -13.120  0.00  0.00    -0.247 N 
ATOM      5  C   UNL     1      32.730 -23.483 -15.784  0.00  0.00    +0.198 C 
ATOM      6  C   UNL     1      31.475 -23.395 -15.216  0.00  0.00    +0.136 C 
ATOM      7  C   UNL     1      31.388 -23.788 -13.896  0.00  0.00    +0.119 C 
ATOM      8  C   UNL     1      33.608 -24.275 -13.843  0.00  0.00    +0.150 C 
ATOM      9  H   UNL     1      32.082 -22.783 -17.589  0.00  0.00    +0.149 HD
ATOM     10  H   UNL     1      34.525 -24.989 -12.190  0.00  0.00    +0.165 HD
ENDROOT
BRANCH   4  11
ATOM     11  C   UNL     1      36.080 -24.917 -13.471  0.00  0.00    +0.058 C 
ATOM     12  C   UNL     1      36.436 -25.880 -14.415  0.00  0.00    +0.017 C 
ATOM     13  C   UNL     1      37.064 -24.127 -12.875  0.00  0.00    +0.017 C 
ATOM     14  C   UNL     1      38.759 -25.267 -14.166  0.00  0.00    +0.122 C 
ATOM     15  C   UNL     1      37.776 -26.055 -14.762  0.00  0.00    +0.021 C 
ATOM     16  C   UNL     1      38.403 -24.303 -13.223  0.00  0.00    +0.021 C 
BRANCH  14  17
ATOM     17  S   UNL     1      40.436 -25.485 -14.601  0.00  0.00    +0.060 S 
ATOM     18  O   UNL     1      40.502 -26.139 -15.902  0.00  0.00    -0.153 OA
ATOM     19  O   UNL     1      41.115 -24.211 -14.408  0.00  0.00    -0.153 OA
BRANCH  17  20
ATOM     20  N   UNL     1      40.986 -26.581 -13.411  0.00  0.00    -0.178 NA
ATOM     21  C   UNL     1      41.838 -27.716 -13.796  0.00  0.00    +0.110 C 
ATOM     22  H   UNL     1      40.157 -26.974 -12.966  0.00  0.00    +0.149 HD
ENDBRANCH  17  20
ENDBRANCH  14  17
ENDBRANCH   4  11
BRANCH   1  24
ATOM     23  C   UNL     1      34.502 -21.755 -18.341  0.00  0.00    -0.040 C 
ATOM     24  C   UNL     1      34.137 -23.149 -17.810  0.00  0.00    +0.053 C 
ATOM     25  C   UNL     1      36.019 -21.687 -18.191  0.00  0.00    -0.019 C 
ATOM     26  C   UNL     1      35.280 -23.543 -16.862  0.00  0.00    +0.017 C 
ATOM     27  C   UNL     1      36.239 -22.355 -16.844  0.00  0.00    -0.000 C 
BRANCH  23  28
ATOM     28  N   UNL     1      34.080 -21.552 -19.719  0.00  0.00    +0.386 N 
ATOM     29  C   UNL     1      35.150 -20.923 -20.493  0.00  0.00    -0.101 C 
ATOM     30  C   UNL     1      32.867 -20.739 -19.767  0.00  0.00    -0.101 C 
ATOM     31  H   UNL     1      33.875 -22.462 -20.134  0.00  0.00    -0.080 HD
ENDBRANCH  23  28
ENDBRANCH   1  24
BRANCH   6  35
ATOM     32  F   UNL     1      29.577 -23.928 -16.547  0.00  0.00    -0.166 F 
ATOM     33  F   UNL     1      29.363 -22.272 -15.153  0.00  0.00    -0.166 F 
ATOM     34  F   UNL     1      30.554 -22.027 -16.949  0.00  0.00    -0.166 F 
ATOM     35  C   UNL     1      30.273 -22.915 -15.947  0.00  0.00    +0.424 C 
ENDBRANCH   6  35
TORSDOF 6
ENDMDL
MODEL 3
REMARK VINA RESULT:      -7.0     11.682     14.552
REMARK  Name = 25920890
REMARK  6 active torsions:
REMARK  status: ('A' for Active; 'I' for Inactive)
REMARK    1  A    between atoms: N_1  and  C_24
REMARK    2  A    between atoms: N_4  and  C_11
REMARK    3  A    between atoms: C_6  and  C_35
REMARK    4  A    between atoms: C_14  and  S_17
REMARK    5  A    between atoms: S_17  and  N_20
REMARK    6  A    between atoms: C_23  and  N_28
REMARK                            x       y       z     vdW  Elec       q    Type
REMARK                         _______ _______ _______ _____ _____    ______ ____
ROOT
ATOM      1  N   UNL     1      36.200 -22.795 -14.782  0.00  0.00    -0.311 N 
ATOM      2  N   UNL     1      34.308 -23.835 -13.878  0.00  0.00    -0.322 NA
ATOM      3  N   UNL     1      34.511 -25.162 -11.876  0.00  0.00    -0.170 NA
ATOM      4  N   UNL     1      32.435 -24.892 -12.937  0.00  0.00    -0.247 N 
ATOM      5  C   UNL     1      35.633 -23.591 -13.805  0.00  0.00    +0.198 C 
ATOM      6  C   UNL     1      36.451 -24.089 -12.813  0.00  0.00    +0.136 C 
ATOM      7  C   UNL     1      35.830 -24.877 -11.866  0.00  0.00    +0.119 C 
ATOM      8  C   UNL     1      33.820 -24.616 -12.895  0.00  0.00    +0.150 C 
ATOM      9  H   UNL     1      37.167 -22.615 -14.732  0.00  0.00    +0.149 HD
ATOM     10  H   UNL     1      32.123 -25.464 -12.200  0.00  0.00    +0.165 HD
ENDROOT
BRANCH   4  11
ATOM     11  C   UNL     1      31.415 -24.507 -13.827  0.00  0.00    +0.058 C 
ATOM     12  C   UNL     1      31.048 -23.165 -13.932  0.00  0.00    +0.017 C 
ATOM     13  C   UNL     1      30.770 -25.469 -14.606  0.00  0.00    +0.017 C 
ATOM     14  C   UNL     1      29.392 -23.747 -15.591  0.00  0.00    +0.122 C 
ATOM     15  C   UNL     1      30.037 -22.785 -14.814  0.00  0.00    +0.021 C 
ATOM     16  C   UNL     1      29.759 -25.088 -15.487  0.00  0.00    +0.021 C 
BRANCH  14  17
ATOM     17  S   UNL     1      28.127 -23.271 -16.696  0.00  0.00    +0.060 S 
ATOM     18  O   UNL     1      28.571 -22.101 -17.443  0.00  0.00    -0.153 OA
ATOM     19  O   UNL     1      27.699 -24.459 -17.422  0.00  0.00    -0.153 OA
BRANCH  17  20
ATOM     20  N   UNL     1      26.871 -22.798 -15.637  0.00  0.00    -0.178 NA
ATOM     21  C   UNL     1      25.941 -21.731 -16.032  0.00  0.00    +0.110 C 
ATOM     22  H   UNL     1      27.315 -22.496 -14.770  0.00  0.00    +0.149 HD
ENDBRANCH  17  20
ENDBRANCH  14  17
ENDBRANCH   4  11
BRANCH   1  24
ATOM     23  C   UNL     1      35.939 -22.776 -17.215  0.00  0.00    -0.040 C 
ATOM     24  C   UNL     1      35.450 -22.214 -15.872  0.00  0.00    +0.053 C 
ATOM     25  C   UNL     1      34.670 -22.888 -18.053  0.00  0.00    -0.019 C 
ATOM     26  C   UNL     1      33.965 -22.598 -15.778  0.00  0.00    +0.017 C 
ATOM     27  C   UNL     1      33.658 -23.400 -17.041  0.00  0.00    -0.000 C 
BRANCH  23  28
ATOM     28  N   UNL     1      36.939 -21.929 -17.847  0.00  0.00    +0.386 N 
ATOM     29  C   UNL     1      37.418 -20.917 -16.906  0.00  0.00    -0.101 C 
ATOM     30  C   UNL     1      36.388 -21.296 -19.044  0.00  0.00    -0.101 C 
ATOM     31  H   UNL     1      37.730 -22.510 -18.126  0.00  0.00    -0.080 HD
ENDBRANCH  23  28
ENDBRANCH   1  24
BRANCH   6  35
ATOM     32  F   UNL     1      38.514 -24.448 -11.684  0.00  0.00    -0.166 F 
ATOM     33  F   UNL     1      38.607 -24.216 -13.844  0.00  0.00    -0.166 F 
ATOM     34  F   UNL     1      38.218 -22.492 -12.587  0.00  0.00    -0.166 F 
ATOM     35  C   UNL     1      37.910 -23.816 -12.736  0.00  0.00    +0.424 C 
ENDBRANCH   6  35
TORSDOF 6
ENDMDL
MODEL 4
REMARK VINA RESULT:      -6.8      5.540      7.944
REMARK  Name = 25920890
REMARK  6 active torsions:
REMARK  status: ('A' for Active; 'I' for Inactive)
REMARK    1  A    between atoms: N_1  and  C_24
REMARK    2  A    between atoms: N_4  and  C_11
REMARK    3  A    between atoms: C_6  and  C_35
REMARK    4  A    between atoms: C_14  and  S_17
REMARK    5  A    between atoms: S_17  and  N_20
REMARK    6  A    between atoms: C_23  and  N_28
REMARK                            x       y       z     vdW  Elec       q    Type
REMARK                         _______ _______ _______ _____ _____    ______ ____
ROOT
ATOM      1  N   UNL     1      32.913 -13.178 -23.791  0.00  0.00    -0.311 N 
ATOM      2  N   UNL     1      32.315 -11.443 -22.339  0.00  0.00    -0.322 NA
ATOM      3  N   UNL     1      31.934 -11.910 -20.006  0.00  0.00    -0.170 NA
ATOM      4  N   UNL     1      31.717  -9.731 -20.849  0.00  0.00    -0.247 N 
ATOM      5  C   UNL     1      32.584 -12.752 -22.519  0.00  0.00    +0.198 C 
ATOM      6  C   UNL     1      32.549 -13.688 -21.506  0.00  0.00    +0.136 C 
ATOM      7  C   UNL     1      32.215 -13.205 -20.258  0.00  0.00    +0.119 C 
ATOM      8  C   UNL     1      32.002 -11.095 -21.076  0.00  0.00    +0.150 C 
ATOM      9  H   UNL     1      33.110 -14.134 -23.927  0.00  0.00    +0.149 HD
ATOM     10  H   UNL     1      31.495  -9.523 -19.913  0.00  0.00    +0.165 HD
ENDROOT
BRANCH   4  11
ATOM     11  C   UNL     1      31.687  -8.610 -21.700  0.00  0.00    +0.058 C 
ATOM     12  C   UNL     1      30.906  -8.631 -22.855  0.00  0.00    +0.017 C 
ATOM     13  C   UNL     1      32.439  -7.477 -21.387  0.00  0.00    +0.017 C 
ATOM     14  C   UNL     1      31.629  -6.388 -23.386  0.00  0.00    +0.122 C 
ATOM     15  C   UNL     1      30.877  -7.519 -23.698  0.00  0.00    +0.021 C 
ATOM     16  C   UNL     1      32.410  -6.367 -22.230  0.00  0.00    +0.021 C 
BRANCH  14  17
ATOM     17  S   UNL     1      31.592  -4.997 -24.440  0.00  0.00    +0.060 S 
ATOM     18  O   UNL     1      32.780  -5.018 -25.286  0.00  0.00    -0.153 OA
ATOM     19  O   UNL     1      30.276  -4.943 -25.061  0.00  0.00    -0.153 OA
BRANCH  17  20
ATOM     20  N   UNL     1      31.729  -3.696 -23.339  0.00  0.00    -0.178 NA
ATOM     21  C   UNL     1      31.648  -2.311 -23.826  0.00  0.00    +0.110 C 
ATOM     22  H   UNL     1      32.633  -3.794 -22.878  0.00  0.00    +0.149 HD
ENDBRANCH  17  20
ENDBRANCH  14  17
ENDBRANCH   4  11
BRANCH   1  24
ATOM     23  C   UNL     1      34.447 -11.988 -25.281  0.00  0.00    -0.040 C 
ATOM     24  C   UNL     1      32.983 -12.296 -24.934  0.00  0.00    +0.053 C 
ATOM     25  C   UNL     1      34.460 -11.921 -26.805  0.00  0.00    -0.019 C 
ATOM     26  C   UNL     1      32.395 -12.972 -26.182  0.00  0.00    +0.017 C 
ATOM     27  C   UNL     1      33.542 -13.070 -27.186  0.00  0.00    -0.000 C 
BRANCH  23  28
ATOM     28  N   UNL     1      34.918 -10.751 -24.675  0.00  0.00    +0.386 N 
ATOM     29  C   UNL     1      33.790  -9.875 -24.362  0.00  0.00    -0.101 C 
ATOM     30  C   UNL     1      35.861 -10.075 -25.564  0.00  0.00    -0.101 C 
ATOM     31  H   UNL     1      35.402 -10.979 -23.806  0.00  0.00    -0.080 HD
ENDBRANCH  23  28
ENDBRANCH   1  24
BRANCH   6  35
ATOM     32  F   UNL     1      34.063 -15.496 -21.200  0.00  0.00    -0.166 F 
ATOM     33  F   UNL     1      31.942 -15.970 -21.120  0.00  0.00    -0.166 F 
ATOM     34  F   UNL     1      32.876 -15.510 -23.022  0.00  0.00    -0.166 F 
ATOM     35  C   UNL     1      32.848 -15.130 -21.709  0.00  0.00    +0.424 C 
ENDBRANCH   6  35
TORSDOF 6
ENDMDL
MODEL 5
REMARK VINA RESULT:      -6.6     10.312     13.744
REMARK  Name = 25920890
REMARK  6 active torsions:
REMARK  status: ('A' for Active; 'I' for Inactive)
REMARK    1  A    between atoms: N_1  and  C_24
REMARK    2  A    between atoms: N_4  and  C_11
REMARK    3  A    between atoms: C_6  and  C_35
REMARK    4  A    between atoms: C_14  and  S_17
REMARK    5  A    between atoms: S_17  and  N_20
REMARK    6  A    between atoms: C_23  and  N_28
REMARK                            x       y       z     vdW  Elec       q    Type
REMARK                         _______ _______ _______ _____ _____    ______ ____
ROOT
ATOM      1  N   UNL     1      33.112 -24.023 -14.031  0.00  0.00    -0.311 N 
ATOM      2  N   UNL     1      32.388 -23.117 -16.064  0.00  0.00    -0.322 NA
ATOM      3  N   UNL     1      30.046 -23.162 -16.629  0.00  0.00    -0.170 NA
ATOM      4  N   UNL     1      31.619 -22.217 -18.090  0.00  0.00    -0.247 N 
ATOM      5  C   UNL     1      32.082 -23.734 -14.904  0.00  0.00    +0.198 C 
ATOM      6  C   UNL     1      30.799 -24.091 -14.541  0.00  0.00    +0.136 C 
ATOM      7  C   UNL     1      29.811 -23.777 -15.451  0.00  0.00    +0.119 C 
ATOM      8  C   UNL     1      31.337 -22.864 -16.867  0.00  0.00    +0.150 C 
ATOM      9  H   UNL     1      32.893 -24.473 -13.183  0.00  0.00    +0.149 HD
ATOM     10  H   UNL     1      30.823 -22.051 -18.644  0.00  0.00    +0.165 HD
ENDROOT
BRANCH   4  11
ATOM     11  C   UNL     1      32.817 -21.762 -18.672  0.00  0.00    +0.058 C 
ATOM     12  C   UNL     1      34.037 -22.314 -18.282  0.00  0.00    +0.017 C 
ATOM     13  C   UNL     1      32.785 -20.759 -19.642  0.00  0.00    +0.017 C 
ATOM     14  C   UNL     1      35.191 -20.860 -19.827  0.00  0.00    +0.122 C 
ATOM     15  C   UNL     1      35.224 -21.863 -18.859  0.00  0.00    +0.021 C 
ATOM     16  C   UNL     1      33.972 -20.308 -20.218  0.00  0.00    +0.021 C 
BRANCH  14  17
ATOM     17  S   UNL     1      36.677 -20.296 -20.550  0.00  0.00    +0.060 S 
ATOM     18  O   UNL     1      37.206 -19.204 -19.743  0.00  0.00    -0.153 OA
ATOM     19  O   UNL     1      37.514 -21.458 -20.813  0.00  0.00    -0.153 OA
BRANCH  17  20
ATOM     20  N   UNL     1      36.141 -19.660 -22.044  0.00  0.00    -0.178 NA
ATOM     21  C   UNL     1      36.150 -18.207 -22.268  0.00  0.00    +0.110 C 
ATOM     22  H   UNL     1      35.178 -19.972 -22.168  0.00  0.00    +0.149 HD
ENDBRANCH  17  20
ENDBRANCH  14  17
ENDBRANCH   4  11
BRANCH   1  24
ATOM     23  C   UNL     1      35.406 -24.348 -13.242  0.00  0.00    -0.040 C 
ATOM     24  C   UNL     1      34.496 -23.700 -14.296  0.00  0.00    +0.053 C 
ATOM     25  C   UNL     1      36.652 -24.750 -14.026  0.00  0.00    -0.019 C 
ATOM     26  C   UNL     1      34.944 -24.284 -15.645  0.00  0.00    +0.017 C 
ATOM     27  C   UNL     1      36.061 -25.274 -15.324  0.00  0.00    -0.000 C 
BRANCH  23  28
ATOM     28  N   UNL     1      35.719 -23.448 -12.142  0.00  0.00    +0.386 N 
ATOM     29  C   UNL     1      37.070 -22.908 -12.294  0.00  0.00    -0.101 C 
ATOM     30  C   UNL     1      35.586 -24.140 -10.862  0.00  0.00    -0.101 C 
ATOM     31  H   UNL     1      35.057 -22.671 -12.159  0.00  0.00    -0.080 HD
ENDBRANCH  23  28
ENDBRANCH   1  24
BRANCH   6  35
ATOM     32  F   UNL     1      29.267 -25.425 -13.304  0.00  0.00    -0.166 F 
ATOM     33  F   UNL     1      31.381 -25.713 -12.881  0.00  0.00    -0.166 F 
ATOM     34  F   UNL     1      30.375 -23.919 -12.193  0.00  0.00    -0.166 F 
ATOM     35  C   UNL     1      30.466 -24.769 -13.260  0.00  0.00    +0.424 C 
ENDBRANCH   6  35
TORSDOF 6
ENDMDL
MODEL 6
REMARK VINA RESULT:      -6.6      5.860      8.441
REMARK  Name = 25920890
REMARK  6 active torsions:
REMARK  status: ('A' for Active; 'I' for Inactive)
REMARK    1  A    between atoms: N_1  and  C_24
REMARK    2  A    between atoms: N_4  and  C_11
REMARK    3  A    between atoms: C_6  and  C_35
REMARK    4  A    between atoms: C_14  and  S_17
REMARK    5  A    between atoms: S_17  and  N_20
REMARK    6  A    between atoms: C_23  and  N_28
REMARK                            x       y       z     vdW  Elec       q    Type
REMARK                         _______ _______ _______ _____ _____    ______ ____
ROOT
ATOM      1  N   UNL     1      33.580 -11.907 -24.237  0.00  0.00    -0.311 N 
ATOM      2  N   UNL     1      32.421 -10.411 -22.860  0.00  0.00    -0.322 NA
ATOM      3  N   UNL     1      31.520 -11.169 -20.757  0.00  0.00    -0.170 NA
ATOM      4  N   UNL     1      31.255  -8.942 -21.448  0.00  0.00    -0.247 N 
ATOM      5  C   UNL     1      32.888 -11.659 -23.067  0.00  0.00    +0.198 C 
ATOM      6  C   UNL     1      32.714 -12.700 -22.179  0.00  0.00    +0.136 C 
ATOM      7  C   UNL     1      32.015 -12.394 -21.029  0.00  0.00    +0.119 C 
ATOM      8  C   UNL     1      31.757 -10.238 -21.701  0.00  0.00    +0.150 C 
ATOM      9  H   UNL     1      33.922 -12.818 -24.392  0.00  0.00    +0.149 HD
ATOM     10  H   UNL     1      30.779  -8.862 -20.591  0.00  0.00    +0.165 HD
ENDROOT
BRANCH   4  11
ATOM     11  C   UNL     1      31.304  -7.743 -22.183  0.00  0.00    +0.058 C 
ATOM     12  C   UNL     1      30.801  -7.699 -23.483  0.00  0.00    +0.017 C 
ATOM     13  C   UNL     1      31.854  -6.595 -21.609  0.00  0.00    +0.017 C 
ATOM     14  C   UNL     1      31.400  -5.364 -23.638  0.00  0.00    +0.122 C 
ATOM     15  C   UNL     1      30.849  -6.510 -24.211  0.00  0.00    +0.021 C 
ATOM     16  C   UNL     1      31.902  -5.407 -22.337  0.00  0.00    +0.021 C 
BRANCH  14  17
ATOM     17  S   UNL     1      31.460  -3.875 -24.548  0.00  0.00    +0.060 S 
ATOM     18  O   UNL     1      32.567  -3.948 -25.494  0.00  0.00    -0.153 OA
ATOM     19  O   UNL     1      30.118  -3.602 -25.043  0.00  0.00    -0.153 OA
BRANCH  17  20
ATOM     20  N   UNL     1      31.843  -2.723 -23.345  0.00  0.00    -0.178 NA
ATOM     21  C   UNL     1      30.813  -1.786 -22.873  0.00  0.00    +0.110 C 
ATOM     22  H   UNL     1      32.609  -2.159 -23.711  0.00  0.00    +0.149 HD
ENDBRANCH  17  20
ENDBRANCH  14  17
ENDBRANCH   4  11
BRANCH   1  24
ATOM     23  C   UNL     1      34.844  -9.871 -24.731  0.00  0.00    -0.040 C 
ATOM     24  C   UNL     1      33.828 -10.902 -25.244  0.00  0.00    +0.053 C 
ATOM     25  C   UNL     1      35.670  -9.520 -25.964  0.00  0.00    -0.019 C 
ATOM     26  C   UNL     1      34.467 -11.527 -26.494  0.00  0.00    +0.017 C 
ATOM     27  C   UNL     1      35.840 -10.873 -26.635  0.00  0.00    -0.000 C 
BRANCH  23  28
ATOM     28  N   UNL     1      34.208  -8.699 -24.147  0.00  0.00    +0.386 N 
ATOM     29  C   UNL     1      34.152  -7.611 -25.122  0.00  0.00    -0.101 C 
ATOM     30  C   UNL     1      34.925  -8.275 -22.946  0.00  0.00    -0.101 C 
ATOM     31  H   UNL     1      33.253  -8.945 -23.883  0.00  0.00    -0.080 HD
ENDBRANCH  23  28
ENDBRANCH   1  24
BRANCH   6  35
ATOM     32  F   UNL     1      32.638 -14.692 -23.477  0.00  0.00    -0.166 F 
ATOM     33  F   UNL     1      34.575 -14.123 -22.667  0.00  0.00    -0.166 F 
ATOM     34  F   UNL     1      33.045 -14.921 -21.353  0.00  0.00    -0.166 F 
ATOM     35  C   UNL     1      33.231 -14.074 -22.411  0.00  0.00    +0.424 C 
ENDBRANCH   6  35
TORSDOF 6
ENDMDL
MODEL 7
REMARK VINA RESULT:      -6.4      9.767     13.363
REMARK  Name = 25920890
REMARK  6 active torsions:
REMARK  status: ('A' for Active; 'I' for Inactive)
REMARK    1  A    between atoms: N_1  and  C_24
REMARK    2  A    between atoms: N_4  and  C_11
REMARK    3  A    between atoms: C_6  and  C_35
REMARK    4  A    between atoms: C_14  and  S_17
REMARK    5  A    between atoms: S_17  and  N_20
REMARK    6  A    between atoms: C_23  and  N_28
REMARK                            x       y       z     vdW  Elec       q    Type
REMARK                         _______ _______ _______ _____ _____    ______ ____
ROOT
ATOM      1  N   UNL     1      34.069 -23.223 -14.133  0.00  0.00    -0.311 N 
ATOM      2  N   UNL     1      35.706 -22.723 -15.729  0.00  0.00    -0.322 NA
ATOM      3  N   UNL     1      37.994 -23.377 -15.345  0.00  0.00    -0.170 NA
ATOM      4  N   UNL     1      37.378 -22.245 -17.306  0.00  0.00    -0.247 N 
ATOM      5  C   UNL     1      35.388 -23.275 -14.540  0.00  0.00    +0.198 C 
ATOM      6  C   UNL     1      36.304 -23.887 -13.709  0.00  0.00    +0.136 C 
ATOM      7  C   UNL     1      37.605 -23.909 -14.167  0.00  0.00    +0.119 C 
ATOM      8  C   UNL     1      37.008 -22.809 -16.065  0.00  0.00    +0.150 C 
ATOM      9  H   UNL     1      33.832 -23.624 -13.265  0.00  0.00    +0.149 HD
ATOM     10  H   UNL     1      38.337 -22.332 -17.510  0.00  0.00    +0.165 HD
ENDROOT
BRANCH   4  11
ATOM     11  C   UNL     1      36.644 -21.582 -18.307  0.00  0.00    +0.058 C 
ATOM     12  C   UNL     1      35.377 -22.042 -18.665  0.00  0.00    +0.017 C 
ATOM     13  C   UNL     1      37.184 -20.462 -18.941  0.00  0.00    +0.017 C 
ATOM     14  C   UNL     1      35.190 -20.267 -20.291  0.00  0.00    +0.122 C 
ATOM     15  C   UNL     1      34.650 -21.385 -19.657  0.00  0.00    +0.021 C 
ATOM     16  C   UNL     1      36.456 -19.805 -19.933  0.00  0.00    +0.021 C 
BRANCH  14  17
ATOM     17  S   UNL     1      34.279 -19.443 -21.533  0.00  0.00    +0.060 S 
ATOM     18  O   UNL     1      34.924 -19.675 -22.819  0.00  0.00    -0.153 OA
ATOM     19  O   UNL     1      32.877 -19.796 -21.365  0.00  0.00    -0.153 OA
BRANCH  17  20
ATOM     20  N   UNL     1      34.482 -17.800 -21.109  0.00  0.00    -0.178 NA
ATOM     21  C   UNL     1      34.980 -16.841 -22.106  0.00  0.00    +0.110 C 
ATOM     22  H   UNL     1      35.134 -17.775 -20.326  0.00  0.00    +0.149 HD
ENDBRANCH  17  20
ENDBRANCH  14  17
ENDBRANCH   4  11
BRANCH   1  24
ATOM     23  C   UNL     1      32.514 -23.585 -15.988  0.00  0.00    -0.040 C 
ATOM     24  C   UNL     1      33.018 -22.610 -14.913  0.00  0.00    +0.053 C 
ATOM     25  C   UNL     1      31.015 -23.312 -16.062  0.00  0.00    -0.019 C 
ATOM     26  C   UNL     1      31.797 -22.297 -14.034  0.00  0.00    +0.017 C 
ATOM     27  C   UNL     1      30.648 -23.128 -14.599  0.00  0.00    -0.000 C 
BRANCH  23  28
ATOM     28  N   UNL     1      33.170 -23.391 -17.273  0.00  0.00    +0.386 N 
ATOM     29  C   UNL     1      32.368 -22.516 -18.127  0.00  0.00    -0.101 C 
ATOM     30  C   UNL     1      33.399 -24.677 -17.928  0.00  0.00    -0.101 C 
ATOM     31  H   UNL     1      34.074 -22.945 -17.112  0.00  0.00    -0.080 HD
ENDBRANCH  23  28
ENDBRANCH   1  24
BRANCH   6  35
ATOM     32  F   UNL     1      36.760 -25.542 -12.064  0.00  0.00    -0.166 F 
ATOM     33  F   UNL     1      36.026 -23.624 -11.347  0.00  0.00    -0.166 F 
ATOM     34  F   UNL     1      34.675 -24.993 -12.350  0.00  0.00    -0.166 F 
ATOM     35  C   UNL     1      35.948 -24.495 -12.400  0.00  0.00    +0.424 C 
ENDBRANCH   6  35
TORSDOF 6
ENDMDL
MODEL 8
REMARK VINA RESULT:      -6.1     10.505     13.631
REMARK  Name = 25920890
REMARK  6 active torsions:
REMARK  status: ('A' for Active; 'I' for Inactive)
REMARK    1  A    between atoms: N_1  and  C_24
REMARK    2  A    between atoms: N_4  and  C_11
REMARK    3  A    between atoms: C_6  and  C_35
REMARK    4  A    between atoms: C_14  and  S_17
REMARK    5  A    between atoms: S_17  and  N_20
REMARK    6  A    between atoms: C_23  and  N_28
REMARK                            x       y       z     vdW  Elec       q    Type
REMARK                         _______ _______ _______ _____ _____    ______ ____
ROOT
ATOM      1  N   UNL     1      35.467 -22.782 -16.526  0.00  0.00    -0.311 N 
ATOM      2  N   UNL     1      33.780 -23.385 -15.020  0.00  0.00    -0.322 NA
ATOM      3  N   UNL     1      34.365 -24.197 -12.827  0.00  0.00    -0.170 NA
ATOM      4  N   UNL     1      32.120 -23.997 -13.478  0.00  0.00    -0.247 N 
ATOM      5  C   UNL     1      35.097 -23.257 -15.284  0.00  0.00    +0.198 C 
ATOM      6  C   UNL     1      36.093 -23.575 -14.383  0.00  0.00    +0.136 C 
ATOM      7  C   UNL     1      35.664 -24.044 -13.159  0.00  0.00    +0.119 C 
ATOM      8  C   UNL     1      33.489 -23.853 -13.791  0.00  0.00    +0.150 C 
ATOM      9  H   UNL     1      36.427 -22.688 -16.723  0.00  0.00    +0.149 HD
ATOM     10  H   UNL     1      31.955 -24.340 -12.570  0.00  0.00    +0.165 HD
ENDROOT
BRANCH   4  11
ATOM     11  C   UNL     1      30.945 -23.746 -14.211  0.00  0.00    +0.058 C 
ATOM     12  C   UNL     1      30.103 -24.801 -14.565  0.00  0.00    +0.017 C 
ATOM     13  C   UNL     1      30.620 -22.440 -14.582  0.00  0.00    +0.017 C 
ATOM     14  C   UNL     1      28.615 -23.247 -15.662  0.00  0.00    +0.122 C 
ATOM     15  C   UNL     1      28.939 -24.551 -15.291  0.00  0.00    +0.021 C 
ATOM     16  C   UNL     1      29.455 -22.192 -15.307  0.00  0.00    +0.021 C 
BRANCH  14  17
ATOM     17  S   UNL     1      27.157 -22.934 -16.570  0.00  0.00    +0.060 S 
ATOM     18  O   UNL     1      27.055 -23.913 -17.646  0.00  0.00    -0.153 OA
ATOM     19  O   UNL     1      26.061 -22.802 -15.621  0.00  0.00    -0.153 OA
BRANCH  17  20
ATOM     20  N   UNL     1      27.472 -21.400 -17.256  0.00  0.00    -0.178 NA
ATOM     21  C   UNL     1      26.387 -20.652 -17.908  0.00  0.00    +0.110 C 
ATOM     22  H   UNL     1      28.200 -21.535 -17.957  0.00  0.00    +0.149 HD
ENDBRANCH  17  20
ENDBRANCH  14  17
ENDBRANCH   4  11
BRANCH   1  24
ATOM     23  C   UNL     1      35.232 -22.256 -18.905  0.00  0.00    -0.040 C 
ATOM     24  C   UNL     1      34.519 -22.416 -17.554  0.00  0.00    +0.053 C 
ATOM     25  C   UNL     1      34.226 -22.790 -19.920  0.00  0.00    -0.019 C 
ATOM     26  C   UNL     1      33.482 -23.530 -17.762  0.00  0.00    +0.017 C 
ATOM     27  C   UNL     1      33.658 -24.004 -19.203  0.00  0.00    -0.000 C 
BRANCH  23  28
ATOM     28  N   UNL     1      35.608 -20.878 -19.181  0.00  0.00    +0.386 N 
ATOM     29  C   UNL     1      34.756 -20.317 -20.229  0.00  0.00    -0.101 C 
ATOM     30  C   UNL     1      37.015 -20.801 -19.568  0.00  0.00    -0.101 C 
ATOM     31  H   UNL     1      35.477 -20.329 -18.331  0.00  0.00    -0.080 HD
ENDBRANCH  23  28
ENDBRANCH   1  24
BRANCH   6  35
ATOM     32  F   UNL     1      38.320 -23.485 -13.553  0.00  0.00    -0.166 F 
ATOM     33  F   UNL     1      38.038 -24.402 -15.505  0.00  0.00    -0.166 F 
ATOM     34  F   UNL     1      37.869 -22.250 -15.286  0.00  0.00    -0.166 F 
ATOM     35  C   UNL     1      37.543 -23.431 -14.677  0.00  0.00    +0.424 C 
ENDBRANCH   6  35
TORSDOF 6
ENDMDL
