MODEL 1
REMARK VINA RESULT:      -7.0      0.000      0.000
REMARK  Name = 4765
REMARK  2 active torsions:
REMARK  status: ('A' for Active; 'I' for Inactive)
REMARK    1  A    between atoms: C_1  and  S_7
REMARK    2  A    between atoms: C_6  and  O_11
REMARK                            x       y       z     vdW  Elec       q    Type
REMARK                         _______ _______ _______ _____ _____    ______ ____
ROOT
ATOM      1  C   UNL     1      34.521 -21.358 -19.568  0.00  0.00    +0.113 C 
ATOM      2  C   UNL     1      33.662 -20.498 -20.253  0.00  0.00    +0.022 C 
ATOM      3  C   UNL     1      35.901 -21.171 -19.644  0.00  0.00    +0.022 C 
ATOM      4  C   UNL     1      34.184 -19.452 -21.014  0.00  0.00    +0.038 C 
ATOM      5  C   UNL     1      36.423 -20.125 -20.404  0.00  0.00    +0.038 C 
ATOM      6  C   UNL     1      35.564 -19.266 -21.090  0.00  0.00    +0.134 C 
ENDROOT
BRANCH   1   7
ATOM      7  S   UNL     1      33.867 -22.668 -18.615  0.00  0.00    +0.042 S 
ATOM      8  O   UNL     1      33.948 -23.982 -19.584  0.00  0.00    -0.065 OA
ATOM      9  O   UNL     1      34.770 -22.907 -17.500  0.00  0.00    -0.065 OA
ATOM     10  O   UNL     1      32.464 -22.364 -18.384  0.00  0.00    -0.065 OA
ENDBRANCH   1   7
BRANCH   6  11
ATOM     11  O   UNL     1      36.072 -18.244 -21.832  0.00  0.00    -0.506 OA
ATOM     12  H   UNL     1      36.962 -18.275 -22.124  0.00  0.00    +0.292 HD
ENDBRANCH   6  11
TORSDOF 2
ENDMDL
MODEL 2
REMARK VINA RESULT:      -7.0      0.002      1.457
REMARK  Name = 4765
REMARK  2 active torsions:
REMARK  status: ('A' for Active; 'I' for Inactive)
REMARK    1  A    between atoms: C_1  and  S_7
REMARK    2  A    between atoms: C_6  and  O_11
REMARK                            x       y       z     vdW  Elec       q    Type
REMARK                         _______ _______ _______ _____ _____    ______ ____
ROOT
ATOM      1  C   UNL     1      34.519 -21.358 -19.569  0.00  0.00    +0.113 C 
ATOM      2  C   UNL     1      35.899 -21.171 -19.645  0.00  0.00    +0.022 C 
ATOM      3  C   UNL     1      33.660 -20.498 -20.254  0.00  0.00    +0.022 C 
ATOM      4  C   UNL     1      36.420 -20.124 -20.406  0.00  0.00    +0.038 C 
ATOM      5  C   UNL     1      34.181 -19.452 -21.015  0.00  0.00    +0.038 C 
ATOM      6  C   UNL     1      35.561 -19.265 -21.090  0.00  0.00    +0.134 C 
ENDROOT
BRANCH   1   7
ATOM      7  S   UNL     1      33.867 -22.668 -18.616  0.00  0.00    +0.042 S 
ATOM      8  O   UNL     1      33.947 -23.983 -19.584  0.00  0.00    -0.065 OA
ATOM      9  O   UNL     1      34.771 -22.906 -17.501  0.00  0.00    -0.065 OA
ATOM     10  O   UNL     1      32.464 -22.365 -18.382  0.00  0.00    -0.065 OA
ENDBRANCH   1   7
BRANCH   6  11
ATOM     11  O   UNL     1      36.071 -18.244 -21.833  0.00  0.00    -0.506 OA
ATOM     12  H   UNL     1      35.660 -18.001 -22.639  0.00  0.00    +0.292 HD
ENDBRANCH   6  11
TORSDOF 2
ENDMDL
MODEL 3
REMARK VINA RESULT:      -7.0      7.278      8.231
REMARK  Name = 4765
REMARK  2 active torsions:
REMARK  status: ('A' for Active; 'I' for Inactive)
REMARK    1  A    between atoms: C_1  and  S_7
REMARK    2  A    between atoms: C_6  and  O_11
REMARK                            x       y       z     vdW  Elec       q    Type
REMARK                         _______ _______ _______ _____ _____    ______ ____
ROOT
ATOM      1  C   UNL     1      29.280 -23.610 -15.476  0.00  0.00    +0.113 C 
ATOM      2  C   UNL     1      30.199 -22.754 -14.870  0.00  0.00    +0.022 C 
ATOM      3  C   UNL     1      29.392 -24.990 -15.300  0.00  0.00    +0.022 C 
ATOM      4  C   UNL     1      31.229 -23.277 -14.087  0.00  0.00    +0.038 C 
ATOM      5  C   UNL     1      30.420 -25.513 -14.518  0.00  0.00    +0.038 C 
ATOM      6  C   UNL     1      31.339 -24.656 -13.911  0.00  0.00    +0.134 C 
ENDROOT
BRANCH   1   7
ATOM      7  S   UNL     1      27.992 -22.955 -16.457  0.00  0.00    +0.042 S 
ATOM      8  O   UNL     1      27.615 -24.140 -17.516  0.00  0.00    -0.065 OA
ATOM      9  O   UNL     1      26.830 -22.763 -15.603  0.00  0.00    -0.065 OA
ATOM     10  O   UNL     1      28.555 -21.842 -17.206  0.00  0.00    -0.065 OA
ENDBRANCH   1   7
BRANCH   6  11
ATOM     11  O   UNL     1      32.344 -25.166 -13.147  0.00  0.00    -0.506 OA
ATOM     12  H   UNL     1      32.174 -25.883 -12.568  0.00  0.00    +0.292 HD
ENDBRANCH   6  11
TORSDOF 2
ENDMDL
MODEL 4
REMARK VINA RESULT:      -6.6      2.105      4.689
REMARK  Name = 4765
REMARK  2 active torsions:
REMARK  status: ('A' for Active; 'I' for Inactive)
REMARK    1  A    between atoms: C_1  and  S_7
REMARK    2  A    between atoms: C_6  and  O_11
REMARK                            x       y       z     vdW  Elec       q    Type
REMARK                         _______ _______ _______ _____ _____    ______ ____
ROOT
ATOM      1  C   UNL     1      34.974 -19.572 -20.997  0.00  0.00    +0.113 C 
ATOM      2  C   UNL     1      33.580 -19.511 -20.963  0.00  0.00    +0.022 C 
ATOM      3  C   UNL     1      35.646 -20.570 -20.293  0.00  0.00    +0.022 C 
ATOM      4  C   UNL     1      32.860 -20.450 -20.223  0.00  0.00    +0.038 C 
ATOM      5  C   UNL     1      34.926 -21.509 -19.554  0.00  0.00    +0.038 C 
ATOM      6  C   UNL     1      33.533 -21.448 -19.519  0.00  0.00    +0.134 C 
ENDROOT
BRANCH   1   7
ATOM      7  S   UNL     1      35.875 -18.396 -21.922  0.00  0.00    +0.042 S 
ATOM      8  O   UNL     1      35.498 -18.699 -23.483  0.00  0.00    -0.065 OA
ATOM      9  O   UNL     1      35.349 -17.077 -21.607  0.00  0.00    -0.065 OA
ATOM     10  O   UNL     1      37.284 -18.698 -21.732  0.00  0.00    -0.065 OA
ENDBRANCH   1   7
BRANCH   6  11
ATOM     11  O   UNL     1      32.829 -22.364 -18.799  0.00  0.00    -0.506 OA
ATOM     12  H   UNL     1      31.995 -22.136 -18.438  0.00  0.00    +0.292 HD
ENDBRANCH   6  11
TORSDOF 2
ENDMDL
MODEL 5
REMARK VINA RESULT:      -6.6      2.105      4.907
REMARK  Name = 4765
REMARK  2 active torsions:
REMARK  status: ('A' for Active; 'I' for Inactive)
REMARK    1  A    between atoms: C_1  and  S_7
REMARK    2  A    between atoms: C_6  and  O_11
REMARK                            x       y       z     vdW  Elec       q    Type
REMARK                         _______ _______ _______ _____ _____    ______ ____
ROOT
ATOM      1  C   UNL     1      34.972 -19.569 -20.995  0.00  0.00    +0.113 C 
ATOM      2  C   UNL     1      35.645 -20.568 -20.291  0.00  0.00    +0.022 C 
ATOM      3  C   UNL     1      33.579 -19.509 -20.960  0.00  0.00    +0.022 C 
ATOM      4  C   UNL     1      34.924 -21.507 -19.554  0.00  0.00    +0.038 C 
ATOM      5  C   UNL     1      32.858 -20.448 -20.223  0.00  0.00    +0.038 C 
ATOM      6  C   UNL     1      33.531 -21.448 -19.519  0.00  0.00    +0.134 C 
ENDROOT
BRANCH   1   7
ATOM      7  S   UNL     1      35.874 -18.393 -21.919  0.00  0.00    +0.042 S 
ATOM      8  O   UNL     1      35.498 -18.695 -23.480  0.00  0.00    -0.065 OA
ATOM      9  O   UNL     1      35.349 -17.074 -21.603  0.00  0.00    -0.065 OA
ATOM     10  O   UNL     1      37.284 -18.696 -21.728  0.00  0.00    -0.065 OA
ENDBRANCH   1   7
BRANCH   6  11
ATOM     11  O   UNL     1      32.829 -22.364 -18.799  0.00  0.00    -0.506 OA
ATOM     12  H   UNL     1      33.069 -22.547 -17.912  0.00  0.00    +0.292 HD
ENDBRANCH   6  11
TORSDOF 2
ENDMDL
MODEL 6
REMARK VINA RESULT:      -6.5      4.484      5.774
REMARK  Name = 4765
REMARK  2 active torsions:
REMARK  status: ('A' for Active; 'I' for Inactive)
REMARK    1  A    between atoms: C_1  and  S_7
REMARK    2  A    between atoms: C_6  and  O_11
REMARK                            x       y       z     vdW  Elec       q    Type
REMARK                         _______ _______ _______ _____ _____    ______ ____
ROOT
ATOM      1  C   UNL     1      34.790 -17.151 -22.862  0.00  0.00    +0.113 C 
ATOM      2  C   UNL     1      34.941 -17.903 -24.027  0.00  0.00    +0.022 C 
ATOM      3  C   UNL     1      34.240 -15.870 -22.925  0.00  0.00    +0.022 C 
ATOM      4  C   UNL     1      34.542 -17.373 -25.255  0.00  0.00    +0.038 C 
ATOM      5  C   UNL     1      33.842 -15.341 -24.151  0.00  0.00    +0.038 C 
ATOM      6  C   UNL     1      33.993 -16.092 -25.317  0.00  0.00    +0.134 C 
ENDROOT
BRANCH   1   7
ATOM      7  S   UNL     1      35.289 -17.814 -21.325  0.00  0.00    +0.042 S 
ATOM      8  O   UNL     1      34.125 -18.889 -20.924  0.00  0.00    -0.065 OA
ATOM      9  O   UNL     1      36.512 -18.573 -21.540  0.00  0.00    -0.065 OA
ATOM     10  O   UNL     1      35.250 -16.726 -20.362  0.00  0.00    -0.065 OA
ENDBRANCH   1   7
BRANCH   6  11
ATOM     11  O   UNL     1      33.604 -15.577 -26.515  0.00  0.00    -0.506 OA
ATOM     12  H   UNL     1      33.935 -14.747 -26.798  0.00  0.00    +0.292 HD
ENDBRANCH   6  11
TORSDOF 2
ENDMDL
MODEL 7
REMARK VINA RESULT:      -6.5      4.482      5.701
REMARK  Name = 4765
REMARK  2 active torsions:
REMARK  status: ('A' for Active; 'I' for Inactive)
REMARK    1  A    between atoms: C_1  and  S_7
REMARK    2  A    between atoms: C_6  and  O_11
REMARK                            x       y       z     vdW  Elec       q    Type
REMARK                         _______ _______ _______ _____ _____    ______ ____
ROOT
ATOM      1  C   UNL     1      34.791 -17.155 -22.864  0.00  0.00    +0.113 C 
ATOM      2  C   UNL     1      34.246 -15.873 -22.926  0.00  0.00    +0.022 C 
ATOM      3  C   UNL     1      34.937 -17.908 -24.030  0.00  0.00    +0.022 C 
ATOM      4  C   UNL     1      33.846 -15.343 -24.154  0.00  0.00    +0.038 C 
ATOM      5  C   UNL     1      34.538 -17.379 -25.257  0.00  0.00    +0.038 C 
ATOM      6  C   UNL     1      33.992 -16.096 -25.318  0.00  0.00    +0.134 C 
ENDROOT
BRANCH   1   7
ATOM      7  S   UNL     1      35.290 -17.818 -21.327  0.00  0.00    +0.042 S 
ATOM      8  O   UNL     1      34.125 -18.891 -20.925  0.00  0.00    -0.065 OA
ATOM      9  O   UNL     1      36.512 -18.578 -21.541  0.00  0.00    -0.065 OA
ATOM     10  O   UNL     1      35.252 -16.729 -20.364  0.00  0.00    -0.065 OA
ENDBRANCH   1   7
BRANCH   6  11
ATOM     11  O   UNL     1      33.603 -15.579 -26.516  0.00  0.00    -0.506 OA
ATOM     12  H   UNL     1      32.942 -14.916 -26.547  0.00  0.00    +0.292 HD
ENDBRANCH   6  11
TORSDOF 2
ENDMDL
MODEL 8
REMARK VINA RESULT:      -6.3      7.555      8.536
REMARK  Name = 4765
REMARK  2 active torsions:
REMARK  status: ('A' for Active; 'I' for Inactive)
REMARK    1  A    between atoms: C_1  and  S_7
REMARK    2  A    between atoms: C_6  and  O_11
REMARK                            x       y       z     vdW  Elec       q    Type
REMARK                         _______ _______ _______ _____ _____    ______ ____
ROOT
ATOM      1  C   UNL     1      37.338 -24.700 -13.210  0.00  0.00    +0.113 C 
ATOM      2  C   UNL     1      36.154 -24.679 -13.947  0.00  0.00    +0.022 C 
ATOM      3  C   UNL     1      38.339 -25.619 -13.525  0.00  0.00    +0.022 C 
ATOM      4  C   UNL     1      35.970 -25.578 -14.998  0.00  0.00    +0.038 C 
ATOM      5  C   UNL     1      38.155 -26.518 -14.575  0.00  0.00    +0.038 C 
ATOM      6  C   UNL     1      36.971 -26.497 -15.312  0.00  0.00    +0.134 C 
ENDROOT
BRANCH   1   7
ATOM      7  S   UNL     1      37.567 -23.575 -11.894  0.00  0.00    +0.042 S 
ATOM      8  O   UNL     1      36.937 -24.317 -10.582  0.00  0.00    -0.065 OA
ATOM      9  O   UNL     1      38.997 -23.441 -11.661  0.00  0.00    -0.065 OA
ATOM     10  O   UNL     1      36.751 -22.408 -12.188  0.00  0.00    -0.065 OA
ENDBRANCH   1   7
BRANCH   6  11
ATOM     11  O   UNL     1      36.791 -27.374 -16.338  0.00  0.00    -0.506 OA
ATOM     12  H   UNL     1      37.531 -27.700 -16.809  0.00  0.00    +0.292 HD
ENDBRANCH   6  11
TORSDOF 2
ENDMDL
MODEL 9
REMARK VINA RESULT:      -6.3      7.473      8.438
REMARK  Name = 4765
REMARK  2 active torsions:
REMARK  status: ('A' for Active; 'I' for Inactive)
REMARK    1  A    between atoms: C_1  and  S_7
REMARK    2  A    between atoms: C_6  and  O_11
REMARK                            x       y       z     vdW  Elec       q    Type
REMARK                         _______ _______ _______ _____ _____    ______ ____
ROOT
ATOM      1  C   UNL     1      37.625 -24.437 -13.038  0.00  0.00    +0.113 C 
ATOM      2  C   UNL     1      37.532 -23.948 -14.342  0.00  0.00    +0.022 C 
ATOM      3  C   UNL     1      38.627 -25.349 -12.705  0.00  0.00    +0.022 C 
ATOM      4  C   UNL     1      38.441 -24.373 -15.311  0.00  0.00    +0.038 C 
ATOM      5  C   UNL     1      39.535 -25.773 -13.675  0.00  0.00    +0.038 C 
ATOM      6  C   UNL     1      39.442 -25.285 -14.978  0.00  0.00    +0.134 C 
ENDROOT
BRANCH   1   7
ATOM      7  S   UNL     1      36.487 -23.906 -11.824  0.00  0.00    +0.042 S 
ATOM      8  O   UNL     1      36.114 -25.249 -10.970  0.00  0.00    -0.065 OA
ATOM      9  O   UNL     1      37.183 -23.006 -10.918  0.00  0.00    -0.065 OA
ATOM     10  O   UNL     1      35.290 -23.472 -12.527  0.00  0.00    -0.065 OA
ENDBRANCH   1   7
BRANCH   6  11
ATOM     11  O   UNL     1      40.329 -25.698 -15.925  0.00  0.00    -0.506 OA
ATOM     12  H   UNL     1      41.200 -25.937 -15.678  0.00  0.00    +0.292 HD
ENDBRANCH   6  11
TORSDOF 2
ENDMDL
