MODEL 1
REMARK VINA RESULT:     -10.5      0.000      0.000
REMARK  Name = 5639
REMARK  7 active torsions:
REMARK  status: ('A' for Active; 'I' for Inactive)
REMARK    1  A    between atoms: N_1  and  C_16
REMARK    2  A    between atoms: N_2  and  C_8
REMARK    3  A    between atoms: C_9  and  O_14
REMARK    4  A    between atoms: C_16  and  C_17
REMARK    5  A    between atoms: C_17  and  C_18
REMARK    6  A    between atoms: C_18  and  N_19
REMARK    7  A    between atoms: N_19  and  C_25
REMARK                            x       y       z     vdW  Elec       q    Type
REMARK                         _______ _______ _______ _____ _____    ______ ____
ROOT
ATOM      1  N   UNL     1      35.180 -20.941 -20.418  0.00  0.00    +0.389 N 
ATOM      2  N   UNL     1      34.879 -18.202 -21.171  0.00  0.00    -0.309 N 
ATOM      3  C   UNL     1      36.273 -19.985 -20.199  0.00  0.00    -0.055 C 
ATOM      4  C   UNL     1      33.887 -20.265 -20.259  0.00  0.00    -0.055 C 
ATOM      5  C   UNL     1      36.202 -18.830 -21.202  0.00  0.00    +0.068 C 
ATOM      6  C   UNL     1      33.736 -19.121 -21.263  0.00  0.00    +0.068 C 
ATOM      7  H   UNL     1      35.247 -21.305 -21.368  0.00  0.00    -0.080 HD
ENDROOT
BRANCH   2   8
ATOM      8  C   UNL     1      34.715 -16.901 -21.661  0.00  0.00    +0.082 C 
ATOM      9  C   UNL     1      34.873 -16.601 -23.030  0.00  0.00    +0.152 C 
ATOM     10  C   UNL     1      34.384 -15.845 -20.788  0.00  0.00    +0.018 C 
ATOM     11  C   UNL     1      34.707 -15.300 -23.505  0.00  0.00    +0.038 C 
ATOM     12  C   UNL     1      34.218 -14.544 -21.263  0.00  0.00    +0.001 C 
ATOM     13  C   UNL     1      34.379 -14.272 -22.621  0.00  0.00    +0.003 C 
BRANCH   9  14
ATOM     14  O   UNL     1      35.193 -17.593 -23.910  0.00  0.00    -0.470 OA
ATOM     15  C   UNL     1      34.373 -17.717 -25.070  0.00  0.00    +0.253 C 
ENDBRANCH   9  14
ENDBRANCH   2   8
BRANCH   1  16
ATOM     16  C   UNL     1      35.290 -22.065 -19.489  0.00  0.00    -0.075 C 
BRANCH  16  17
ATOM     17  C   UNL     1      33.901 -22.624 -19.168  0.00  0.00    -0.002 C 
BRANCH  17  18
ATOM     18  C   UNL     1      33.760 -23.032 -17.704  0.00  0.00    +0.086 C 
BRANCH  18  19
ATOM     19  N   UNL     1      34.953 -22.730 -16.970  0.00  0.00    -0.321 N 
ATOM     20  H   UNL     1      35.664 -22.218 -17.418  0.00  0.00    +0.148 HD
BRANCH  19  25
ATOM     21  O   UNL     1      37.719 -23.386 -13.151  0.00  0.00    -0.252 OA
ATOM     22  O   UNL     1      33.191 -24.450 -13.003  0.00  0.00    -0.269 OA
ATOM     23  N   UNL     1      36.396 -23.055 -15.033  0.00  0.00    -0.229 N 
ATOM     24  N   UNL     1      35.474 -23.948 -13.024  0.00  0.00    -0.208 N 
ATOM     25  C   UNL     1      35.149 -23.125 -15.664  0.00  0.00    +0.108 C 
ATOM     26  C   UNL     1      34.095 -23.594 -14.976  0.00  0.00    +0.088 C 
ATOM     27  C   UNL     1      36.615 -23.457 -13.700  0.00  0.00    +0.318 C 
ATOM     28  C   UNL     1      34.199 -24.041 -13.575  0.00  0.00    +0.259 C 
ATOM     29  C   UNL     1      37.534 -22.538 -15.799  0.00  0.00    +0.123 C 
ATOM     30  C   UNL     1      35.664 -24.374 -11.641  0.00  0.00    +0.125 C 
ENDBRANCH  19  25
ENDBRANCH  18  19
ENDBRANCH  17  18
ENDBRANCH  16  17
ENDBRANCH   1  16
TORSDOF 7
ENDMDL
MODEL 2
REMARK VINA RESULT:     -10.4      1.501      2.928
REMARK  Name = 5639
REMARK  7 active torsions:
REMARK  status: ('A' for Active; 'I' for Inactive)
REMARK    1  A    between atoms: N_1  and  C_16
REMARK    2  A    between atoms: N_2  and  C_8
REMARK    3  A    between atoms: C_9  and  O_14
REMARK    4  A    between atoms: C_16  and  C_17
REMARK    5  A    between atoms: C_17  and  C_18
REMARK    6  A    between atoms: C_18  and  N_19
REMARK    7  A    between atoms: N_19  and  C_25
REMARK                            x       y       z     vdW  Elec       q    Type
REMARK                         _______ _______ _______ _____ _____    ______ ____
ROOT
ATOM      1  N   UNL     1      34.841 -21.114 -19.416  0.00  0.00    +0.389 N 
ATOM      2  N   UNL     1      34.768 -19.360 -21.668  0.00  0.00    -0.309 N 
ATOM      3  C   UNL     1      33.608 -20.960 -20.199  0.00  0.00    -0.055 C 
ATOM      4  C   UNL     1      36.010 -20.985 -20.294  0.00  0.00    -0.055 C 
ATOM      5  C   UNL     1      33.556 -19.589 -20.877  0.00  0.00    +0.068 C 
ATOM      6  C   UNL     1      36.037 -19.615 -20.975  0.00  0.00    +0.068 C 
ATOM      7  H   UNL     1      34.876 -20.379 -18.710  0.00  0.00    -0.080 HD
ENDROOT
BRANCH   2   8
ATOM      8  C   UNL     1      34.760 -18.404 -22.692  0.00  0.00    +0.082 C 
ATOM      9  C   UNL     1      34.885 -17.026 -22.417  0.00  0.00    +0.152 C 
ATOM     10  C   UNL     1      34.627 -18.800 -24.037  0.00  0.00    +0.018 C 
ATOM     11  C   UNL     1      34.876 -16.085 -23.446  0.00  0.00    +0.038 C 
ATOM     12  C   UNL     1      34.619 -17.858 -25.067  0.00  0.00    +0.001 C 
ATOM     13  C   UNL     1      34.743 -16.500 -24.771  0.00  0.00    +0.003 C 
BRANCH   9  14
ATOM     14  O   UNL     1      35.016 -16.599 -21.128  0.00  0.00    -0.470 OA
ATOM     15  C   UNL     1      34.448 -15.332 -20.806  0.00  0.00    +0.253 C 
ENDBRANCH   9  14
ENDBRANCH   2   8
BRANCH   1  16
ATOM     16  C   UNL     1      34.854 -22.406 -18.730  0.00  0.00    -0.075 C 
BRANCH  16  17
ATOM     17  C   UNL     1      33.512 -22.650 -18.037  0.00  0.00    -0.002 C 
BRANCH  17  18
ATOM     18  C   UNL     1      33.646 -23.533 -16.798  0.00  0.00    +0.086 C 
BRANCH  18  19
ATOM     19  N   UNL     1      34.381 -22.862 -15.767  0.00  0.00    -0.321 N 
ATOM     20  H   UNL     1      34.150 -21.929 -15.557  0.00  0.00    +0.148 HD
BRANCH  19  25
ATOM     21  O   UNL     1      35.992 -25.370 -12.055  0.00  0.00    -0.252 OA
ATOM     22  O   UNL     1      38.913 -23.915 -15.374  0.00  0.00    -0.269 OA
ATOM     23  N   UNL     1      35.174 -24.146 -13.854  0.00  0.00    -0.229 N 
ATOM     24  N   UNL     1      37.495 -24.659 -13.670  0.00  0.00    -0.208 N 
ATOM     25  C   UNL     1      35.396 -23.466 -15.057  0.00  0.00    +0.108 C 
ATOM     26  C   UNL     1      36.645 -23.397 -15.546  0.00  0.00    +0.088 C 
ATOM     27  C   UNL     1      36.199 -24.768 -13.114  0.00  0.00    +0.318 C 
ATOM     28  C   UNL     1      37.798 -24.010 -14.864  0.00  0.00    +0.259 C 
ATOM     29  C   UNL     1      33.804 -24.214 -13.337  0.00  0.00    +0.123 C 
ATOM     30  C   UNL     1      38.582 -25.290 -12.930  0.00  0.00    +0.125 C 
ENDBRANCH  19  25
ENDBRANCH  18  19
ENDBRANCH  17  18
ENDBRANCH  16  17
ENDBRANCH   1  16
TORSDOF 7
ENDMDL
MODEL 3
REMARK VINA RESULT:     -10.4      1.405      2.466
REMARK  Name = 5639
REMARK  7 active torsions:
REMARK  status: ('A' for Active; 'I' for Inactive)
REMARK    1  A    between atoms: N_1  and  C_16
REMARK    2  A    between atoms: N_2  and  C_8
REMARK    3  A    between atoms: C_9  and  O_14
REMARK    4  A    between atoms: C_16  and  C_17
REMARK    5  A    between atoms: C_17  and  C_18
REMARK    6  A    between atoms: C_18  and  N_19
REMARK    7  A    between atoms: N_19  and  C_25
REMARK                            x       y       z     vdW  Elec       q    Type
REMARK                         _______ _______ _______ _____ _____    ______ ____
ROOT
ATOM      1  N   UNL     1      34.380 -21.469 -19.160  0.00  0.00    +0.389 N 
ATOM      2  N   UNL     1      34.580 -19.685 -21.382  0.00  0.00    -0.309 N 
ATOM      3  C   UNL     1      33.207 -21.190 -19.997  0.00  0.00    -0.055 C 
ATOM      4  C   UNL     1      35.597 -21.437 -19.979  0.00  0.00    -0.055 C 
ATOM      5  C   UNL     1      33.314 -19.811 -20.653  0.00  0.00    +0.068 C 
ATOM      6  C   UNL     1      35.785 -20.067 -20.634  0.00  0.00    +0.068 C 
ATOM      7  H   UNL     1      34.449 -20.749 -18.440  0.00  0.00    -0.080 HD
ENDROOT
BRANCH   2   8
ATOM      8  C   UNL     1      34.710 -18.719 -22.387  0.00  0.00    +0.082 C 
ATOM      9  C   UNL     1      34.946 -17.363 -22.083  0.00  0.00    +0.152 C 
ATOM     10  C   UNL     1      34.607 -19.083 -23.745  0.00  0.00    +0.018 C 
ATOM     11  C   UNL     1      35.074 -16.411 -23.094  0.00  0.00    +0.038 C 
ATOM     12  C   UNL     1      34.736 -18.131 -24.756  0.00  0.00    +0.001 C 
ATOM     13  C   UNL     1      34.969 -16.795 -24.431  0.00  0.00    +0.003 C 
BRANCH   9  14
ATOM     14  O   UNL     1      35.052 -16.967 -20.782  0.00  0.00    -0.470 OA
ATOM     15  C   UNL     1      34.592 -15.655 -20.465  0.00  0.00    +0.253 C 
ENDBRANCH   9  14
ENDBRANCH   2   8
BRANCH   1  16
ATOM     16  C   UNL     1      34.241 -22.765 -18.497  0.00  0.00    -0.075 C 
BRANCH  16  17
ATOM     17  C   UNL     1      33.012 -22.763 -17.585  0.00  0.00    -0.002 C 
BRANCH  17  18
ATOM     18  C   UNL     1      33.264 -23.486 -16.264  0.00  0.00    +0.086 C 
BRANCH  18  19
ATOM     19  N   UNL     1      34.158 -22.735 -15.431  0.00  0.00    -0.321 N 
ATOM     20  H   UNL     1      34.098 -21.753 -15.444  0.00  0.00    +0.148 HD
BRANCH  19  25
ATOM     21  O   UNL     1      38.634 -23.981 -14.393  0.00  0.00    -0.252 OA
ATOM     22  O   UNL     1      35.149 -25.049 -11.498  0.00  0.00    -0.269 OA
ATOM     23  N   UNL     1      36.459 -23.360 -14.930  0.00  0.00    -0.229 N 
ATOM     24  N   UNL     1      36.936 -24.552 -12.922  0.00  0.00    -0.208 N 
ATOM     25  C   UNL     1      35.096 -23.329 -14.614  0.00  0.00    +0.108 C 
ATOM     26  C   UNL     1      34.677 -23.897 -13.472  0.00  0.00    +0.088 C 
ATOM     27  C   UNL     1      37.432 -23.964 -14.108  0.00  0.00    +0.318 C 
ATOM     28  C   UNL     1      35.600 -24.556 -12.531  0.00  0.00    +0.259 C 
ATOM     29  C   UNL     1      36.897 -22.732 -16.179  0.00  0.00    +0.123 C 
ATOM     30  C   UNL     1      37.915 -25.189 -12.047  0.00  0.00    +0.125 C 
ENDBRANCH  19  25
ENDBRANCH  18  19
ENDBRANCH  17  18
ENDBRANCH  16  17
ENDBRANCH   1  16
TORSDOF 7
ENDMDL
MODEL 4
REMARK VINA RESULT:     -10.3      1.910      3.352
REMARK  Name = 5639
REMARK  7 active torsions:
REMARK  status: ('A' for Active; 'I' for Inactive)
REMARK    1  A    between atoms: N_1  and  C_16
REMARK    2  A    between atoms: N_2  and  C_8
REMARK    3  A    between atoms: C_9  and  O_14
REMARK    4  A    between atoms: C_16  and  C_17
REMARK    5  A    between atoms: C_17  and  C_18
REMARK    6  A    between atoms: C_18  and  N_19
REMARK    7  A    between atoms: N_19  and  C_25
REMARK                            x       y       z     vdW  Elec       q    Type
REMARK                         _______ _______ _______ _____ _____    ______ ____
ROOT
ATOM      1  N   UNL     1      35.704 -20.718 -19.337  0.00  0.00    +0.389 N 
ATOM      2  N   UNL     1      35.208 -19.156 -21.676  0.00  0.00    -0.309 N 
ATOM      3  C   UNL     1      34.455 -20.884 -20.090  0.00  0.00    -0.055 C 
ATOM      4  C   UNL     1      36.800 -20.387 -20.254  0.00  0.00    -0.055 C 
ATOM      5  C   UNL     1      34.089 -19.599 -20.839  0.00  0.00    +0.068 C 
ATOM      6  C   UNL     1      36.514 -19.087 -21.008  0.00  0.00    +0.068 C 
ATOM      7  H   UNL     1      35.588 -19.953 -18.672  0.00  0.00    -0.080 HD
ENDROOT
BRANCH   2   8
ATOM      8  C   UNL     1      34.972 -18.287 -22.748  0.00  0.00    +0.082 C 
ATOM      9  C   UNL     1      34.930 -16.889 -22.570  0.00  0.00    +0.152 C 
ATOM     10  C   UNL     1      34.768 -18.793 -24.047  0.00  0.00    +0.018 C 
ATOM     11  C   UNL     1      34.695 -16.033 -23.646  0.00  0.00    +0.038 C 
ATOM     12  C   UNL     1      34.533 -17.938 -25.124  0.00  0.00    +0.001 C 
ATOM     13  C   UNL     1      34.496 -16.558 -24.923  0.00  0.00    +0.003 C 
BRANCH   9  14
ATOM     14  O   UNL     1      35.123 -16.356 -21.329  0.00  0.00    -0.470 OA
ATOM     15  C   UNL     1      34.090 -15.516 -20.819  0.00  0.00    +0.253 C 
ENDBRANCH   9  14
ENDBRANCH   2   8
BRANCH   1  16
ATOM     16  C   UNL     1      36.013 -21.934 -18.584  0.00  0.00    -0.075 C 
BRANCH  16  17
ATOM     17  C   UNL     1      36.875 -21.596 -17.366  0.00  0.00    -0.002 C 
BRANCH  17  18
ATOM     18  C   UNL     1      36.274 -22.116 -16.062  0.00  0.00    +0.086 C 
BRANCH  18  19
ATOM     19  N   UNL     1      35.531 -23.322 -16.285  0.00  0.00    -0.321 N 
ATOM     20  H   UNL     1      35.964 -24.057 -16.774  0.00  0.00    +0.148 HD
BRANCH  19  25
ATOM     21  O   UNL     1      32.356 -24.819 -13.069  0.00  0.00    -0.252 OA
ATOM     22  O   UNL     1      30.950 -22.772 -17.006  0.00  0.00    -0.269 OA
ATOM     23  N   UNL     1      33.932 -24.100 -14.620  0.00  0.00    -0.229 N 
ATOM     24  N   UNL     1      31.598 -23.820 -15.018  0.00  0.00    -0.208 N 
ATOM     25  C   UNL     1      34.237 -23.495 -15.845  0.00  0.00    +0.108 C 
ATOM     26  C   UNL     1      33.234 -23.061 -16.626  0.00  0.00    +0.088 C 
ATOM     27  C   UNL     1      32.615 -24.288 -14.154  0.00  0.00    +0.318 C 
ATOM     28  C   UNL     1      31.817 -23.199 -16.245  0.00  0.00    +0.259 C 
ATOM     29  C   UNL     1      35.039 -24.564 -13.780  0.00  0.00    +0.123 C 
ATOM     30  C   UNL     1      30.221 -23.999 -14.569  0.00  0.00    +0.125 C 
ENDBRANCH  19  25
ENDBRANCH  18  19
ENDBRANCH  17  18
ENDBRANCH  16  17
ENDBRANCH   1  16
TORSDOF 7
ENDMDL
MODEL 5
REMARK VINA RESULT:     -10.2      1.772      2.604
REMARK  Name = 5639
REMARK  7 active torsions:
REMARK  status: ('A' for Active; 'I' for Inactive)
REMARK    1  A    between atoms: N_1  and  C_16
REMARK    2  A    between atoms: N_2  and  C_8
REMARK    3  A    between atoms: C_9  and  O_14
REMARK    4  A    between atoms: C_16  and  C_17
REMARK    5  A    between atoms: C_17  and  C_18
REMARK    6  A    between atoms: C_18  and  N_19
REMARK    7  A    between atoms: N_19  and  C_25
REMARK                            x       y       z     vdW  Elec       q    Type
REMARK                         _______ _______ _______ _____ _____    ______ ____
ROOT
ATOM      1  N   UNL     1      35.361 -21.001 -20.307  0.00  0.00    +0.389 N 
ATOM      2  N   UNL     1      34.984 -18.286 -21.110  0.00  0.00    -0.309 N 
ATOM      3  C   UNL     1      36.420 -20.007 -20.090  0.00  0.00    -0.055 C 
ATOM      4  C   UNL     1      34.045 -20.364 -20.176  0.00  0.00    -0.055 C 
ATOM      5  C   UNL     1      36.327 -18.872 -21.114  0.00  0.00    +0.068 C 
ATOM      6  C   UNL     1      33.873 -19.242 -21.202  0.00  0.00    +0.068 C 
ATOM      7  H   UNL     1      35.452 -21.379 -21.250  0.00  0.00    -0.080 HD
ENDROOT
BRANCH   2   8
ATOM      8  C   UNL     1      34.787 -16.998 -21.624  0.00  0.00    +0.082 C 
ATOM      9  C   UNL     1      34.852 -16.737 -23.008  0.00  0.00    +0.152 C 
ATOM     10  C   UNL     1      34.515 -15.919 -20.760  0.00  0.00    +0.018 C 
ATOM     11  C   UNL     1      34.653 -15.450 -23.507  0.00  0.00    +0.038 C 
ATOM     12  C   UNL     1      34.315 -14.631 -21.259  0.00  0.00    +0.001 C 
ATOM     13  C   UNL     1      34.384 -14.397 -22.632  0.00  0.00    +0.003 C 
BRANCH   9  14
ATOM     14  O   UNL     1      35.113 -17.753 -23.880  0.00  0.00    -0.470 OA
ATOM     15  C   UNL     1      34.523 -17.662 -25.175  0.00  0.00    +0.253 C 
ENDBRANCH   9  14
ENDBRANCH   2   8
BRANCH   1  16
ATOM     16  C   UNL     1      35.493 -22.106 -19.358  0.00  0.00    -0.075 C 
BRANCH  16  17
ATOM     17  C   UNL     1      36.455 -21.723 -18.231  0.00  0.00    -0.002 C 
BRANCH  17  18
ATOM     18  C   UNL     1      35.916 -22.094 -16.852  0.00  0.00    +0.086 C 
BRANCH  18  19
ATOM     19  N   UNL     1      35.150 -23.304 -16.908  0.00  0.00    -0.321 N 
ATOM     20  H   UNL     1      35.508 -24.063 -17.421  0.00  0.00    +0.148 HD
BRANCH  19  25
ATOM     21  O   UNL     1      32.469 -24.709 -13.234  0.00  0.00    -0.252 OA
ATOM     22  O   UNL     1      30.522 -22.683 -16.944  0.00  0.00    -0.269 OA
ATOM     23  N   UNL     1      33.806 -24.036 -15.012  0.00  0.00    -0.229 N 
ATOM     24  N   UNL     1      31.443 -23.719 -15.061  0.00  0.00    -0.208 N 
ATOM     25  C   UNL     1      33.933 -23.450 -16.277  0.00  0.00    +0.108 C 
ATOM     26  C   UNL     1      32.832 -23.008 -16.906  0.00  0.00    +0.088 C 
ATOM     27  C   UNL     1      32.570 -24.195 -14.352  0.00  0.00    +0.318 C 
ATOM     28  C   UNL     1      31.486 -23.117 -16.316  0.00  0.00    +0.259 C 
ATOM     29  C   UNL     1      35.019 -24.509 -14.340  0.00  0.00    +0.123 C 
ATOM     30  C   UNL     1      30.147 -23.869 -14.409  0.00  0.00    +0.125 C 
ENDBRANCH  19  25
ENDBRANCH  18  19
ENDBRANCH  17  18
ENDBRANCH  16  17
ENDBRANCH   1  16
TORSDOF 7
ENDMDL
MODEL 6
REMARK VINA RESULT:      -9.9      1.892     10.258
REMARK  Name = 5639
REMARK  7 active torsions:
REMARK  status: ('A' for Active; 'I' for Inactive)
REMARK    1  A    between atoms: N_1  and  C_16
REMARK    2  A    between atoms: N_2  and  C_8
REMARK    3  A    between atoms: C_9  and  O_14
REMARK    4  A    between atoms: C_16  and  C_17
REMARK    5  A    between atoms: C_17  and  C_18
REMARK    6  A    between atoms: C_18  and  N_19
REMARK    7  A    between atoms: N_19  and  C_25
REMARK                            x       y       z     vdW  Elec       q    Type
REMARK                         _______ _______ _______ _____ _____    ______ ____
ROOT
ATOM      1  N   UNL     1      34.925 -22.177 -17.651  0.00  0.00    +0.389 N 
ATOM      2  N   UNL     1      36.333 -23.232 -15.401  0.00  0.00    -0.309 N 
ATOM      3  C   UNL     1      36.393 -22.169 -17.622  0.00  0.00    -0.055 C 
ATOM      4  C   UNL     1      34.418 -23.361 -16.947  0.00  0.00    -0.055 C 
ATOM      5  C   UNL     1      36.915 -22.137 -16.183  0.00  0.00    +0.068 C 
ATOM      6  C   UNL     1      34.873 -23.369 -15.486  0.00  0.00    +0.068 C 
ATOM      7  H   UNL     1      34.582 -21.341 -17.178  0.00  0.00    -0.080 HD
ENDROOT
BRANCH   2   8
ATOM      8  C   UNL     1      36.966 -23.660 -14.228  0.00  0.00    +0.082 C 
ATOM      9  C   UNL     1      37.641 -24.896 -14.161  0.00  0.00    +0.152 C 
ATOM     10  C   UNL     1      36.943 -22.856 -13.070  0.00  0.00    +0.018 C 
ATOM     11  C   UNL     1      38.267 -25.310 -12.985  0.00  0.00    +0.038 C 
ATOM     12  C   UNL     1      37.570 -23.270 -11.895  0.00  0.00    +0.001 C 
ATOM     13  C   UNL     1      38.232 -24.498 -11.852  0.00  0.00    +0.003 C 
BRANCH   9  14
ATOM     14  O   UNL     1      37.688 -25.705 -15.258  0.00  0.00    -0.470 OA
ATOM     15  C   UNL     1      36.790 -26.812 -15.283  0.00  0.00    +0.253 C 
ENDBRANCH   9  14
ENDBRANCH   2   8
BRANCH   1  16
ATOM     16  C   UNL     1      34.439 -22.153 -19.030  0.00  0.00    -0.075 C 
BRANCH  16  17
ATOM     17  C   UNL     1      35.350 -21.280 -19.896  0.00  0.00    -0.002 C 
BRANCH  17  18
ATOM     18  C   UNL     1      34.580 -20.192 -20.642  0.00  0.00    +0.086 C 
BRANCH  18  19
ATOM     19  N   UNL     1      35.465 -19.381 -21.423  0.00  0.00    -0.321 N 
ATOM     20  H   UNL     1      36.346 -19.746 -21.665  0.00  0.00    +0.148 HD
BRANCH  19  25
ATOM     21  O   UNL     1      34.192 -16.293 -24.816  0.00  0.00    -0.252 OA
ATOM     22  O   UNL     1      34.785 -14.871 -20.424  0.00  0.00    -0.269 OA
ATOM     23  N   UNL     1      34.816 -17.826 -23.183  0.00  0.00    -0.229 N 
ATOM     24  N   UNL     1      34.487 -15.526 -22.649  0.00  0.00    -0.208 N 
ATOM     25  C   UNL     1      35.136 -18.113 -21.851  0.00  0.00    +0.108 C 
ATOM     26  C   UNL     1      35.124 -17.119 -20.948  0.00  0.00    +0.088 C 
ATOM     27  C   UNL     1      34.479 -16.536 -23.639  0.00  0.00    +0.318 C 
ATOM     28  C   UNL     1      34.785 -15.730 -21.304  0.00  0.00    +0.259 C 
ATOM     29  C   UNL     1      34.831 -18.924 -24.153  0.00  0.00    +0.123 C 
ATOM     30  C   UNL     1      34.145 -14.176 -23.086  0.00  0.00    +0.125 C 
ENDBRANCH  19  25
ENDBRANCH  18  19
ENDBRANCH  17  18
ENDBRANCH  16  17
ENDBRANCH   1  16
TORSDOF 7
ENDMDL
MODEL 7
REMARK VINA RESULT:      -9.9      1.185      2.692
REMARK  Name = 5639
REMARK  7 active torsions:
REMARK  status: ('A' for Active; 'I' for Inactive)
REMARK    1  A    between atoms: N_1  and  C_16
REMARK    2  A    between atoms: N_2  and  C_8
REMARK    3  A    between atoms: C_9  and  O_14
REMARK    4  A    between atoms: C_16  and  C_17
REMARK    5  A    between atoms: C_17  and  C_18
REMARK    6  A    between atoms: C_18  and  N_19
REMARK    7  A    between atoms: N_19  and  C_25
REMARK                            x       y       z     vdW  Elec       q    Type
REMARK                         _______ _______ _______ _____ _____    ______ ____
ROOT
ATOM      1  N   UNL     1      35.406 -21.003 -20.132  0.00  0.00    +0.389 N 
ATOM      2  N   UNL     1      35.049 -18.741 -21.839  0.00  0.00    -0.309 N 
ATOM      3  C   UNL     1      36.464 -19.992 -20.259  0.00  0.00    -0.055 C 
ATOM      4  C   UNL     1      34.090 -20.365 -20.254  0.00  0.00    -0.055 C 
ATOM      5  C   UNL     1      36.391 -19.287 -21.616  0.00  0.00    +0.068 C 
ATOM      6  C   UNL     1      33.937 -19.672 -21.609  0.00  0.00    +0.068 C 
ATOM      7  H   UNL     1      35.512 -21.686 -20.882  0.00  0.00    -0.080 HD
ENDROOT
BRANCH   2   8
ATOM      8  C   UNL     1      34.864 -17.715 -22.774  0.00  0.00    +0.082 C 
ATOM      9  C   UNL     1      34.800 -16.362 -22.382  0.00  0.00    +0.152 C 
ATOM     10  C   UNL     1      34.735 -18.012 -24.145  0.00  0.00    +0.018 C 
ATOM     11  C   UNL     1      34.615 -15.349 -23.322  0.00  0.00    +0.038 C 
ATOM     12  C   UNL     1      34.550 -16.999 -25.086  0.00  0.00    +0.001 C 
ATOM     13  C   UNL     1      34.490 -15.667 -24.675  0.00  0.00    +0.003 C 
BRANCH   9  14
ATOM     14  O   UNL     1      34.920 -16.029 -21.064  0.00  0.00    -0.470 OA
ATOM     15  C   UNL     1      34.203 -14.880 -20.619  0.00  0.00    +0.253 C 
ENDBRANCH   9  14
ENDBRANCH   2   8
BRANCH   1  16
ATOM     16  C   UNL     1      35.520 -21.706 -18.855  0.00  0.00    -0.075 C 
BRANCH  16  17
ATOM     17  C   UNL     1      36.914 -21.497 -18.259  0.00  0.00    -0.002 C 
BRANCH  17  18
ATOM     18  C   UNL     1      36.924 -21.632 -16.737  0.00  0.00    +0.086 C 
BRANCH  18  19
ATOM     19  N   UNL     1      36.188 -22.788 -16.320  0.00  0.00    -0.321 N 
ATOM     20  H   UNL     1      35.747 -23.338 -17.006  0.00  0.00    +0.148 HD
BRANCH  19  25
ATOM     21  O   UNL     1      33.668 -24.438 -12.633  0.00  0.00    -0.252 OA
ATOM     22  O   UNL     1      38.164 -23.345 -12.126  0.00  0.00    -0.269 OA
ATOM     23  N   UNL     1      34.870 -23.633 -14.453  0.00  0.00    -0.229 N 
ATOM     24  N   UNL     1      35.899 -23.896 -12.319  0.00  0.00    -0.208 N 
ATOM     25  C   UNL     1      36.070 -23.162 -14.998  0.00  0.00    +0.108 C 
ATOM     26  C   UNL     1      37.154 -23.071 -14.211  0.00  0.00    +0.088 C 
ATOM     27  C   UNL     1      34.730 -24.019 -13.104  0.00  0.00    +0.318 C 
ATOM     28  C   UNL     1      37.131 -23.446 -12.786  0.00  0.00    +0.259 C 
ATOM     29  C   UNL     1      33.699 -23.730 -15.328  0.00  0.00    +0.123 C 
ATOM     30  C   UNL     1      35.792 -24.285 -10.916  0.00  0.00    +0.125 C 
ENDBRANCH  19  25
ENDBRANCH  18  19
ENDBRANCH  17  18
ENDBRANCH  16  17
ENDBRANCH   1  16
TORSDOF 7
ENDMDL
MODEL 8
REMARK VINA RESULT:      -9.9      3.360      6.223
REMARK  Name = 5639
REMARK  7 active torsions:
REMARK  status: ('A' for Active; 'I' for Inactive)
REMARK    1  A    between atoms: N_1  and  C_16
REMARK    2  A    between atoms: N_2  and  C_8
REMARK    3  A    between atoms: C_9  and  O_14
REMARK    4  A    between atoms: C_16  and  C_17
REMARK    5  A    between atoms: C_17  and  C_18
REMARK    6  A    between atoms: C_18  and  N_19
REMARK    7  A    between atoms: N_19  and  C_25
REMARK                            x       y       z     vdW  Elec       q    Type
REMARK                         _______ _______ _______ _____ _____    ______ ____
ROOT
ATOM      1  N   UNL     1      33.849 -16.193 -24.523  0.00  0.00    +0.389 N 
ATOM      2  N   UNL     1      33.824 -13.354 -24.217  0.00  0.00    -0.309 N 
ATOM      3  C   UNL     1      33.558 -15.324 -25.670  0.00  0.00    -0.055 C 
ATOM      4  C   UNL     1      34.809 -15.535 -23.629  0.00  0.00    -0.055 C 
ATOM      5  C   UNL     1      32.958 -13.992 -25.212  0.00  0.00    +0.068 C 
ATOM      6  C   UNL     1      34.251 -14.211 -23.103  0.00  0.00    +0.068 C 
ATOM      7  H   UNL     1      32.984 -16.363 -24.010  0.00  0.00    -0.080 HD
ENDROOT
BRANCH   2   8
ATOM      8  C   UNL     1      33.716 -11.978 -23.982  0.00  0.00    +0.082 C 
ATOM      9  C   UNL     1      32.715 -11.447 -23.143  0.00  0.00    +0.152 C 
ATOM     10  C   UNL     1      34.617 -11.078 -24.585  0.00  0.00    +0.018 C 
ATOM     11  C   UNL     1      32.619 -10.074 -22.918  0.00  0.00    +0.038 C 
ATOM     12  C   UNL     1      34.522  -9.704 -24.360  0.00  0.00    +0.001 C 
ATOM     13  C   UNL     1      33.522  -9.203 -23.526  0.00  0.00    +0.003 C 
BRANCH   9  14
ATOM     14  O   UNL     1      31.822 -12.283 -22.539  0.00  0.00    -0.470 OA
ATOM     15  C   UNL     1      31.787 -12.271 -21.114  0.00  0.00    +0.253 C 
ENDBRANCH   9  14
ENDBRANCH   2   8
BRANCH   1  16
ATOM     16  C   UNL     1      34.371 -17.482 -24.976  0.00  0.00    -0.075 C 
BRANCH  16  17
ATOM     17  C   UNL     1      35.280 -18.091 -23.906  0.00  0.00    -0.002 C 
BRANCH  17  18
ATOM     18  C   UNL     1      34.608 -19.236 -23.151  0.00  0.00    +0.086 C 
BRANCH  18  19
ATOM     19  N   UNL     1      34.492 -18.932 -21.756  0.00  0.00    -0.321 N 
ATOM     20  H   UNL     1      34.350 -17.996 -21.489  0.00  0.00    +0.148 HD
BRANCH  19  25
ATOM     21  O   UNL     1      36.958 -21.627 -18.703  0.00  0.00    -0.252 OA
ATOM     22  O   UNL     1      32.322 -21.965 -18.945  0.00  0.00    -0.269 OA
ATOM     23  N   UNL     1      35.783 -20.298 -20.206  0.00  0.00    -0.229 N 
ATOM     24  N   UNL     1      34.652 -21.848 -18.791  0.00  0.00    -0.208 N 
ATOM     25  C   UNL     1      34.568 -19.894 -20.771  0.00  0.00    +0.108 C 
ATOM     26  C   UNL     1      33.428 -20.459 -20.343  0.00  0.00    +0.088 C 
ATOM     27  C   UNL     1      35.881 -21.281 -19.200  0.00  0.00    +0.318 C 
ATOM     28  C   UNL     1      33.403 -21.496 -19.296  0.00  0.00    +0.259 C 
ATOM     29  C   UNL     1      37.016 -19.667 -20.684  0.00  0.00    +0.123 C 
ATOM     30  C   UNL     1      34.716 -22.871 -17.752  0.00  0.00    +0.125 C 
ENDBRANCH  19  25
ENDBRANCH  18  19
ENDBRANCH  17  18
ENDBRANCH  16  17
ENDBRANCH   1  16
TORSDOF 7
ENDMDL
MODEL 9
REMARK VINA RESULT:      -9.8      1.923     10.516
REMARK  Name = 5639
REMARK  7 active torsions:
REMARK  status: ('A' for Active; 'I' for Inactive)
REMARK    1  A    between atoms: N_1  and  C_16
REMARK    2  A    between atoms: N_2  and  C_8
REMARK    3  A    between atoms: C_9  and  O_14
REMARK    4  A    between atoms: C_16  and  C_17
REMARK    5  A    between atoms: C_17  and  C_18
REMARK    6  A    between atoms: C_18  and  N_19
REMARK    7  A    between atoms: N_19  and  C_25
REMARK                            x       y       z     vdW  Elec       q    Type
REMARK                         _______ _______ _______ _____ _____    ______ ____
ROOT
ATOM      1  N   UNL     1      35.290 -21.833 -17.974  0.00  0.00    +0.389 N 
ATOM      2  N   UNL     1      36.432 -23.045 -15.654  0.00  0.00    -0.309 N 
ATOM      3  C   UNL     1      36.748 -21.914 -17.819  0.00  0.00    -0.055 C 
ATOM      4  C   UNL     1      34.657 -23.007 -17.363  0.00  0.00    -0.055 C 
ATOM      5  C   UNL     1      37.141 -21.962 -16.340  0.00  0.00    +0.068 C 
ATOM      6  C   UNL     1      34.980 -23.092 -15.870  0.00  0.00    +0.068 C 
ATOM      7  H   UNL     1      34.955 -20.994 -17.501  0.00  0.00    -0.080 HD
ENDROOT
BRANCH   2   8
ATOM      8  C   UNL     1      36.933 -23.550 -14.448  0.00  0.00    +0.082 C 
ATOM      9  C   UNL     1      37.390 -24.879 -14.336  0.00  0.00    +0.152 C 
ATOM     10  C   UNL     1      36.994 -22.732 -13.302  0.00  0.00    +0.018 C 
ATOM     11  C   UNL     1      37.888 -25.369 -13.128  0.00  0.00    +0.038 C 
ATOM     12  C   UNL     1      37.492 -23.221 -12.094  0.00  0.00    +0.001 C 
ATOM     13  C   UNL     1      37.938 -24.540 -12.007  0.00  0.00    +0.003 C 
BRANCH   9  14
ATOM     14  O   UNL     1      37.350 -25.705 -15.420  0.00  0.00    -0.470 OA
ATOM     15  C   UNL     1      36.763 -26.991 -15.231  0.00  0.00    +0.253 C 
ENDBRANCH   9  14
ENDBRANCH   2   8
BRANCH   1  16
ATOM     16  C   UNL     1      34.930 -21.734 -19.388  0.00  0.00    -0.075 C 
BRANCH  16  17
ATOM     17  C   UNL     1      35.722 -20.608 -20.058  0.00  0.00    -0.002 C 
BRANCH  17  18
ATOM     18  C   UNL     1      34.844 -19.718 -20.935  0.00  0.00    +0.086 C 
BRANCH  18  19
ATOM     19  N   UNL     1      35.552 -18.540 -21.341  0.00  0.00    -0.321 N 
ATOM     20  H   UNL     1      36.415 -18.340 -20.913  0.00  0.00    +0.148 HD
BRANCH  19  25
ATOM     21  O   UNL     1      33.764 -14.342 -22.700  0.00  0.00    -0.252 OA
ATOM     22  O   UNL     1      34.550 -17.702 -25.824  0.00  0.00    -0.269 OA
ATOM     23  N   UNL     1      34.637 -16.381 -22.003  0.00  0.00    -0.229 N 
ATOM     24  N   UNL     1      34.121 -15.984 -24.297  0.00  0.00    -0.208 N 
ATOM     25  C   UNL     1      35.077 -17.676 -22.303  0.00  0.00    +0.108 C 
ATOM     26  C   UNL     1      35.039 -18.100 -23.577  0.00  0.00    +0.088 C 
ATOM     27  C   UNL     1      34.146 -15.485 -22.974  0.00  0.00    +0.318 C 
ATOM     28  C   UNL     1      34.549 -17.253 -24.679  0.00  0.00    +0.259 C 
ATOM     29  C   UNL     1      34.689 -15.936 -20.608  0.00  0.00    +0.123 C 
ATOM     30  C   UNL     1      33.617 -15.083 -25.328  0.00  0.00    +0.125 C 
ENDBRANCH  19  25
ENDBRANCH  18  19
ENDBRANCH  17  18
ENDBRANCH  16  17
ENDBRANCH   1  16
TORSDOF 7
ENDMDL
