MODEL 1
REMARK VINA RESULT:      -8.3      0.000      0.000
REMARK  Name = 2726
REMARK  4 active torsions:
REMARK  status: ('A' for Active; 'I' for Inactive)
REMARK    1  A    between atoms: N_3  and  C_16
REMARK    2  A    between atoms: C_16  and  C_17
REMARK    3  A    between atoms: C_17  and  C_18
REMARK    4  A    between atoms: C_18  and  N_19
REMARK                            x       y       z     vdW  Elec       q    Type
REMARK                         _______ _______ _______ _____ _____    ______ ____
ROOT
ATOM      1 CL   UNL     1      30.601 -10.641 -19.110  0.00  0.00    -0.082 Cl
ATOM      2  S   UNL     1      33.753 -10.605 -24.556  0.00  0.00    -0.084 S 
ATOM      3  N   UNL     1      32.786 -13.159 -23.071  0.00  0.00    -0.286 N 
ATOM      4  C   UNL     1      32.483 -11.927 -22.437  0.00  0.00    +0.058 C 
ATOM      5  C   UNL     1      33.060 -13.318 -24.453  0.00  0.00    +0.058 C 
ATOM      6  C   UNL     1      32.849 -10.700 -23.023  0.00  0.00    +0.043 C 
ATOM      7  C   UNL     1      33.482 -12.228 -25.240  0.00  0.00    +0.043 C 
ATOM      8  C   UNL     1      31.776 -11.868 -21.216  0.00  0.00    +0.027 C 
ATOM      9  C   UNL     1      32.890 -14.555 -25.112  0.00  0.00    +0.015 C 
ATOM     10  C   UNL     1      32.540  -9.481 -22.393  0.00  0.00    +0.009 C 
ATOM     11  C   UNL     1      33.745 -12.389 -26.611  0.00  0.00    +0.008 C 
ATOM     12  C   UNL     1      31.468 -10.654 -20.597  0.00  0.00    +0.059 C 
ATOM     13  C   UNL     1      33.148 -14.710 -26.477  0.00  0.00    +0.001 C 
ATOM     14  C   UNL     1      31.853  -9.459 -21.185  0.00  0.00    +0.012 C 
ATOM     15  C   UNL     1      33.579 -13.626 -27.227  0.00  0.00    +0.001 C 
ENDROOT
BRANCH   3  16
ATOM     16  C   UNL     1      32.741 -14.373 -22.246  0.00  0.00    +0.093 C 
BRANCH  16  17
ATOM     17  C   UNL     1      34.145 -14.767 -21.788  0.00  0.00    -0.001 C 
BRANCH  17  18
ATOM     18  C   UNL     1      34.276 -16.217 -21.313  0.00  0.00    -0.076 C 
BRANCH  18  19
ATOM     19  N   UNL     1      35.297 -16.945 -22.058  0.00  0.00    +0.384 N 
ATOM     20  C   UNL     1      34.818 -17.277 -23.400  0.00  0.00    -0.101 C 
ATOM     21  C   UNL     1      35.689 -18.161 -21.343  0.00  0.00    -0.101 C 
ATOM     22  H   UNL     1      36.116 -16.343 -22.145  0.00  0.00    -0.080 HD
ENDBRANCH  18  19
ENDBRANCH  17  18
ENDBRANCH  16  17
ENDBRANCH   3  16
TORSDOF 4
ENDMDL
MODEL 2
REMARK VINA RESULT:      -8.1      2.875      5.868
REMARK  Name = 2726
REMARK  4 active torsions:
REMARK  status: ('A' for Active; 'I' for Inactive)
REMARK    1  A    between atoms: N_3  and  C_16
REMARK    2  A    between atoms: C_16  and  C_17
REMARK    3  A    between atoms: C_17  and  C_18
REMARK    4  A    between atoms: C_18  and  N_19
REMARK                            x       y       z     vdW  Elec       q    Type
REMARK                         _______ _______ _______ _____ _____    ______ ____
ROOT
ATOM      1 CL   UNL     1      36.116 -18.933 -21.060  0.00  0.00    -0.082 Cl
ATOM      2  S   UNL     1      33.413 -16.053 -25.959  0.00  0.00    -0.084 S 
ATOM      3  N   UNL     1      34.003 -14.724 -23.212  0.00  0.00    -0.286 N 
ATOM      4  C   UNL     1      34.377 -16.087 -23.329  0.00  0.00    +0.058 C 
ATOM      5  C   UNL     1      33.822 -13.833 -24.299  0.00  0.00    +0.058 C 
ATOM      6  C   UNL     1      34.182 -16.793 -24.532  0.00  0.00    +0.043 C 
ATOM      7  C   UNL     1      33.572 -14.316 -25.599  0.00  0.00    +0.043 C 
ATOM      8  C   UNL     1      34.990 -16.788 -22.267  0.00  0.00    +0.027 C 
ATOM      9  C   UNL     1      33.917 -12.433 -24.143  0.00  0.00    +0.015 C 
ATOM     10  C   UNL     1      34.561 -18.142 -24.644  0.00  0.00    +0.009 C 
ATOM     11  C   UNL     1      33.400 -13.428 -26.676  0.00  0.00    +0.008 C 
ATOM     12  C   UNL     1      35.370 -18.128 -22.386  0.00  0.00    +0.059 C 
ATOM     13  C   UNL     1      33.751 -11.554 -25.217  0.00  0.00    +0.001 C 
ATOM     14  C   UNL     1      35.152 -18.807 -23.575  0.00  0.00    +0.012 C 
ATOM     15  C   UNL     1      33.490 -12.052 -26.485  0.00  0.00    +0.001 C 
ENDROOT
BRANCH   3  16
ATOM     16  C   UNL     1      33.863 -14.175 -21.857  0.00  0.00    +0.093 C 
BRANCH  16  17
ATOM     17  C   UNL     1      32.418 -13.756 -21.590  0.00  0.00    -0.001 C 
BRANCH  17  18
ATOM     18  C   UNL     1      32.238 -12.810 -20.400  0.00  0.00    -0.076 C 
BRANCH  18  19
ATOM     19  N   UNL     1      31.171 -11.841 -20.629  0.00  0.00    +0.384 N 
ATOM     20  C   UNL     1      31.283 -11.259 -21.967  0.00  0.00    -0.101 C 
ATOM     21  C   UNL     1      31.204 -10.788 -19.614  0.00  0.00    -0.101 C 
ATOM     22  H   UNL     1      30.279 -12.330 -20.562  0.00  0.00    -0.080 HD
ENDBRANCH  18  19
ENDBRANCH  17  18
ENDBRANCH  16  17
ENDBRANCH   3  16
TORSDOF 4
ENDMDL
MODEL 3
REMARK VINA RESULT:      -8.1      8.539     11.584
REMARK  Name = 2726
REMARK  4 active torsions:
REMARK  status: ('A' for Active; 'I' for Inactive)
REMARK    1  A    between atoms: N_3  and  C_16
REMARK    2  A    between atoms: C_16  and  C_17
REMARK    3  A    between atoms: C_17  and  C_18
REMARK    4  A    between atoms: C_18  and  N_19
REMARK                            x       y       z     vdW  Elec       q    Type
REMARK                         _______ _______ _______ _____ _____    ______ ____
ROOT
ATOM      1 CL   UNL     1      35.875 -23.961 -13.404  0.00  0.00    -0.082 Cl
ATOM      2  S   UNL     1      36.833 -21.349 -19.048  0.00  0.00    -0.084 S 
ATOM      3  N   UNL     1      34.122 -22.498 -18.051  0.00  0.00    -0.286 N 
ATOM      4  C   UNL     1      35.204 -22.597 -17.140  0.00  0.00    +0.058 C 
ATOM      5  C   UNL     1      34.041 -21.573 -19.122  0.00  0.00    +0.058 C 
ATOM      6  C   UNL     1      36.478 -22.091 -17.467  0.00  0.00    +0.043 C 
ATOM      7  C   UNL     1      35.199 -20.965 -19.645  0.00  0.00    +0.043 C 
ATOM      8  C   UNL     1      35.053 -23.169 -15.858  0.00  0.00    +0.027 C 
ATOM      9  C   UNL     1      32.806 -21.190 -19.687  0.00  0.00    +0.015 C 
ATOM     10  C   UNL     1      37.546 -22.186 -16.557  0.00  0.00    +0.009 C 
ATOM     11  C   UNL     1      35.113 -20.042 -20.703  0.00  0.00    +0.008 C 
ATOM     12  C   UNL     1      36.117 -23.256 -14.955  0.00  0.00    +0.059 C 
ATOM     13  C   UNL     1      32.723 -20.268 -20.734  0.00  0.00    +0.001 C 
ATOM     14  C   UNL     1      37.365 -22.766 -15.306  0.00  0.00    +0.012 C 
ATOM     15  C   UNL     1      33.879 -19.696 -21.245  0.00  0.00    +0.001 C 
ENDROOT
BRANCH   3  16
ATOM     16  C   UNL     1      32.965 -23.373 -17.823  0.00  0.00    +0.093 C 
BRANCH  16  17
ATOM     17  C   UNL     1      31.951 -22.699 -16.900  0.00  0.00    -0.001 C 
BRANCH  17  18
ATOM     18  C   UNL     1      31.357 -23.616 -15.827  0.00  0.00    -0.076 C 
BRANCH  18  19
ATOM     19  N   UNL     1      29.980 -23.990 -16.130  0.00  0.00    +0.384 N 
ATOM     20  C   UNL     1      29.187 -22.807 -16.466  0.00  0.00    -0.101 C 
ATOM     21  C   UNL     1      29.378 -24.701 -15.001  0.00  0.00    -0.101 C 
ATOM     22  H   UNL     1      29.990 -24.613 -16.937  0.00  0.00    -0.080 HD
ENDBRANCH  18  19
ENDBRANCH  17  18
ENDBRANCH  16  17
ENDBRANCH   3  16
TORSDOF 4
ENDMDL
MODEL 4
REMARK VINA RESULT:      -8.1      8.514     12.539
REMARK  Name = 2726
REMARK  4 active torsions:
REMARK  status: ('A' for Active; 'I' for Inactive)
REMARK    1  A    between atoms: N_3  and  C_16
REMARK    2  A    between atoms: C_16  and  C_17
REMARK    3  A    between atoms: C_17  and  C_18
REMARK    4  A    between atoms: C_18  and  N_19
REMARK                            x       y       z     vdW  Elec       q    Type
REMARK                         _______ _______ _______ _____ _____    ______ ____
ROOT
ATOM      1 CL   UNL     1      28.529 -22.515 -16.848  0.00  0.00    -0.082 Cl
ATOM      2  S   UNL     1      33.806 -24.113 -13.815  0.00  0.00    -0.084 S 
ATOM      3  N   UNL     1      33.659 -23.216 -16.787  0.00  0.00    -0.286 N 
ATOM      4  C   UNL     1      32.421 -23.265 -16.098  0.00  0.00    +0.058 C 
ATOM      5  C   UNL     1      34.930 -23.095 -16.171  0.00  0.00    +0.058 C 
ATOM      6  C   UNL     1      32.360 -23.635 -14.740  0.00  0.00    +0.043 C 
ATOM      7  C   UNL     1      35.118 -23.448 -14.819  0.00  0.00    +0.043 C 
ATOM      8  C   UNL     1      31.203 -22.916 -16.722  0.00  0.00    +0.027 C 
ATOM      9  C   UNL     1      36.051 -22.587 -16.862  0.00  0.00    +0.015 C 
ATOM     10  C   UNL     1      31.130 -23.676 -14.059  0.00  0.00    +0.009 C 
ATOM     11  C   UNL     1      36.379 -23.319 -14.211  0.00  0.00    +0.008 C 
ATOM     12  C   UNL     1      29.984 -22.954 -16.039  0.00  0.00    +0.059 C 
ATOM     13  C   UNL     1      37.302 -22.456 -16.251  0.00  0.00    +0.001 C 
ATOM     14  C   UNL     1      29.947 -23.337 -14.707  0.00  0.00    +0.012 C 
ATOM     15  C   UNL     1      37.466 -22.826 -14.924  0.00  0.00    +0.001 C 
ENDROOT
BRANCH   3  16
ATOM     16  C   UNL     1      33.616 -23.216 -18.255  0.00  0.00    +0.093 C 
BRANCH  16  17
ATOM     17  C   UNL     1      33.397 -21.801 -18.790  0.00  0.00    -0.001 C 
BRANCH  17  18
ATOM     18  C   UNL     1      34.502 -21.294 -19.720  0.00  0.00    -0.076 C 
BRANCH  18  19
ATOM     19  N   UNL     1      34.149 -20.025 -20.346  0.00  0.00    +0.384 N 
ATOM     20  C   UNL     1      32.718 -19.981 -20.650  0.00  0.00    -0.101 C 
ATOM     21  C   UNL     1      34.933 -19.813 -21.563  0.00  0.00    -0.101 C 
ATOM     22  H   UNL     1      34.364 -19.275 -19.688  0.00  0.00    -0.080 HD
ENDBRANCH  18  19
ENDBRANCH  17  18
ENDBRANCH  16  17
ENDBRANCH   3  16
TORSDOF 4
ENDMDL
MODEL 5
REMARK VINA RESULT:      -7.8      3.083      5.941
REMARK  Name = 2726
REMARK  4 active torsions:
REMARK  status: ('A' for Active; 'I' for Inactive)
REMARK    1  A    between atoms: N_3  and  C_16
REMARK    2  A    between atoms: C_16  and  C_17
REMARK    3  A    between atoms: C_17  and  C_18
REMARK    4  A    between atoms: C_18  and  N_19
REMARK                            x       y       z     vdW  Elec       q    Type
REMARK                         _______ _______ _______ _____ _____    ______ ____
ROOT
ATOM      1 CL   UNL     1      31.706 -13.418 -20.732  0.00  0.00    -0.082 Cl
ATOM      2  S   UNL     1      32.108  -7.156 -20.269  0.00  0.00    -0.084 S 
ATOM      3  N   UNL     1      32.210  -8.758 -22.930  0.00  0.00    -0.286 N 
ATOM      4  C   UNL     1      32.071  -9.533 -21.751  0.00  0.00    +0.058 C 
ATOM      5  C   UNL     1      31.865  -7.388 -23.050  0.00  0.00    +0.058 C 
ATOM      6  C   UNL     1      31.990  -8.920 -20.485  0.00  0.00    +0.043 C 
ATOM      7  C   UNL     1      31.762  -6.563 -21.913  0.00  0.00    +0.043 C 
ATOM      8  C   UNL     1      31.972 -10.941 -21.789  0.00  0.00    +0.027 C 
ATOM      9  C   UNL     1      31.573  -6.797 -24.299  0.00  0.00    +0.015 C 
ATOM     10  C   UNL     1      31.845  -9.693 -19.319  0.00  0.00    +0.009 C 
ATOM     11  C   UNL     1      31.412  -5.206 -22.037  0.00  0.00    +0.008 C 
ATOM     12  C   UNL     1      31.824 -11.704 -20.627  0.00  0.00    +0.059 C 
ATOM     13  C   UNL     1      31.220  -5.449 -24.417  0.00  0.00    +0.001 C 
ATOM     14  C   UNL     1      31.763 -11.079 -19.391  0.00  0.00    +0.012 C 
ATOM     15  C   UNL     1      31.142  -4.653 -23.284  0.00  0.00    +0.001 C 
ENDROOT
BRANCH   3  16
ATOM     16  C   UNL     1      32.680  -9.445 -24.140  0.00  0.00    +0.093 C 
BRANCH  16  17
ATOM     17  C   UNL     1      34.201  -9.593 -24.121  0.00  0.00    -0.001 C 
BRANCH  17  18
ATOM     18  C   UNL     1      34.726 -10.862 -24.798  0.00  0.00    -0.076 C 
BRANCH  18  19
ATOM     19  N   UNL     1      33.678 -11.861 -24.972  0.00  0.00    +0.384 N 
ATOM     20  C   UNL     1      33.876 -12.981 -24.051  0.00  0.00    -0.101 C 
ATOM     21  C   UNL     1      33.647 -12.342 -26.354  0.00  0.00    -0.101 C 
ATOM     22  H   UNL     1      32.782 -11.423 -24.761  0.00  0.00    -0.080 HD
ENDBRANCH  18  19
ENDBRANCH  17  18
ENDBRANCH  16  17
ENDBRANCH   3  16
TORSDOF 4
ENDMDL
MODEL 6
REMARK VINA RESULT:      -7.6      2.146      4.814
REMARK  Name = 2726
REMARK  4 active torsions:
REMARK  status: ('A' for Active; 'I' for Inactive)
REMARK    1  A    between atoms: N_3  and  C_16
REMARK    2  A    between atoms: C_16  and  C_17
REMARK    3  A    between atoms: C_17  and  C_18
REMARK    4  A    between atoms: C_18  and  N_19
REMARK                            x       y       z     vdW  Elec       q    Type
REMARK                         _______ _______ _______ _____ _____    ______ ____
ROOT
ATOM      1 CL   UNL     1      31.323  -9.145 -22.370  0.00  0.00    -0.082 Cl
ATOM      2  S   UNL     1      32.626 -14.933 -20.273  0.00  0.00    -0.084 S 
ATOM      3  N   UNL     1      32.956 -13.985 -23.214  0.00  0.00    -0.286 N 
ATOM      4  C   UNL     1      32.463 -13.014 -22.307  0.00  0.00    +0.058 C 
ATOM      5  C   UNL     1      33.704 -15.134 -22.851  0.00  0.00    +0.058 C 
ATOM      6  C   UNL     1      32.291 -13.316 -20.942  0.00  0.00    +0.043 C 
ATOM      7  C   UNL     1      33.656 -15.646 -21.539  0.00  0.00    +0.043 C 
ATOM      8  C   UNL     1      32.155 -11.698 -22.715  0.00  0.00    +0.027 C 
ATOM      9  C   UNL     1      34.553 -15.794 -23.765  0.00  0.00    +0.015 C 
ATOM     10  C   UNL     1      31.808 -12.346 -20.045  0.00  0.00    +0.009 C 
ATOM     11  C   UNL     1      34.405 -16.781 -21.182  0.00  0.00    +0.008 C 
ATOM     12  C   UNL     1      31.680 -10.736 -21.819  0.00  0.00    +0.059 C 
ATOM     13  C   UNL     1      35.300 -16.919 -23.405  0.00  0.00    +0.001 C 
ATOM     14  C   UNL     1      31.503 -11.062 -20.482  0.00  0.00    +0.012 C 
ATOM     15  C   UNL     1      35.223 -17.415 -22.112  0.00  0.00    +0.001 C 
ENDROOT
BRANCH   3  16
ATOM     16  C   UNL     1      32.738 -13.745 -24.647  0.00  0.00    +0.093 C 
BRANCH  16  17
ATOM     17  C   UNL     1      33.949 -13.051 -25.269  0.00  0.00    -0.001 C 
BRANCH  17  18
ATOM     18  C   UNL     1      33.794 -11.538 -25.446  0.00  0.00    -0.076 C 
BRANCH  18  19
ATOM     19  N   UNL     1      35.014 -10.819 -25.095  0.00  0.00    +0.384 N 
ATOM     20  C   UNL     1      34.711  -9.689 -24.216  0.00  0.00    -0.101 C 
ATOM     21  C   UNL     1      35.705 -10.355 -26.298  0.00  0.00    -0.101 C 
ATOM     22  H   UNL     1      35.629 -11.462 -24.595  0.00  0.00    -0.080 HD
ENDBRANCH  18  19
ENDBRANCH  17  18
ENDBRANCH  16  17
ENDBRANCH   3  16
TORSDOF 4
ENDMDL
MODEL 7
REMARK VINA RESULT:      -7.4     10.034     13.329
REMARK  Name = 2726
REMARK  4 active torsions:
REMARK  status: ('A' for Active; 'I' for Inactive)
REMARK    1  A    between atoms: N_3  and  C_16
REMARK    2  A    between atoms: C_16  and  C_17
REMARK    3  A    between atoms: C_17  and  C_18
REMARK    4  A    between atoms: C_18  and  N_19
REMARK                            x       y       z     vdW  Elec       q    Type
REMARK                         _______ _______ _______ _____ _____    ______ ____
ROOT
ATOM      1 CL   UNL     1      33.044 -21.337 -20.528  0.00  0.00    -0.082 Cl
ATOM      2  S   UNL     1      37.675 -22.240 -16.364  0.00  0.00    -0.084 S 
ATOM      3  N   UNL     1      34.849 -23.522 -16.194  0.00  0.00    -0.286 N 
ATOM      4  C   UNL     1      35.070 -22.667 -17.304  0.00  0.00    +0.058 C 
ATOM      5  C   UNL     1      35.865 -24.175 -15.453  0.00  0.00    +0.058 C 
ATOM      6  C   UNL     1      36.318 -22.045 -17.503  0.00  0.00    +0.043 C 
ATOM      7  C   UNL     1      37.193 -23.703 -15.469  0.00  0.00    +0.043 C 
ATOM      8  C   UNL     1      34.073 -22.427 -18.273  0.00  0.00    +0.027 C 
ATOM      9  C   UNL     1      35.610 -25.340 -14.699  0.00  0.00    +0.015 C 
ATOM     10  C   UNL     1      36.535 -21.204 -18.609  0.00  0.00    +0.009 C 
ATOM     11  C   UNL     1      38.199 -24.359 -14.739  0.00  0.00    +0.008 C 
ATOM     12  C   UNL     1      34.295 -21.593 -19.374  0.00  0.00    +0.059 C 
ATOM     13  C   UNL     1      36.614 -25.993 -13.978  0.00  0.00    +0.001 C 
ATOM     14  C   UNL     1      35.527 -20.979 -19.540  0.00  0.00    +0.012 C 
ATOM     15  C   UNL     1      37.910 -25.499 -13.996  0.00  0.00    +0.001 C 
ENDROOT
BRANCH   3  16
ATOM     16  C   UNL     1      33.455 -23.809 -15.830  0.00  0.00    +0.093 C 
BRANCH  16  17
ATOM     17  C   UNL     1      32.997 -22.902 -14.688  0.00  0.00    -0.001 C 
BRANCH  17  18
ATOM     18  C   UNL     1      31.677 -23.319 -14.034  0.00  0.00    -0.076 C 
BRANCH  18  19
ATOM     19  N   UNL     1      30.733 -23.860 -15.006  0.00  0.00    +0.384 N 
ATOM     20  C   UNL     1      29.660 -22.900 -15.270  0.00  0.00    -0.101 C 
ATOM     21  C   UNL     1      30.175 -25.127 -14.533  0.00  0.00    -0.101 C 
ATOM     22  H   UNL     1      31.236 -24.031 -15.876  0.00  0.00    -0.080 HD
ENDBRANCH  18  19
ENDBRANCH  17  18
ENDBRANCH  16  17
ENDBRANCH   3  16
TORSDOF 4
ENDMDL
MODEL 8
REMARK VINA RESULT:      -7.2      9.847     13.313
REMARK  Name = 2726
REMARK  4 active torsions:
REMARK  status: ('A' for Active; 'I' for Inactive)
REMARK    1  A    between atoms: N_3  and  C_16
REMARK    2  A    between atoms: C_16  and  C_17
REMARK    3  A    between atoms: C_17  and  C_18
REMARK    4  A    between atoms: C_18  and  N_19
REMARK                            x       y       z     vdW  Elec       q    Type
REMARK                         _______ _______ _______ _____ _____    ______ ____
ROOT
ATOM      1 CL   UNL     1      37.384 -19.981 -20.222  0.00  0.00    -0.082 Cl
ATOM      2  S   UNL     1      32.937 -23.387 -17.356  0.00  0.00    -0.084 S 
ATOM      3  N   UNL     1      35.806 -22.917 -16.259  0.00  0.00    -0.286 N 
ATOM      4  C   UNL     1      35.518 -22.309 -17.507  0.00  0.00    +0.058 C 
ATOM      5  C   UNL     1      34.838 -23.307 -15.300  0.00  0.00    +0.058 C 
ATOM      6  C   UNL     1      34.245 -22.431 -18.097  0.00  0.00    +0.043 C 
ATOM      7  C   UNL     1      33.497 -23.527 -15.670  0.00  0.00    +0.043 C 
ATOM      8  C   UNL     1      36.472 -21.531 -18.199  0.00  0.00    +0.027 C 
ATOM      9  C   UNL     1      35.158 -23.457 -13.933  0.00  0.00    +0.015 C 
ATOM     10  C   UNL     1      33.962 -21.820 -19.332  0.00  0.00    +0.009 C 
ATOM     11  C   UNL     1      32.539 -23.906 -14.714  0.00  0.00    +0.008 C 
ATOM     12  C   UNL     1      36.184 -20.922 -19.424  0.00  0.00    +0.059 C 
ATOM     13  C   UNL     1      34.201 -23.830 -12.985  0.00  0.00    +0.001 C 
ATOM     14  C   UNL     1      34.928 -21.070 -19.992  0.00  0.00    +0.012 C 
ATOM     15  C   UNL     1      32.890 -24.057 -13.376  0.00  0.00    +0.001 C 
ENDROOT
BRANCH   3  16
ATOM     16  C   UNL     1      37.220 -23.089 -15.902  0.00  0.00    +0.093 C 
BRANCH  16  17
ATOM     17  C   UNL     1      37.481 -24.509 -15.398  0.00  0.00    -0.001 C 
BRANCH  17  18
ATOM     18  C   UNL     1      38.766 -24.669 -14.581  0.00  0.00    -0.076 C 
BRANCH  18  19
ATOM     19  N   UNL     1      38.535 -25.392 -13.336  0.00  0.00    +0.384 N 
ATOM     20  C   UNL     1      37.432 -26.342 -13.489  0.00  0.00    -0.101 C 
ATOM     21  C   UNL     1      38.254 -24.461 -12.243  0.00  0.00    -0.101 C 
ATOM     22  H   UNL     1      39.382 -25.913 -13.109  0.00  0.00    -0.080 HD
ENDBRANCH  18  19
ENDBRANCH  17  18
ENDBRANCH  16  17
ENDBRANCH   3  16
TORSDOF 4
ENDMDL
MODEL 9
REMARK VINA RESULT:      -7.2      1.418      1.949
REMARK  Name = 2726
REMARK  4 active torsions:
REMARK  status: ('A' for Active; 'I' for Inactive)
REMARK    1  A    between atoms: N_3  and  C_16
REMARK    2  A    between atoms: C_16  and  C_17
REMARK    3  A    between atoms: C_17  and  C_18
REMARK    4  A    between atoms: C_18  and  N_19
REMARK                            x       y       z     vdW  Elec       q    Type
REMARK                         _______ _______ _______ _____ _____    ______ ____
ROOT
ATOM      1 CL   UNL     1      31.949  -7.861 -20.616  0.00  0.00    -0.082 Cl
ATOM      2  S   UNL     1      34.977 -10.403 -25.511  0.00  0.00    -0.084 S 
ATOM      3  N   UNL     1      33.032 -11.931 -23.628  0.00  0.00    -0.286 N 
ATOM      4  C   UNL     1      33.234 -10.561 -23.323  0.00  0.00    +0.058 C 
ATOM      5  C   UNL     1      33.252 -12.524 -24.897  0.00  0.00    +0.058 C 
ATOM      6  C   UNL     1      34.075  -9.756 -24.117  0.00  0.00    +0.043 C 
ATOM      7  C   UNL     1      34.094 -11.914 -25.848  0.00  0.00    +0.043 C 
ATOM      8  C   UNL     1      32.582  -9.931 -22.241  0.00  0.00    +0.027 C 
ATOM      9  C   UNL     1      32.616 -13.724 -25.282  0.00  0.00    +0.015 C 
ATOM     10  C   UNL     1      34.267  -8.396 -23.814  0.00  0.00    +0.009 C 
ATOM     11  C   UNL     1      34.303 -12.502 -27.108  0.00  0.00    +0.008 C 
ATOM     12  C   UNL     1      32.772  -8.578 -21.947  0.00  0.00    +0.059 C 
ATOM     13  C   UNL     1      32.822 -14.302 -26.537  0.00  0.00    +0.001 C 
ATOM     14  C   UNL     1      33.618  -7.810 -22.733  0.00  0.00    +0.012 C 
ATOM     15  C   UNL     1      33.669 -13.692 -27.450  0.00  0.00    +0.001 C 
ENDROOT
BRANCH   3  16
ATOM     16  C   UNL     1      32.485 -12.786 -22.568  0.00  0.00    +0.093 C 
BRANCH  16  17
ATOM     17  C   UNL     1      33.542 -13.769 -22.066  0.00  0.00    -0.001 C 
BRANCH  17  18
ATOM     18  C   UNL     1      33.021 -15.183 -21.795  0.00  0.00    -0.076 C 
BRANCH  18  19
ATOM     19  N   UNL     1      34.002 -16.203 -22.147  0.00  0.00    +0.384 N 
ATOM     20  C   UNL     1      34.797 -16.577 -20.977  0.00  0.00    -0.101 C 
ATOM     21  C   UNL     1      34.874 -15.732 -23.224  0.00  0.00    -0.101 C 
ATOM     22  H   UNL     1      33.499 -17.028 -22.474  0.00  0.00    -0.080 HD
ENDBRANCH  18  19
ENDBRANCH  17  18
ENDBRANCH  16  17
ENDBRANCH   3  16
TORSDOF 4
ENDMDL
