MODEL 1
REMARK VINA RESULT:     -10.9      0.000      0.000
REMARK  Name = 1024
REMARK  6 active torsions:
REMARK  status: ('A' for Active; 'I' for Inactive)
REMARK    1  A    between atoms: C_9  and  C_18
REMARK    2  A    between atoms: CA_11  and  C_22
REMARK    3  A    between atoms: CA_15  and  C_26
REMARK    4  A    between atoms: C_18  and  O_19
REMARK    5  A    between atoms: C_22  and  O_23
REMARK    6  A    between atoms: C_26  and  O_27
REMARK                            x       y       z     vdW  Elec       q    Type
REMARK                         _______ _______ _______ _____ _____    ______ ____
ROOT
ATOM      1  O   UNL     1      35.207 -22.815 -17.722  0.00  0.00    -0.283 OA
ATOM      2  O   UNL     1      32.731 -22.428 -18.691  0.00  0.00    -0.281 OA
ATOM      3  N   UNL     1      33.649 -23.899 -13.557  0.00  0.00    -0.310 N 
ATOM      4  N   UNL     1      30.485 -22.736 -17.191  0.00  0.00    -0.396 NA
ATOM      5  C   UNL     1      33.242 -23.530 -14.812  0.00  0.00    +0.040 C 
ATOM      6  C   UNL     1      31.882 -23.333 -15.287  0.00  0.00    +0.120 C 
ATOM      7  C   UNL     1      34.377 -23.370 -15.586  0.00  0.00    +0.054 C 
ATOM      8  C   UNL     1      31.691 -22.953 -16.621  0.00  0.00    +0.160 C 
ATOM      9  C   UNL     1      30.745 -23.496 -14.499  0.00  0.00    +0.068 C 
ATOM     10  C   UNL     1      35.499 -23.649 -14.775  0.00  0.00    +0.025 C 
ATOM     11  CA  UNL     1      35.020 -23.974 -13.525  0.00  0.00    +0.125 C 
ATOM     12  C   UNL     1      34.256 -22.978 -16.971  0.00  0.00    +0.237 C 
ATOM     13  C   UNL     1      32.856 -22.758 -17.523  0.00  0.00    +0.260 C 
ATOM     14  C   UNL     1      29.486 -23.280 -15.055  0.00  0.00    +0.042 C 
ATOM     15  CA  UNL     1      29.412 -22.907 -16.388  0.00  0.00    +0.206 C 
ATOM     16  H   UNL     1      33.052 -24.082 -12.796  0.00  0.00    +0.152 HD
ENDROOT
BRANCH   9  18
ATOM     17  O   UNL     1      30.712 -23.125 -12.132  0.00  0.00    -0.245 OA
ATOM     18  C   UNL     1      30.751 -23.884 -13.094  0.00  0.00    +0.335 C 
BRANCH  18  19
ATOM     19  O   UNL     1      30.806 -25.237 -12.942  0.00  0.00    -0.477 OA
ATOM     20  H   UNL     1      30.164 -25.780 -13.353  0.00  0.00    +0.295 HD
ENDBRANCH  18  19
ENDBRANCH   9  18
BRANCH  11  22
ATOM     21  OXT UNL     1      36.950 -24.051 -12.104  0.00  0.00    -0.244 OA
ATOM     22  C   UNL     1      35.766 -24.334 -12.359  0.00  0.00    +0.352 C 
BRANCH  22  23
ATOM     23  O   UNL     1      35.033 -25.072 -11.462  0.00  0.00    -0.476 OA
ATOM     24  H   UNL     1      34.273 -25.538 -11.751  0.00  0.00    +0.295 HD
ENDBRANCH  22  23
ENDBRANCH  11  22
BRANCH  15  26
ATOM     25  OXT UNL     1      27.479 -21.622 -16.988  0.00  0.00    -0.242 OA
ATOM     26  C   UNL     1      28.119 -22.671 -17.010  0.00  0.00    +0.368 C 
BRANCH  26  27
ATOM     27  O   UNL     1      27.653 -23.778 -17.656  0.00  0.00    -0.475 OA
ATOM     28  H   UNL     1      26.762 -23.812 -17.944  0.00  0.00    +0.295 HD
ENDBRANCH  26  27
ENDBRANCH  15  26
TORSDOF 6
ENDMDL
MODEL 2
REMARK VINA RESULT:     -10.0      2.119      6.748
REMARK  Name = 1024
REMARK  6 active torsions:
REMARK  status: ('A' for Active; 'I' for Inactive)
REMARK    1  A    between atoms: C_9  and  C_18
REMARK    2  A    between atoms: CA_11  and  C_22
REMARK    3  A    between atoms: CA_15  and  C_26
REMARK    4  A    between atoms: C_18  and  O_19
REMARK    5  A    between atoms: C_22  and  O_23
REMARK    6  A    between atoms: C_26  and  O_27
REMARK                            x       y       z     vdW  Elec       q    Type
REMARK                         _______ _______ _______ _____ _____    ______ ____
ROOT
ATOM      1  O   UNL     1      30.513 -23.935 -15.415  0.00  0.00    -0.283 OA
ATOM      2  O   UNL     1      31.535 -24.532 -13.002  0.00  0.00    -0.281 OA
ATOM      3  N   UNL     1      34.607 -22.791 -17.113  0.00  0.00    -0.310 N 
ATOM      4  N   UNL     1      34.180 -24.314 -12.415  0.00  0.00    -0.396 NA
ATOM      5  C   UNL     1      33.983 -23.237 -15.978  0.00  0.00    +0.040 C 
ATOM      6  C   UNL     1      34.585 -23.547 -14.691  0.00  0.00    +0.120 C 
ATOM      7  C   UNL     1      32.635 -23.352 -16.264  0.00  0.00    +0.054 C 
ATOM      8  C   UNL     1      33.754 -23.994 -13.657  0.00  0.00    +0.160 C 
ATOM      9  C   UNL     1      35.945 -23.427 -14.413  0.00  0.00    +0.068 C 
ATOM     10  C   UNL     1      32.440 -22.964 -17.608  0.00  0.00    +0.025 C 
ATOM     11  CA  UNL     1      33.677 -22.622 -18.110  0.00  0.00    +0.125 C 
ATOM     12  C   UNL     1      31.717 -23.807 -15.244  0.00  0.00    +0.237 C 
ATOM     13  C   UNL     1      32.292 -24.146 -13.877  0.00  0.00    +0.260 C 
ATOM     14  C   UNL     1      36.418 -23.750 -13.143  0.00  0.00    +0.042 C 
ATOM     15  CA  UNL     1      35.507 -24.183 -12.193  0.00  0.00    +0.206 C 
ATOM     16  H   UNL     1      35.572 -22.619 -17.201  0.00  0.00    +0.152 HD
ENDROOT
BRANCH   9  18
ATOM     17  O   UNL     1      37.041 -21.856 -15.853  0.00  0.00    -0.245 OA
ATOM     18  C   UNL     1      36.955 -22.977 -15.363  0.00  0.00    +0.335 C 
BRANCH  18  19
ATOM     19  O   UNL     1      37.840 -23.966 -15.669  0.00  0.00    -0.477 OA
ATOM     20  H   UNL     1      37.824 -24.361 -16.519  0.00  0.00    +0.295 HD
ENDBRANCH  18  19
ENDBRANCH   9  18
BRANCH  11  22
ATOM     21  OXT UNL     1      35.130 -22.090 -19.940  0.00  0.00    -0.244 OA
ATOM     22  C   UNL     1      34.000 -22.165 -19.425  0.00  0.00    +0.352 C 
BRANCH  22  23
ATOM     23  O   UNL     1      32.896 -21.782 -20.145  0.00  0.00    -0.476 OA
ATOM     24  H   UNL     1      32.122 -21.497 -19.699  0.00  0.00    +0.295 HD
ENDBRANCH  22  23
ENDBRANCH  11  22
BRANCH  15  26
ATOM     25  OXT UNL     1      35.261 -24.975  -9.943  0.00  0.00    -0.242 OA
ATOM     26  C   UNL     1      35.956 -24.531 -10.854  0.00  0.00    +0.368 C 
BRANCH  26  27
ATOM     27  O   UNL     1      37.292 -24.308 -10.690  0.00  0.00    -0.475 OA
ATOM     28  H   UNL     1      37.597 -23.824  -9.948  0.00  0.00    +0.295 HD
ENDBRANCH  26  27
ENDBRANCH  15  26
TORSDOF 6
ENDMDL
MODEL 3
REMARK VINA RESULT:      -9.4      2.532      4.929
REMARK  Name = 1024
REMARK  6 active torsions:
REMARK  status: ('A' for Active; 'I' for Inactive)
REMARK    1  A    between atoms: C_9  and  C_18
REMARK    2  A    between atoms: CA_11  and  C_22
REMARK    3  A    between atoms: CA_15  and  C_26
REMARK    4  A    between atoms: C_18  and  O_19
REMARK    5  A    between atoms: C_22  and  O_23
REMARK    6  A    between atoms: C_26  and  O_27
REMARK                            x       y       z     vdW  Elec       q    Type
REMARK                         _______ _______ _______ _____ _____    ______ ____
ROOT
ATOM      1  O   UNL     1      32.079 -24.693 -13.448  0.00  0.00    -0.283 OA
ATOM      2  O   UNL     1      31.485 -23.906 -15.948  0.00  0.00    -0.281 OA
ATOM      3  N   UNL     1      36.444 -23.369 -13.830  0.00  0.00    -0.310 N 
ATOM      4  N   UNL     1      33.307 -22.781 -17.622  0.00  0.00    -0.396 NA
ATOM      5  C   UNL     1      35.259 -23.431 -14.514  0.00  0.00    +0.040 C 
ATOM      6  C   UNL     1      34.989 -22.988 -15.873  0.00  0.00    +0.120 C 
ATOM      7  C   UNL     1      34.322 -24.002 -13.673  0.00  0.00    +0.054 C 
ATOM      8  C   UNL     1      33.693 -23.146 -16.380  0.00  0.00    +0.160 C 
ATOM      9  C   UNL     1      35.940 -22.414 -16.714  0.00  0.00    +0.068 C 
ATOM     10  C   UNL     1      34.960 -24.295 -12.447  0.00  0.00    +0.025 C 
ATOM     11  CA  UNL     1      36.272 -23.893 -12.571  0.00  0.00    +0.125 C 
ATOM     12  C   UNL     1      32.965 -24.196 -14.128  0.00  0.00    +0.237 C 
ATOM     13  C   UNL     1      32.625 -23.751 -15.543  0.00  0.00    +0.260 C 
ATOM     14  C   UNL     1      35.575 -22.026 -18.001  0.00  0.00    +0.042 C 
ATOM     15  CA  UNL     1      34.263 -22.228 -18.401  0.00  0.00    +0.206 C 
ATOM     16  H   UNL     1      37.288 -23.007 -14.184  0.00  0.00    +0.152 HD
ENDROOT
BRANCH   9  18
ATOM     17  O   UNL     1      38.148 -23.023 -16.008  0.00  0.00    -0.245 OA
ATOM     18  C   UNL     1      37.333 -22.176 -16.359  0.00  0.00    +0.335 C 
BRANCH  18  19
ATOM     19  O   UNL     1      37.664 -20.858 -16.460  0.00  0.00    -0.477 OA
ATOM     20  H   UNL     1      38.254 -20.574 -17.130  0.00  0.00    +0.295 HD
ENDBRANCH  18  19
ENDBRANCH   9  18
BRANCH  11  22
ATOM     21  OXT UNL     1      37.977 -24.985 -11.288  0.00  0.00    -0.244 OA
ATOM     22  C   UNL     1      37.318 -23.978 -11.601  0.00  0.00    +0.352 C 
BRANCH  22  23
ATOM     23  O   UNL     1      37.573 -22.778 -10.983  0.00  0.00    -0.476 OA
ATOM     24  H   UNL     1      38.455 -22.540 -10.771  0.00  0.00    +0.295 HD
ENDBRANCH  22  23
ENDBRANCH  11  22
BRANCH  15  26
ATOM     25  OXT UNL     1      32.729 -22.027 -20.233  0.00  0.00    -0.242 OA
ATOM     26  C   UNL     1      33.837 -21.838 -19.736  0.00  0.00    +0.368 C 
BRANCH  26  27
ATOM     27  O   UNL     1      34.832 -21.209 -20.426  0.00  0.00    -0.475 OA
ATOM     28  H   UNL     1      34.624 -20.686 -21.174  0.00  0.00    +0.295 HD
ENDBRANCH  26  27
ENDBRANCH  15  26
TORSDOF 6
ENDMDL
MODEL 4
REMARK VINA RESULT:      -9.2      1.865      6.002
REMARK  Name = 1024
REMARK  6 active torsions:
REMARK  status: ('A' for Active; 'I' for Inactive)
REMARK    1  A    between atoms: C_9  and  C_18
REMARK    2  A    between atoms: CA_11  and  C_22
REMARK    3  A    between atoms: CA_15  and  C_26
REMARK    4  A    between atoms: C_18  and  O_19
REMARK    5  A    between atoms: C_22  and  O_23
REMARK    6  A    between atoms: C_26  and  O_27
REMARK                            x       y       z     vdW  Elec       q    Type
REMARK                         _______ _______ _______ _____ _____    ______ ____
ROOT
ATOM      1  O   UNL     1      32.821 -22.054 -19.350  0.00  0.00    -0.283 OA
ATOM      2  O   UNL     1      35.417 -22.419 -18.755  0.00  0.00    -0.281 OA
ATOM      3  N   UNL     1      31.451 -23.377 -15.188  0.00  0.00    -0.310 N 
ATOM      4  N   UNL     1      36.274 -23.296 -16.330  0.00  0.00    -0.396 NA
ATOM      5  C   UNL     1      32.567 -23.187 -15.960  0.00  0.00    +0.040 C 
ATOM      6  C   UNL     1      33.957 -23.400 -15.588  0.00  0.00    +0.120 C 
ATOM      7  C   UNL     1      32.144 -22.740 -17.198  0.00  0.00    +0.054 C 
ATOM      8  C   UNL     1      34.949 -23.140 -16.541  0.00  0.00    +0.160 C 
ATOM      9  C   UNL     1      34.373 -23.851 -14.337  0.00  0.00    +0.068 C 
ATOM     10  C   UNL     1      30.734 -22.659 -17.173  0.00  0.00    +0.025 C 
ATOM     11  CA  UNL     1      30.332 -23.059 -15.917  0.00  0.00    +0.125 C 
ATOM     12  C   UNL     1      33.112 -22.452 -18.231  0.00  0.00    +0.237 C 
ATOM     13  C   UNL     1      34.582 -22.657 -17.898  0.00  0.00    +0.260 C 
ATOM     14  C   UNL     1      35.733 -24.023 -14.086  0.00  0.00    +0.042 C 
ATOM     15  CA  UNL     1      36.631 -23.735 -15.102  0.00  0.00    +0.206 C 
ATOM     16  H   UNL     1      31.452 -23.693 -14.255  0.00  0.00    +0.152 HD
ENDROOT
BRANCH   9  18
ATOM     17  O   UNL     1      32.638 -25.062 -13.211  0.00  0.00    -0.245 OA
ATOM     18  C   UNL     1      33.485 -24.174 -13.228  0.00  0.00    +0.335 C 
BRANCH  18  19
ATOM     19  O   UNL     1      33.694 -23.359 -12.157  0.00  0.00    -0.477 OA
ATOM     20  H   UNL     1      33.065 -23.327 -11.463  0.00  0.00    +0.295 HD
ENDBRANCH  18  19
ENDBRANCH   9  18
BRANCH  11  22
ATOM     21  OXT UNL     1      28.409 -24.172 -15.016  0.00  0.00    -0.244 OA
ATOM     22  C   UNL     1      29.001 -23.149 -15.403  0.00  0.00    +0.352 C 
BRANCH  22  23
ATOM     23  O   UNL     1      28.363 -21.934 -15.356  0.00  0.00    -0.476 OA
ATOM     24  H   UNL     1      28.827 -21.173 -15.066  0.00  0.00    +0.295 HD
ENDBRANCH  22  23
ENDBRANCH  11  22
BRANCH  15  26
ATOM     25  OXT UNL     1      38.596 -24.332 -13.867  0.00  0.00    -0.242 OA
ATOM     26  C   UNL     1      38.059 -23.900 -14.884  0.00  0.00    +0.368 C 
BRANCH  26  27
ATOM     27  O   UNL     1      38.789 -23.513 -15.969  0.00  0.00    -0.475 OA
ATOM     28  H   UNL     1      39.614 -23.087 -15.850  0.00  0.00    +0.295 HD
ENDBRANCH  26  27
ENDBRANCH  15  26
TORSDOF 6
ENDMDL
MODEL 5
REMARK VINA RESULT:      -9.1      9.054     11.232
REMARK  Name = 1024
REMARK  6 active torsions:
REMARK  status: ('A' for Active; 'I' for Inactive)
REMARK    1  A    between atoms: C_9  and  C_18
REMARK    2  A    between atoms: CA_11  and  C_22
REMARK    3  A    between atoms: CA_15  and  C_26
REMARK    4  A    between atoms: C_18  and  O_19
REMARK    5  A    between atoms: C_22  and  O_23
REMARK    6  A    between atoms: C_26  and  O_27
REMARK                            x       y       z     vdW  Elec       q    Type
REMARK                         _______ _______ _______ _____ _____    ______ ____
ROOT
ATOM      1  O   UNL     1      34.647 -18.424 -25.930  0.00  0.00    -0.283 OA
ATOM      2  O   UNL     1      34.114 -15.841 -26.446  0.00  0.00    -0.281 OA
ATOM      3  N   UNL     1      34.509 -17.779 -21.401  0.00  0.00    -0.310 N 
ATOM      4  N   UNL     1      33.730 -13.987 -24.497  0.00  0.00    -0.396 NA
ATOM      5  C   UNL     1      34.377 -17.129 -22.600  0.00  0.00    +0.040 C 
ATOM      6  C   UNL     1      34.086 -15.722 -22.826  0.00  0.00    +0.120 C 
ATOM      7  C   UNL     1      34.570 -18.063 -23.601  0.00  0.00    +0.054 C 
ATOM      8  C   UNL     1      33.993 -15.265 -24.146  0.00  0.00    +0.160 C 
ATOM      9  C   UNL     1      33.894 -14.789 -21.809  0.00  0.00    +0.068 C 
ATOM     10  C   UNL     1      34.827 -19.310 -22.990  0.00  0.00    +0.025 C 
ATOM     11  CA  UNL     1      34.783 -19.106 -21.628  0.00  0.00    +0.125 C 
ATOM     12  C   UNL     1      34.489 -17.663 -24.987  0.00  0.00    +0.237 C 
ATOM     13  C   UNL     1      34.187 -16.201 -25.283  0.00  0.00    +0.260 C 
ATOM     14  C   UNL     1      33.621 -13.463 -22.137  0.00  0.00    +0.042 C 
ATOM     15  CA  UNL     1      33.550 -13.118 -23.478  0.00  0.00    +0.206 C 
ATOM     16  H   UNL     1      34.421 -17.360 -20.514  0.00  0.00    +0.152 HD
ENDROOT
BRANCH   9  18
ATOM     17  O   UNL     1      34.966 -15.351 -19.741  0.00  0.00    -0.245 OA
ATOM     18  C   UNL     1      33.956 -15.082 -20.383  0.00  0.00    +0.335 C 
BRANCH  18  19
ATOM     19  O   UNL     1      32.726 -15.027 -19.800  0.00  0.00    -0.477 OA
ATOM     20  H   UNL     1      32.174 -15.784 -19.800  0.00  0.00    +0.295 HD
ENDBRANCH  18  19
ENDBRANCH   9  18
BRANCH  11  22
ATOM     21  OXT UNL     1      34.147 -20.872 -20.137  0.00  0.00    -0.244 OA
ATOM     22  C   UNL     1      34.979 -20.063 -20.584  0.00  0.00    +0.352 C 
BRANCH  22  23
ATOM     23  O   UNL     1      36.249 -20.033 -20.063  0.00  0.00    -0.476 OA
ATOM     24  H   UNL     1      36.776 -20.808 -20.072  0.00  0.00    +0.295 HD
ENDBRANCH  22  23
ENDBRANCH  11  22
BRANCH  15  26
ATOM     25  OXT UNL     1      32.698 -10.897 -23.183  0.00  0.00    -0.242 OA
ATOM     26  C   UNL     1      33.268 -11.745 -23.865  0.00  0.00    +0.368 C 
BRANCH  26  27
ATOM     27  O   UNL     1      33.718 -11.466 -25.122  0.00  0.00    -0.475 OA
ATOM     28  H   UNL     1      33.624 -12.101 -25.804  0.00  0.00    +0.295 HD
ENDBRANCH  26  27
ENDBRANCH  15  26
TORSDOF 6
ENDMDL
MODEL 6
REMARK VINA RESULT:      -8.6      9.815     12.629
REMARK  Name = 1024
REMARK  6 active torsions:
REMARK  status: ('A' for Active; 'I' for Inactive)
REMARK    1  A    between atoms: C_9  and  C_18
REMARK    2  A    between atoms: CA_11  and  C_22
REMARK    3  A    between atoms: CA_15  and  C_26
REMARK    4  A    between atoms: C_18  and  O_19
REMARK    5  A    between atoms: C_22  and  O_23
REMARK    6  A    between atoms: C_26  and  O_27
REMARK                            x       y       z     vdW  Elec       q    Type
REMARK                         _______ _______ _______ _____ _____    ______ ____
ROOT
ATOM      1  O   UNL     1      33.620 -15.302 -26.985  0.00  0.00    -0.283 OA
ATOM      2  O   UNL     1      34.115 -17.690 -25.855  0.00  0.00    -0.281 OA
ATOM      3  N   UNL     1      33.819 -13.111 -22.971  0.00  0.00    -0.310 N 
ATOM      4  N   UNL     1      34.506 -18.016 -23.185  0.00  0.00    -0.396 NA
ATOM      5  C   UNL     1      33.926 -14.351 -23.544  0.00  0.00    +0.040 C 
ATOM      6  C   UNL     1      34.196 -15.619 -22.884  0.00  0.00    +0.120 C 
ATOM      7  C   UNL     1      33.728 -14.199 -24.904  0.00  0.00    +0.054 C 
ATOM      8  C   UNL     1      34.264 -16.777 -23.668  0.00  0.00    +0.160 C 
ATOM      9  C   UNL     1      34.393 -15.762 -21.512  0.00  0.00    +0.068 C 
ATOM     10  C   UNL     1      33.495 -12.830 -25.159  0.00  0.00    +0.025 C 
ATOM     11  CA  UNL     1      33.557 -12.179 -23.946  0.00  0.00    +0.125 C 
ATOM     12  C   UNL     1      33.783 -15.351 -25.775  0.00  0.00    +0.237 C 
ATOM     13  C   UNL     1      34.064 -16.704 -25.139  0.00  0.00    +0.260 C 
ATOM     14  C   UNL     1      34.645 -17.025 -20.982  0.00  0.00    +0.042 C 
ATOM     15  CA  UNL     1      34.691 -18.105 -21.850  0.00  0.00    +0.206 C 
ATOM     16  H   UNL     1      33.915 -12.917 -22.011  0.00  0.00    +0.152 HD
ENDROOT
BRANCH   9  18
ATOM     17  O   UNL     1      35.323 -14.061 -20.104  0.00  0.00    -0.245 OA
ATOM     18  C   UNL     1      34.356 -14.672 -20.545  0.00  0.00    +0.335 C 
BRANCH  18  19
ATOM     19  O   UNL     1      33.082 -14.380 -20.158  0.00  0.00    -0.477 OA
ATOM     20  H   UNL     1      32.647 -13.630 -20.512  0.00  0.00    +0.295 HD
ENDBRANCH  18  19
ENDBRANCH   9  18
BRANCH  11  22
ATOM     21  OXT UNL     1      32.382 -10.221 -23.218  0.00  0.00    -0.244 OA
ATOM     22  C   UNL     1      33.389 -10.785 -23.682  0.00  0.00    +0.352 C 
BRANCH  22  23
ATOM     23  O   UNL     1      34.500 -10.042 -23.997  0.00  0.00    -0.476 OA
ATOM     24  H   UNL     1      34.960 -10.206 -24.797  0.00  0.00    +0.295 HD
ENDBRANCH  22  23
ENDBRANCH  11  22
BRANCH  15  26
ATOM     25  OXT UNL     1      36.041 -19.892 -20.995  0.00  0.00    -0.242 OA
ATOM     26  C   UNL     1      34.951 -19.442 -21.340  0.00  0.00    +0.368 C 
BRANCH  26  27
ATOM     27  O   UNL     1      33.814 -20.194 -21.275  0.00  0.00    -0.475 OA
ATOM     28  H   UNL     1      33.400 -20.345 -20.449  0.00  0.00    +0.295 HD
ENDBRANCH  26  27
ENDBRANCH  15  26
TORSDOF 6
ENDMDL
MODEL 7
REMARK VINA RESULT:      -8.5     11.992     14.429
REMARK  Name = 1024
REMARK  6 active torsions:
REMARK  status: ('A' for Active; 'I' for Inactive)
REMARK    1  A    between atoms: C_9  and  C_18
REMARK    2  A    between atoms: CA_11  and  C_22
REMARK    3  A    between atoms: CA_15  and  C_26
REMARK    4  A    between atoms: C_18  and  O_19
REMARK    5  A    between atoms: C_22  and  O_23
REMARK    6  A    between atoms: C_26  and  O_27
REMARK                            x       y       z     vdW  Elec       q    Type
REMARK                         _______ _______ _______ _____ _____    ______ ____
ROOT
ATOM      1  O   UNL     1      32.273 -14.690 -19.960  0.00  0.00    -0.283 OA
ATOM      2  O   UNL     1      31.538 -12.109 -19.813  0.00  0.00    -0.281 OA
ATOM      3  N   UNL     1      34.082 -14.169 -24.132  0.00  0.00    -0.310 N 
ATOM      4  N   UNL     1      32.001 -10.319 -21.805  0.00  0.00    -0.396 NA
ATOM      5  C   UNL     1      33.439 -13.492 -23.129  0.00  0.00    +0.040 C 
ATOM      6  C   UNL     1      33.062 -12.087 -23.099  0.00  0.00    +0.120 C 
ATOM      7  C   UNL     1      33.197 -14.393 -22.109  0.00  0.00    +0.054 C 
ATOM      8  C   UNL     1      32.407 -11.598 -21.963  0.00  0.00    +0.160 C 
ATOM      9  C   UNL     1      33.309 -11.188 -24.134  0.00  0.00    +0.068 C 
ATOM     10  C   UNL     1      33.707 -15.649 -22.507  0.00  0.00    +0.025 C 
ATOM     11  CA  UNL     1      34.249 -15.482 -23.763  0.00  0.00    +0.125 C 
ATOM     12  C   UNL     1      32.525 -13.958 -20.906  0.00  0.00    +0.237 C 
ATOM     13  C   UNL     1      32.107 -12.498 -20.819  0.00  0.00    +0.260 C 
ATOM     14  C   UNL     1      32.904  -9.861 -24.002  0.00  0.00    +0.042 C 
ATOM     15  CA  UNL     1      32.263  -9.482 -22.833  0.00  0.00    +0.206 C 
ATOM     16  H   UNL     1      34.378 -13.776 -24.985  0.00  0.00    +0.152 HD
ENDROOT
BRANCH   9  18
ATOM     17  O   UNL     1      33.533 -12.240 -26.275  0.00  0.00    -0.245 OA
ATOM     18  C   UNL     1      33.975 -11.518 -25.387  0.00  0.00    +0.335 C 
BRANCH  18  19
ATOM     19  O   UNL     1      35.195 -10.920 -25.487  0.00  0.00    -0.477 OA
ATOM     20  H   UNL     1      35.584 -10.789 -26.329  0.00  0.00    +0.295 HD
ENDBRANCH  18  19
ENDBRANCH   9  18
BRANCH  11  22
ATOM     21  OXT UNL     1      34.797 -16.580 -25.822  0.00  0.00    -0.244 OA
ATOM     22  C   UNL     1      34.886 -16.460 -24.587  0.00  0.00    +0.352 C 
BRANCH  22  23
ATOM     23  O   UNL     1      35.671 -17.332 -23.873  0.00  0.00    -0.476 OA
ATOM     24  H   UNL     1      35.537 -18.256 -23.956  0.00  0.00    +0.295 HD
ENDBRANCH  22  23
ENDBRANCH  11  22
BRANCH  15  26
ATOM     25  OXT UNL     1      32.163  -7.345 -21.752  0.00  0.00    -0.242 OA
ATOM     26  C   UNL     1      31.823  -8.108 -22.654  0.00  0.00    +0.368 C 
BRANCH  26  27
ATOM     27  O   UNL     1      30.951  -7.719 -23.628  0.00  0.00    -0.475 OA
ATOM     28  H   UNL     1      30.046  -7.595 -23.423  0.00  0.00    +0.295 HD
ENDBRANCH  26  27
ENDBRANCH  15  26
TORSDOF 6
ENDMDL
MODEL 8
REMARK VINA RESULT:      -8.4     13.490     15.584
REMARK  Name = 1024
REMARK  6 active torsions:
REMARK  status: ('A' for Active; 'I' for Inactive)
REMARK    1  A    between atoms: C_9  and  C_18
REMARK    2  A    between atoms: CA_11  and  C_22
REMARK    3  A    between atoms: CA_15  and  C_26
REMARK    4  A    between atoms: C_18  and  O_19
REMARK    5  A    between atoms: C_22  and  O_23
REMARK    6  A    between atoms: C_26  and  O_27
REMARK                            x       y       z     vdW  Elec       q    Type
REMARK                         _______ _______ _______ _____ _____    ______ ____
ROOT
ATOM      1  O   UNL     1      35.172  -8.143 -25.191  0.00  0.00    -0.283 OA
ATOM      2  O   UNL     1      35.280 -10.694 -26.029  0.00  0.00    -0.281 OA
ATOM      3  N   UNL     1      32.366  -9.167 -21.722  0.00  0.00    -0.310 N 
ATOM      4  N   UNL     1      33.945 -12.718 -24.800  0.00  0.00    -0.396 NA
ATOM      5  C   UNL     1      33.043  -9.720 -22.778  0.00  0.00    +0.040 C 
ATOM      6  C   UNL     1      33.068 -11.115 -23.191  0.00  0.00    +0.120 C 
ATOM      7  C   UNL     1      33.727  -8.700 -23.412  0.00  0.00    +0.054 C 
ATOM      8  C   UNL     1      33.834 -11.464 -24.309  0.00  0.00    +0.160 C 
ATOM      9  C   UNL     1      32.374 -12.135 -22.545  0.00  0.00    +0.068 C 
ATOM     10  C   UNL     1      33.455  -7.498 -22.722  0.00  0.00    +0.025 C 
ATOM     11  CA  UNL     1      32.610  -7.816 -21.680  0.00  0.00    +0.125 C 
ATOM     12  C   UNL     1      34.537  -8.986 -24.573  0.00  0.00    +0.237 C 
ATOM     13  C   UNL     1      34.601 -10.429 -25.050  0.00  0.00    +0.260 C 
ATOM     14  C   UNL     1      32.467 -13.440 -23.025  0.00  0.00    +0.042 C 
ATOM     15  CA  UNL     1      33.255 -13.675 -24.141  0.00  0.00    +0.206 C 
ATOM     16  H   UNL     1      31.793  -9.662 -21.092  0.00  0.00    +0.152 HD
ENDROOT
BRANCH   9  18
ATOM     17  O   UNL     1      31.859 -12.140 -20.204  0.00  0.00    -0.245 OA
ATOM     18  C   UNL     1      31.528 -11.958 -21.372  0.00  0.00    +0.335 C 
BRANCH  18  19
ATOM     19  O   UNL     1      30.273 -11.550 -21.708  0.00  0.00    -0.477 OA
ATOM     20  H   UNL     1      30.152 -10.749 -22.179  0.00  0.00    +0.295 HD
ENDBRANCH  18  19
ENDBRANCH   9  18
BRANCH  11  22
ATOM     21  OXT UNL     1      31.310  -5.963 -20.891  0.00  0.00    -0.244 OA
ATOM     22  C   UNL     1      32.052  -6.942 -20.696  0.00  0.00    +0.352 C 
BRANCH  22  23
ATOM     23  O   UNL     1      32.415  -7.278 -19.415  0.00  0.00    -0.476 OA
ATOM     24  H   UNL     1      33.235  -7.703 -19.258  0.00  0.00    +0.295 HD
ENDBRANCH  22  23
ENDBRANCH  11  22
BRANCH  15  26
ATOM     25  OXT UNL     1      33.824 -16.003 -24.085  0.00  0.00    -0.242 OA
ATOM     26  C   UNL     1      33.381 -15.021 -24.676  0.00  0.00    +0.368 C 
BRANCH  26  27
ATOM     27  O   UNL     1      32.938 -15.102 -25.964  0.00  0.00    -0.475 OA
ATOM     28  H   UNL     1      32.585 -15.907 -26.288  0.00  0.00    +0.295 HD
ENDBRANCH  26  27
ENDBRANCH  15  26
TORSDOF 6
ENDMDL
MODEL 9
REMARK VINA RESULT:      -8.3      9.260     12.716
REMARK  Name = 1024
REMARK  6 active torsions:
REMARK  status: ('A' for Active; 'I' for Inactive)
REMARK    1  A    between atoms: C_9  and  C_18
REMARK    2  A    between atoms: CA_11  and  C_22
REMARK    3  A    between atoms: CA_15  and  C_26
REMARK    4  A    between atoms: C_18  and  O_19
REMARK    5  A    between atoms: C_22  and  O_23
REMARK    6  A    between atoms: C_26  and  O_27
REMARK                            x       y       z     vdW  Elec       q    Type
REMARK                         _______ _______ _______ _____ _____    ______ ____
ROOT
ATOM      1  O   UNL     1      32.505 -13.092 -21.486  0.00  0.00    -0.283 OA
ATOM      2  O   UNL     1      33.296 -15.147 -19.945  0.00  0.00    -0.281 OA
ATOM      3  N   UNL     1      33.606 -15.277 -25.354  0.00  0.00    -0.310 N 
ATOM      4  N   UNL     1      34.316 -17.454 -20.958  0.00  0.00    -0.396 NA
ATOM      5  C   UNL     1      33.599 -15.410 -23.991  0.00  0.00    +0.040 C 
ATOM      6  C   UNL     1      34.041 -16.549 -23.202  0.00  0.00    +0.120 C 
ATOM      7  C   UNL     1      33.081 -14.241 -23.463  0.00  0.00    +0.054 C 
ATOM      8  C   UNL     1      33.942 -16.472 -21.807  0.00  0.00    +0.160 C 
ATOM      9  C   UNL     1      34.561 -17.722 -23.744  0.00  0.00    +0.068 C 
ATOM     10  C   UNL     1      32.769 -13.379 -24.537  0.00  0.00    +0.025 C 
ATOM     11  CA  UNL     1      33.104 -14.045 -25.696  0.00  0.00    +0.125 C 
ATOM     12  C   UNL     1      32.951 -14.091 -22.032  0.00  0.00    +0.237 C 
ATOM     13  C   UNL     1      33.398 -15.252 -21.156  0.00  0.00    +0.260 C 
ATOM     14  C   UNL     1      34.956 -18.754 -22.896  0.00  0.00    +0.042 C 
ATOM     15  CA  UNL     1      34.815 -18.573 -21.529  0.00  0.00    +0.206 C 
ATOM     16  H   UNL     1      33.923 -15.959 -25.991  0.00  0.00    +0.152 HD
ENDROOT
BRANCH   9  18
ATOM     17  O   UNL     1      35.284 -17.233 -25.976  0.00  0.00    -0.245 OA
ATOM     18  C   UNL     1      34.739 -17.978 -25.167  0.00  0.00    +0.335 C 
BRANCH  18  19
ATOM     19  O   UNL     1      34.219 -19.182 -25.536  0.00  0.00    -0.477 OA
ATOM     20  H   UNL     1      34.470 -19.959 -25.077  0.00  0.00    +0.295 HD
ENDBRANCH  18  19
ENDBRANCH   9  18
BRANCH  11  22
ATOM     21  OXT UNL     1      33.891 -13.375 -27.859  0.00  0.00    -0.244 OA
ATOM     22  C   UNL     1      32.976 -13.590 -27.045  0.00  0.00    +0.352 C 
BRANCH  22  23
ATOM     23  O   UNL     1      31.670 -13.389 -27.420  0.00  0.00    -0.476 OA
ATOM     24  H   UNL     1      30.990 -13.414 -26.776  0.00  0.00    +0.295 HD
ENDBRANCH  22  23
ENDBRANCH  11  22
BRANCH  15  26
ATOM     25  OXT UNL     1      34.501 -20.526 -20.175  0.00  0.00    -0.242 OA
ATOM     26  C   UNL     1      35.215 -19.624 -20.607  0.00  0.00    +0.368 C 
BRANCH  26  27
ATOM     27  O   UNL     1      36.525 -19.514 -20.243  0.00  0.00    -0.475 OA
ATOM     28  H   UNL     1      37.019 -20.282 -20.038  0.00  0.00    +0.295 HD
ENDBRANCH  26  27
ENDBRANCH  15  26
TORSDOF 6
ENDMDL
