MODEL 1
REMARK VINA RESULT:      -8.8      0.000      0.000
REMARK  Name = 11824
REMARK  6 active torsions:
REMARK  status: ('A' for Active; 'I' for Inactive)
REMARK    1  A    between atoms: N_1  and  C1*_11
REMARK    2  A    between atoms: C_7  and  C_26
REMARK    3  A    between atoms: C2*_12  and  O2*_15
REMARK    4  A    between atoms: C3*_13  and  O3*_17
REMARK    5  A    between atoms: C4*_14  and  C5*_19
REMARK    6  A    between atoms: C5*_19  and  O5*_20
REMARK                            x       y       z     vdW  Elec       q    Type
REMARK                         _______ _______ _______ _____ _____    ______ ____
ROOT
ATOM      1  N   UNL     1      34.804 -24.097 -15.353  0.00  0.00    -0.249 N 
ATOM      2  N   UNL     1      34.582 -23.134 -17.553  0.00  0.00    -0.233 NA
ATOM      3  N   UNL     1      32.300 -22.466 -18.077  0.00  0.00    -0.234 NA
ATOM      4  C   UNL     1      34.079 -23.530 -16.370  0.00  0.00    +0.122 C 
ATOM      5  C   UNL     1      33.964 -24.372 -14.300  0.00  0.00    +0.075 C 
ATOM      6  C   UNL     1      32.755 -23.440 -15.961  0.00  0.00    +0.141 C 
ATOM      7  C   UNL     1      32.691 -23.976 -14.649  0.00  0.00    +0.075 C 
ATOM      8  C   UNL     1      31.856 -22.883 -16.870  0.00  0.00    +0.111 C 
ATOM      9  C   UNL     1      33.619 -22.616 -18.341  0.00  0.00    +0.252 C 
ATOM     10  N   UNL     1      30.492 -22.747 -16.554  0.00  0.00    -0.346 N 
ATOM     11  H   UNL     1      29.872 -22.351 -17.208  0.00  0.00    +0.143 HD
ATOM     12  H   UNL     1      30.158 -23.047 -15.678  0.00  0.00    +0.143 HD
ENDROOT
BRANCH   1  14
ATOM     13  O4* UNL     1      36.523 -25.535 -14.571  0.00  0.00    -0.333 OA
ATOM     14  C1* UNL     1      36.239 -24.372 -15.373  0.00  0.00    +0.227 C 
ATOM     15  C2* UNL     1      37.093 -23.248 -14.805  0.00  0.00    +0.187 C 
ATOM     16  C3* UNL     1      38.334 -24.002 -14.369  0.00  0.00    +0.171 C 
ATOM     17  C4* UNL     1      37.750 -25.308 -13.840  0.00  0.00    +0.175 C 
BRANCH  15  18
ATOM     18  O2* UNL     1      37.361 -22.252 -15.771  0.00  0.00    -0.378 OA
ATOM     19  H2* UNL     1      36.825 -22.416 -16.562  0.00  0.00    +0.211 HD
ENDBRANCH  15  18
BRANCH  16  20
ATOM     20  O3* UNL     1      39.142 -24.287 -15.510  0.00  0.00    -0.379 OA
ATOM     21  H3* UNL     1      38.610 -24.194 -16.316  0.00  0.00    +0.211 HD
ENDBRANCH  16  20
BRANCH  17  22
ATOM     22  C5* UNL     1      37.421 -25.253 -12.355  0.00  0.00    +0.169 C 
BRANCH  22  23
ATOM     23  O5* UNL     1      36.802 -26.472 -11.981  0.00  0.00    -0.379 OA
ATOM     24  H5* UNL     1      36.173 -26.739 -12.670  0.00  0.00    +0.211 HD
ENDBRANCH  22  23
ENDBRANCH  17  22
ENDBRANCH   1  14
BRANCH   7  26
ATOM     25  N   UNL     1      30.620 -24.214 -13.107  0.00  0.00    -0.191 NA
ATOM     26  C   UNL     1      31.553 -24.107 -13.802  0.00  0.00    +0.098 C 
ENDBRANCH   7  26
TORSDOF 6
ENDMDL
MODEL 2
REMARK VINA RESULT:      -8.8      1.766      3.515
REMARK  Name = 11824
REMARK  6 active torsions:
REMARK  status: ('A' for Active; 'I' for Inactive)
REMARK    1  A    between atoms: N_1  and  C1*_11
REMARK    2  A    between atoms: C_7  and  C_26
REMARK    3  A    between atoms: C2*_12  and  O2*_15
REMARK    4  A    between atoms: C3*_13  and  O3*_17
REMARK    5  A    between atoms: C4*_14  and  C5*_19
REMARK    6  A    between atoms: C5*_19  and  O5*_20
REMARK                            x       y       z     vdW  Elec       q    Type
REMARK                         _______ _______ _______ _____ _____    ______ ____
ROOT
ATOM      1  N   UNL     1      34.100 -24.301 -14.532  0.00  0.00    -0.249 N 
ATOM      2  N   UNL     1      32.009 -24.246 -13.331  0.00  0.00    -0.233 NA
ATOM      3  N   UNL     1      30.182 -23.304 -14.637  0.00  0.00    -0.234 NA
ATOM      4  C   UNL     1      32.762 -24.016 -14.421  0.00  0.00    +0.122 C 
ATOM      5  C   UNL     1      34.537 -23.933 -15.782  0.00  0.00    +0.075 C 
ATOM      6  C   UNL     1      32.338 -23.458 -15.620  0.00  0.00    +0.141 C 
ATOM      7  C   UNL     1      33.467 -23.409 -16.476  0.00  0.00    +0.075 C 
ATOM      8  C   UNL     1      30.992 -23.099 -15.701  0.00  0.00    +0.111 C 
ATOM      9  C   UNL     1      30.734 -23.858 -13.533  0.00  0.00    +0.252 C 
ATOM     10  N   UNL     1      30.461 -22.526 -16.870  0.00  0.00    -0.346 N 
ATOM     11  H   UNL     1      29.509 -22.279 -16.910  0.00  0.00    +0.143 HD
ATOM     12  H   UNL     1      31.042 -22.372 -17.651  0.00  0.00    +0.143 HD
ENDROOT
BRANCH   1  14
ATOM     13  O4* UNL     1      35.181 -23.935 -12.451  0.00  0.00    -0.333 OA
ATOM     14  C1* UNL     1      34.938 -24.898 -13.494  0.00  0.00    +0.227 C 
ATOM     15  C2* UNL     1      36.307 -25.345 -13.985  0.00  0.00    +0.187 C 
ATOM     16  C3* UNL     1      37.116 -25.298 -12.705  0.00  0.00    +0.171 C 
ATOM     17  C4* UNL     1      36.552 -24.063 -12.009  0.00  0.00    +0.175 C 
BRANCH  15  18
ATOM     18  O2* UNL     1      36.263 -26.633 -14.566  0.00  0.00    -0.378 OA
ATOM     19  H2* UNL     1      35.454 -26.722 -15.093  0.00  0.00    +0.211 HD
ENDBRANCH  15  18
BRANCH  16  20
ATOM     20  O3* UNL     1      36.822 -26.449 -11.913  0.00  0.00    -0.379 OA
ATOM     21  H3* UNL     1      36.530 -27.172 -12.489  0.00  0.00    +0.211 HD
ENDBRANCH  16  20
BRANCH  17  22
ATOM     22  C5* UNL     1      37.295 -22.786 -12.372  0.00  0.00    +0.169 C 
BRANCH  22  23
ATOM     23  O5* UNL     1      38.498 -22.732 -11.624  0.00  0.00    -0.379 OA
ATOM     24  H5* UNL     1      38.437 -23.340 -10.871  0.00  0.00    +0.211 HD
ENDBRANCH  22  23
ENDBRANCH  17  22
ENDBRANCH   1  14
BRANCH   7  26
ATOM     25  N   UNL     1      33.605 -22.520 -18.908  0.00  0.00    -0.191 NA
ATOM     26  C   UNL     1      33.544 -22.920 -17.812  0.00  0.00    +0.098 C 
ENDBRANCH   7  26
TORSDOF 6
ENDMDL
MODEL 3
REMARK VINA RESULT:      -8.4      1.869      2.631
REMARK  Name = 11824
REMARK  6 active torsions:
REMARK  status: ('A' for Active; 'I' for Inactive)
REMARK    1  A    between atoms: N_1  and  C1*_11
REMARK    2  A    between atoms: C_7  and  C_26
REMARK    3  A    between atoms: C2*_12  and  O2*_15
REMARK    4  A    between atoms: C3*_13  and  O3*_17
REMARK    5  A    between atoms: C4*_14  and  C5*_19
REMARK    6  A    between atoms: C5*_19  and  O5*_20
REMARK                            x       y       z     vdW  Elec       q    Type
REMARK                         _______ _______ _______ _____ _____    ______ ____
ROOT
ATOM      1  N   UNL     1      35.765 -23.115 -15.107  0.00  0.00    -0.249 N 
ATOM      2  N   UNL     1      36.904 -22.161 -17.007  0.00  0.00    -0.233 NA
ATOM      3  N   UNL     1      35.447 -21.839 -18.930  0.00  0.00    -0.234 NA
ATOM      4  C   UNL     1      35.809 -22.647 -16.396  0.00  0.00    +0.122 C 
ATOM      5  C   UNL     1      34.486 -23.531 -14.822  0.00  0.00    +0.075 C 
ATOM      6  C   UNL     1      34.538 -22.767 -16.943  0.00  0.00    +0.141 C 
ATOM      7  C   UNL     1      33.707 -23.327 -15.940  0.00  0.00    +0.075 C 
ATOM      8  C   UNL     1      34.383 -22.337 -18.261  0.00  0.00    +0.111 C 
ATOM      9  C   UNL     1      36.627 -21.782 -18.270  0.00  0.00    +0.252 C 
ATOM     10  N   UNL     1      33.137 -22.415 -18.909  0.00  0.00    -0.346 N 
ATOM     11  H   UNL     1      33.045 -22.108 -19.840  0.00  0.00    +0.143 HD
ATOM     12  H   UNL     1      32.355 -22.777 -18.432  0.00  0.00    +0.143 HD
ENDROOT
BRANCH   1  14
ATOM     13  O4* UNL     1      37.962 -23.938 -14.752  0.00  0.00    -0.333 OA
ATOM     14  C1* UNL     1      36.890 -23.169 -14.175  0.00  0.00    +0.227 C 
ATOM     15  C2* UNL     1      36.561 -23.831 -12.846  0.00  0.00    +0.187 C 
ATOM     16  C3* UNL     1      37.929 -24.308 -12.400  0.00  0.00    +0.171 C 
ATOM     17  C4* UNL     1      38.563 -24.749 -13.716  0.00  0.00    +0.175 C 
BRANCH  15  18
ATOM     18  O2* UNL     1      35.969 -22.924 -11.938  0.00  0.00    -0.378 OA
ATOM     19  H2* UNL     1      36.253 -22.022 -12.152  0.00  0.00    +0.211 HD
ENDBRANCH  15  18
BRANCH  16  20
ATOM     20  O3* UNL     1      38.671 -23.206 -11.877  0.00  0.00    -0.379 OA
ATOM     21  H3* UNL     1      39.541 -23.514 -11.580  0.00  0.00    +0.211 HD
ENDBRANCH  16  20
BRANCH  17  22
ATOM     22  C5* UNL     1      38.302 -26.213 -14.040  0.00  0.00    +0.169 C 
BRANCH  22  23
ATOM     23  O5* UNL     1      38.012 -26.327 -15.423  0.00  0.00    -0.379 OA
ATOM     24  H5* UNL     1      37.093 -26.061 -15.583  0.00  0.00    +0.211 HD
ENDBRANCH  22  23
ENDBRANCH  17  22
ENDBRANCH   1  14
BRANCH   7  26
ATOM     25  N   UNL     1      31.182 -23.900 -16.077  0.00  0.00    -0.191 NA
ATOM     26  C   UNL     1      32.319 -23.642 -16.016  0.00  0.00    +0.098 C 
ENDBRANCH   7  26
TORSDOF 6
ENDMDL
MODEL 4
REMARK VINA RESULT:      -8.3      1.615      3.755
REMARK  Name = 11824
REMARK  6 active torsions:
REMARK  status: ('A' for Active; 'I' for Inactive)
REMARK    1  A    between atoms: N_1  and  C1*_11
REMARK    2  A    between atoms: C_7  and  C_26
REMARK    3  A    between atoms: C2*_12  and  O2*_15
REMARK    4  A    between atoms: C3*_13  and  O3*_17
REMARK    5  A    between atoms: C4*_14  and  C5*_19
REMARK    6  A    between atoms: C5*_19  and  O5*_20
REMARK                            x       y       z     vdW  Elec       q    Type
REMARK                         _______ _______ _______ _____ _____    ______ ____
ROOT
ATOM      1  N   UNL     1      36.006 -23.423 -14.891  0.00  0.00    -0.249 N 
ATOM      2  N   UNL     1      33.811 -24.044 -14.107  0.00  0.00    -0.233 NA
ATOM      3  N   UNL     1      32.061 -23.639 -15.751  0.00  0.00    -0.234 NA
ATOM      4  C   UNL     1      34.648 -23.556 -15.040  0.00  0.00    +0.122 C 
ATOM      5  C   UNL     1      36.535 -22.891 -16.043  0.00  0.00    +0.075 C 
ATOM      6  C   UNL     1      34.305 -23.101 -16.307  0.00  0.00    +0.141 C 
ATOM      7  C   UNL     1      35.506 -22.683 -16.934  0.00  0.00    +0.075 C 
ATOM      8  C   UNL     1      32.954 -23.158 -16.646  0.00  0.00    +0.111 C 
ATOM      9  C   UNL     1      32.538 -24.047 -14.552  0.00  0.00    +0.252 C 
ATOM     10  N   UNL     1      32.501 -22.723 -17.905  0.00  0.00    -0.346 N 
ATOM     11  H   UNL     1      31.543 -22.770 -18.127  0.00  0.00    +0.143 HD
ATOM     12  H   UNL     1      33.142 -22.371 -18.564  0.00  0.00    +0.143 HD
ENDROOT
BRANCH   1  14
ATOM     13  O4* UNL     1      38.176 -23.531 -13.937  0.00  0.00    -0.333 OA
ATOM     14  C1* UNL     1      36.777 -23.784 -13.703  0.00  0.00    +0.227 C 
ATOM     15  C2* UNL     1      36.671 -25.253 -13.319  0.00  0.00    +0.187 C 
ATOM     16  C3* UNL     1      37.964 -25.458 -12.555  0.00  0.00    +0.171 C 
ATOM     17  C4* UNL     1      38.948 -24.601 -13.345  0.00  0.00    +0.175 C 
BRANCH  15  18
ATOM     18  O2* UNL     1      35.521 -25.511 -12.540  0.00  0.00    -0.378 OA
ATOM     19  H2* UNL     1      35.055 -26.282 -12.899  0.00  0.00    +0.211 HD
ENDBRANCH  15  18
BRANCH  16  20
ATOM     20  O3* UNL     1      37.832 -24.916 -11.241  0.00  0.00    -0.379 OA
ATOM     21  H3* UNL     1      37.073 -25.325 -10.797  0.00  0.00    +0.211 HD
ENDBRANCH  16  20
BRANCH  17  22
ATOM     22  C5* UNL     1      39.639 -25.369 -14.463  0.00  0.00    +0.169 C 
BRANCH  22  23
ATOM     23  O5* UNL     1      40.985 -24.934 -14.548  0.00  0.00    -0.379 OA
ATOM     24  H5* UNL     1      41.238 -24.502 -13.717  0.00  0.00    +0.211 HD
ENDBRANCH  22  23
ENDBRANCH  17  22
ENDBRANCH   1  14
BRANCH   7  26
ATOM     25  N   UNL     1      35.819 -21.696 -19.312  0.00  0.00    -0.191 NA
ATOM     26  C   UNL     1      35.677 -22.140 -18.241  0.00  0.00    +0.098 C 
ENDBRANCH   7  26
TORSDOF 6
ENDMDL
MODEL 5
REMARK VINA RESULT:      -8.0      3.367      6.252
REMARK  Name = 11824
REMARK  6 active torsions:
REMARK  status: ('A' for Active; 'I' for Inactive)
REMARK    1  A    between atoms: N_1  and  C1*_11
REMARK    2  A    between atoms: C_7  and  C_26
REMARK    3  A    between atoms: C2*_12  and  O2*_15
REMARK    4  A    between atoms: C3*_13  and  O3*_17
REMARK    5  A    between atoms: C4*_14  and  C5*_19
REMARK    6  A    between atoms: C5*_19  and  O5*_20
REMARK                            x       y       z     vdW  Elec       q    Type
REMARK                         _______ _______ _______ _____ _____    ______ ____
ROOT
ATOM      1  N   UNL     1      33.438 -23.530 -15.711  0.00  0.00    -0.249 N 
ATOM      2  N   UNL     1      35.082 -23.746 -13.959  0.00  0.00    -0.233 NA
ATOM      3  N   UNL     1      37.308 -23.040 -14.647  0.00  0.00    -0.234 NA
ATOM      4  C   UNL     1      34.710 -23.418 -15.210  0.00  0.00    +0.122 C 
ATOM      5  C   UNL     1      33.430 -23.106 -17.019  0.00  0.00    +0.075 C 
ATOM      6  C   UNL     1      35.528 -22.915 -16.213  0.00  0.00    +0.141 C 
ATOM      7  C   UNL     1      34.709 -22.720 -17.354  0.00  0.00    +0.075 C 
ATOM      8  C   UNL     1      36.872 -22.729 -15.889  0.00  0.00    +0.111 C 
ATOM      9  C   UNL     1      36.397 -23.523 -13.771  0.00  0.00    +0.252 C 
ATOM     10  N   UNL     1      37.784 -22.224 -16.833  0.00  0.00    -0.346 N 
ATOM     11  H   UNL     1      38.729 -22.100 -16.587  0.00  0.00    +0.143 HD
ATOM     12  H   UNL     1      37.478 -21.995 -17.740  0.00  0.00    +0.143 HD
ENDROOT
BRANCH   1  14
ATOM     13  O4* UNL     1      31.219 -24.347 -15.913  0.00  0.00    -0.333 OA
ATOM     14  C1* UNL     1      32.270 -24.021 -14.983  0.00  0.00    +0.227 C 
ATOM     15  C2* UNL     1      31.676 -23.011 -14.011  0.00  0.00    +0.187 C 
ATOM     16  C3* UNL     1      30.241 -23.490 -13.918  0.00  0.00    +0.171 C 
ATOM     17  C4* UNL     1      29.953 -23.931 -15.350  0.00  0.00    +0.175 C 
BRANCH  15  18
ATOM     18  O2* UNL     1      32.346 -23.023 -12.766  0.00  0.00    -0.378 OA
ATOM     19  H2* UNL     1      32.336 -23.922 -12.403  0.00  0.00    +0.211 HD
ENDBRANCH  15  18
BRANCH  16  20
ATOM     20  O3* UNL     1      30.174 -24.629 -13.062  0.00  0.00    -0.379 OA
ATOM     21  H3* UNL     1      29.271 -24.726 -12.723  0.00  0.00    +0.211 HD
ENDBRANCH  16  20
BRANCH  17  22
ATOM     22  C5* UNL     1      29.387 -22.813 -16.213  0.00  0.00    +0.169 C 
BRANCH  22  23
ATOM     23  O5* UNL     1      28.492 -22.044 -15.430  0.00  0.00    -0.379 OA
ATOM     24  H5* UNL     1      28.382 -21.168 -15.832  0.00  0.00    +0.211 HD
ENDBRANCH  22  23
ENDBRANCH  17  22
ENDBRANCH   1  14
BRANCH   7  26
ATOM     25  N   UNL     1      35.389 -21.813 -19.687  0.00  0.00    -0.191 NA
ATOM     26  C   UNL     1      35.084 -22.221 -18.636  0.00  0.00    +0.098 C 
ENDBRANCH   7  26
TORSDOF 6
ENDMDL
MODEL 6
REMARK VINA RESULT:      -7.8      1.689      2.348
REMARK  Name = 11824
REMARK  6 active torsions:
REMARK  status: ('A' for Active; 'I' for Inactive)
REMARK    1  A    between atoms: N_1  and  C1*_11
REMARK    2  A    between atoms: C_7  and  C_26
REMARK    3  A    between atoms: C2*_12  and  O2*_15
REMARK    4  A    between atoms: C3*_13  and  O3*_17
REMARK    5  A    between atoms: C4*_14  and  C5*_19
REMARK    6  A    between atoms: C5*_19  and  O5*_20
REMARK                            x       y       z     vdW  Elec       q    Type
REMARK                         _______ _______ _______ _____ _____    ______ ____
ROOT
ATOM      1  N   UNL     1      35.037 -23.497 -16.087  0.00  0.00    -0.249 N 
ATOM      2  N   UNL     1      36.331 -22.444 -17.829  0.00  0.00    -0.233 NA
ATOM      3  N   UNL     1      34.954 -21.385 -19.534  0.00  0.00    -0.234 NA
ATOM      4  C   UNL     1      35.165 -22.784 -17.253  0.00  0.00    +0.122 C 
ATOM      5  C   UNL     1      33.701 -23.658 -15.802  0.00  0.00    +0.075 C 
ATOM      6  C   UNL     1      33.891 -22.485 -17.719  0.00  0.00    +0.141 C 
ATOM      7  C   UNL     1      32.971 -23.042 -16.795  0.00  0.00    +0.075 C 
ATOM      8  C   UNL     1      33.815 -21.757 -18.906  0.00  0.00    +0.111 C 
ATOM      9  C   UNL     1      36.126 -21.747 -18.964  0.00  0.00    +0.252 C 
ATOM     10  N   UNL     1      32.574 -21.402 -19.464  0.00  0.00    -0.346 N 
ATOM     11  H   UNL     1      32.539 -20.888 -20.303  0.00  0.00    +0.143 HD
ATOM     12  H   UNL     1      31.738 -21.668 -19.016  0.00  0.00    +0.143 HD
ENDROOT
BRANCH   1  14
ATOM     13  O4* UNL     1      35.634 -24.990 -14.342  0.00  0.00    -0.333 OA
ATOM     14  C1* UNL     1      36.135 -24.010 -15.271  0.00  0.00    +0.227 C 
ATOM     15  C2* UNL     1      36.831 -22.948 -14.432  0.00  0.00    +0.187 C 
ATOM     16  C3* UNL     1      37.405 -23.783 -13.305  0.00  0.00    +0.171 C 
ATOM     17  C4* UNL     1      36.306 -24.816 -13.074  0.00  0.00    +0.175 C 
BRANCH  15  18
ATOM     18  O2* UNL     1      37.820 -22.259 -15.170  0.00  0.00    -0.378 OA
ATOM     19  H2* UNL     1      37.545 -22.195 -16.097  0.00  0.00    +0.211 HD
ENDBRANCH  15  18
BRANCH  16  20
ATOM     20  O3* UNL     1      38.580 -24.454 -13.761  0.00  0.00    -0.379 OA
ATOM     21  H3* UNL     1      38.642 -25.323 -13.335  0.00  0.00    +0.211 HD
ENDBRANCH  16  20
BRANCH  17  22
ATOM     22  C5* UNL     1      35.279 -24.368 -12.044  0.00  0.00    +0.169 C 
BRANCH  22  23
ATOM     23  O5* UNL     1      33.987 -24.719 -12.509  0.00  0.00    -0.379 OA
ATOM     24  H5* UNL     1      33.332 -24.526 -11.821  0.00  0.00    +0.211 HD
ENDBRANCH  22  23
ENDBRANCH  17  22
ENDBRANCH   1  14
BRANCH   7  26
ATOM     25  N   UNL     1      30.380 -22.974 -16.864  0.00  0.00    -0.191 NA
ATOM     26  C   UNL     1      31.547 -23.004 -16.833  0.00  0.00    +0.098 C 
ENDBRANCH   7  26
TORSDOF 6
ENDMDL
MODEL 7
REMARK VINA RESULT:      -7.8      1.227      2.327
REMARK  Name = 11824
REMARK  6 active torsions:
REMARK  status: ('A' for Active; 'I' for Inactive)
REMARK    1  A    between atoms: N_1  and  C1*_11
REMARK    2  A    between atoms: C_7  and  C_26
REMARK    3  A    between atoms: C2*_12  and  O2*_15
REMARK    4  A    between atoms: C3*_13  and  O3*_17
REMARK    5  A    between atoms: C4*_14  and  C5*_19
REMARK    6  A    between atoms: C5*_19  and  O5*_20
REMARK                            x       y       z     vdW  Elec       q    Type
REMARK                         _______ _______ _______ _____ _____    ______ ____
ROOT
ATOM      1  N   UNL     1      34.149 -24.226 -14.628  0.00  0.00    -0.249 N 
ATOM      2  N   UNL     1      34.604 -23.321 -16.817  0.00  0.00    -0.233 NA
ATOM      3  N   UNL     1      32.596 -22.589 -17.984  0.00  0.00    -0.234 NA
ATOM      4  C   UNL     1      33.768 -23.663 -15.820  0.00  0.00    +0.122 C 
ATOM      5  C   UNL     1      33.032 -24.440 -13.854  0.00  0.00    +0.075 C 
ATOM      6  C   UNL     1      32.387 -23.516 -15.808  0.00  0.00    +0.141 C 
ATOM      7  C   UNL     1      31.930 -24.009 -14.560  0.00  0.00    +0.075 C 
ATOM      8  C   UNL     1      31.809 -22.954 -16.946  0.00  0.00    +0.111 C 
ATOM      9  C   UNL     1      33.928 -22.793 -17.857  0.00  0.00    +0.252 C 
ATOM     10  N   UNL     1      30.418 -22.761 -17.036  0.00  0.00    -0.346 N 
ATOM     11  H   UNL     1      30.027 -22.363 -17.847  0.00  0.00    +0.143 HD
ATOM     12  H   UNL     1      29.836 -23.023 -16.287  0.00  0.00    +0.143 HD
ENDROOT
BRANCH   1  14
ATOM     13  O4* UNL     1      36.312 -23.350 -14.195  0.00  0.00    -0.333 OA
ATOM     14  C1* UNL     1      35.517 -24.551 -14.232  0.00  0.00    +0.227 C 
ATOM     15  C2* UNL     1      36.228 -25.500 -15.185  0.00  0.00    +0.187 C 
ATOM     16  C3* UNL     1      37.681 -25.156 -14.925  0.00  0.00    +0.171 C 
ATOM     17  C4* UNL     1      37.626 -23.645 -14.723  0.00  0.00    +0.175 C 
BRANCH  15  18
ATOM     18  O2* UNL     1      35.921 -26.852 -14.908  0.00  0.00    -0.378 OA
ATOM     19  H2* UNL     1      36.731 -27.320 -14.651  0.00  0.00    +0.211 HD
ENDBRANCH  15  18
BRANCH  16  20
ATOM     20  O3* UNL     1      38.105 -25.769 -13.707  0.00  0.00    -0.379 OA
ATOM     21  H3* UNL     1      38.363 -26.687 -13.880  0.00  0.00    +0.211 HD
ENDBRANCH  16  20
BRANCH  17  22
ATOM     22  C5* UNL     1      37.808 -22.866 -16.017  0.00  0.00    +0.169 C 
BRANCH  22  23
ATOM     23  O5* UNL     1      36.918 -21.764 -16.013  0.00  0.00    -0.379 OA
ATOM     24  H5* UNL     1      36.852 -21.405 -15.114  0.00  0.00    +0.211 HD
ENDBRANCH  22  23
ENDBRANCH  17  22
ENDBRANCH   1  14
BRANCH   7  26
ATOM     25  N   UNL     1      29.496 -24.127 -13.672  0.00  0.00    -0.191 NA
ATOM     26  C   UNL     1      30.593 -24.075 -14.071  0.00  0.00    +0.098 C 
ENDBRANCH   7  26
TORSDOF 6
ENDMDL
MODEL 8
REMARK VINA RESULT:      -7.6      3.244      5.567
REMARK  Name = 11824
REMARK  6 active torsions:
REMARK  status: ('A' for Active; 'I' for Inactive)
REMARK    1  A    between atoms: N_1  and  C1*_11
REMARK    2  A    between atoms: C_7  and  C_26
REMARK    3  A    between atoms: C2*_12  and  O2*_15
REMARK    4  A    between atoms: C3*_13  and  O3*_17
REMARK    5  A    between atoms: C4*_14  and  C5*_19
REMARK    6  A    between atoms: C5*_19  and  O5*_20
REMARK                            x       y       z     vdW  Elec       q    Type
REMARK                         _______ _______ _______ _____ _____    ______ ____
ROOT
ATOM      1  N   UNL     1      33.918 -23.340 -14.758  0.00  0.00    -0.249 N 
ATOM      2  N   UNL     1      35.355 -22.417 -16.460  0.00  0.00    -0.233 NA
ATOM      3  N   UNL     1      37.713 -22.892 -16.081  0.00  0.00    -0.234 NA
ATOM      4  C   UNL     1      35.146 -23.108 -15.326  0.00  0.00    +0.122 C 
ATOM      5  C   UNL     1      34.086 -24.077 -13.609  0.00  0.00    +0.075 C 
ATOM      6  C   UNL     1      36.112 -23.705 -14.527  0.00  0.00    +0.141 C 
ATOM      7  C   UNL     1      35.433 -24.316 -13.443  0.00  0.00    +0.075 C 
ATOM      8  C   UNL     1      37.436 -23.576 -14.947  0.00  0.00    +0.111 C 
ATOM      9  C   UNL     1      36.669 -22.362 -16.759  0.00  0.00    +0.252 C 
ATOM     10  N   UNL     1      38.491 -24.144 -14.210  0.00  0.00    -0.346 N 
ATOM     11  H   UNL     1      39.420 -24.042 -14.521  0.00  0.00    +0.143 HD
ATOM     12  H   UNL     1      38.302 -24.643 -13.383  0.00  0.00    +0.143 HD
ENDROOT
BRANCH   1  14
ATOM     13  O4* UNL     1      31.635 -22.951 -14.241  0.00  0.00    -0.333 OA
ATOM     14  C1* UNL     1      32.632 -22.883 -15.279  0.00  0.00    +0.227 C 
ATOM     15  C2* UNL     1      32.099 -23.720 -16.432  0.00  0.00    +0.187 C 
ATOM     16  C3* UNL     1      30.608 -23.464 -16.327  0.00  0.00    +0.171 C 
ATOM     17  C4* UNL     1      30.394 -23.417 -14.817  0.00  0.00    +0.175 C 
BRANCH  15  18
ATOM     18  O2* UNL     1      32.643 -23.315 -17.672  0.00  0.00    -0.378 OA
ATOM     19  H2* UNL     1      31.961 -22.864 -18.192  0.00  0.00    +0.211 HD
ENDBRANCH  15  18
BRANCH  16  20
ATOM     20  O3* UNL     1      30.306 -22.182 -16.876  0.00  0.00    -0.379 OA
ATOM     21  H3* UNL     1      31.130 -21.717 -17.086  0.00  0.00    +0.211 HD
ENDBRANCH  16  20
BRANCH  17  22
ATOM     22  C5* UNL     1      30.070 -24.780 -14.221  0.00  0.00    +0.169 C 
BRANCH  22  23
ATOM     23  O5* UNL     1      30.542 -24.814 -12.885  0.00  0.00    -0.379 OA
ATOM     24  H5* UNL     1      29.793 -24.932 -12.281  0.00  0.00    +0.211 HD
ENDBRANCH  22  23
ENDBRANCH  17  22
ENDBRANCH   1  14
BRANCH   7  26
ATOM     25  N   UNL     1      36.440 -25.656 -11.464  0.00  0.00    -0.191 NA
ATOM     26  C   UNL     1      35.986 -25.053 -12.356  0.00  0.00    +0.098 C 
ENDBRANCH   7  26
TORSDOF 6
ENDMDL
MODEL 9
REMARK VINA RESULT:      -7.6      3.163      6.138
REMARK  Name = 11824
REMARK  6 active torsions:
REMARK  status: ('A' for Active; 'I' for Inactive)
REMARK    1  A    between atoms: N_1  and  C1*_11
REMARK    2  A    between atoms: C_7  and  C_26
REMARK    3  A    between atoms: C2*_12  and  O2*_15
REMARK    4  A    between atoms: C3*_13  and  O3*_17
REMARK    5  A    between atoms: C4*_14  and  C5*_19
REMARK    6  A    between atoms: C5*_19  and  O5*_20
REMARK                            x       y       z     vdW  Elec       q    Type
REMARK                         _______ _______ _______ _____ _____    ______ ____
ROOT
ATOM      1  N   UNL     1      35.121 -24.389 -14.678  0.00  0.00    -0.249 N 
ATOM      2  N   UNL     1      35.928 -26.439 -15.661  0.00  0.00    -0.233 NA
ATOM      3  N   UNL     1      38.154 -27.056 -14.890  0.00  0.00    -0.234 NA
ATOM      4  C   UNL     1      36.062 -25.373 -14.852  0.00  0.00    +0.122 C 
ATOM      5  C   UNL     1      35.599 -23.463 -13.781  0.00  0.00    +0.075 C 
ATOM      6  C   UNL     1      37.158 -25.070 -14.053  0.00  0.00    +0.141 C 
ATOM      7  C   UNL     1      36.856 -23.860 -13.379  0.00  0.00    +0.075 C 
ATOM      8  C   UNL     1      38.227 -25.964 -14.095  0.00  0.00    +0.111 C 
ATOM      9  C   UNL     1      37.023 -27.223 -15.614  0.00  0.00    +0.252 C 
ATOM     10  N   UNL     1      39.385 -25.750 -13.324  0.00  0.00    -0.346 N 
ATOM     11  H   UNL     1      40.130 -26.392 -13.366  0.00  0.00    +0.143 HD
ATOM     12  H   UNL     1      39.449 -24.959 -12.742  0.00  0.00    +0.143 HD
ENDROOT
BRANCH   1  14
ATOM     13  O4* UNL     1      33.985 -24.454 -16.760  0.00  0.00    -0.333 OA
ATOM     14  C1* UNL     1      33.818 -24.324 -15.336  0.00  0.00    +0.227 C 
ATOM     15  C2* UNL     1      33.078 -23.013 -15.114  0.00  0.00    +0.187 C 
ATOM     16  C3* UNL     1      32.176 -22.966 -16.331  0.00  0.00    +0.171 C 
ATOM     17  C4* UNL     1      33.071 -23.548 -17.421  0.00  0.00    +0.175 C 
BRANCH  15  18
ATOM     18  O2* UNL     1      32.363 -23.012 -13.895  0.00  0.00    -0.378 OA
ATOM     19  H2* UNL     1      31.553 -22.490 -13.996  0.00  0.00    +0.211 HD
ENDBRANCH  15  18
BRANCH  16  20
ATOM     20  O3* UNL     1      31.064 -23.840 -16.133  0.00  0.00    -0.379 OA
ATOM     21  H3* UNL     1      31.382 -24.705 -15.832  0.00  0.00    +0.211 HD
ENDBRANCH  16  20
BRANCH  17  22
ATOM     22  C5* UNL     1      33.887 -22.487 -18.146  0.00  0.00    +0.169 C 
BRANCH  22  23
ATOM     23  O5* UNL     1      33.128 -22.000 -19.240  0.00  0.00    -0.379 OA
ATOM     24  H5* UNL     1      33.138 -22.654 -19.957  0.00  0.00    +0.211 HD
ENDBRANCH  22  23
ENDBRANCH  17  22
ENDBRANCH   1  14
BRANCH   7  26
ATOM     25  N   UNL     1      38.322 -22.552 -11.687  0.00  0.00    -0.191 NA
ATOM     26  C   UNL     1      37.661 -23.141 -12.449  0.00  0.00    +0.098 C 
ENDBRANCH   7  26
TORSDOF 6
ENDMDL
