MODEL 1
REMARK VINA RESULT:     -10.1      0.000      0.000
REMARK  Name = 10366136
REMARK  5 active torsions:
REMARK  status: ('A' for Active; 'I' for Inactive)
REMARK    1  A    between atoms: C_4  and  N_20
REMARK    2  A    between atoms: C_7  and  O_30
REMARK    3  A    between atoms: C_21  and  N_26
REMARK    4  A    between atoms: O_30  and  C_31
REMARK    5  A    between atoms: C_31  and  C_33
REMARK                            x       y       z     vdW  Elec       q    Type
REMARK                         _______ _______ _______ _____ _____    ______ ____
ROOT
ATOM      1  N   UNL     1      33.633 -10.847 -23.725  0.00  0.00    -0.389 NA
ATOM      2  N   UNL     1      33.966 -12.923 -24.761  0.00  0.00    -0.240 N 
ATOM      3  N   UNL     1      33.701 -14.992 -25.550  0.00  0.00    -0.246 NA
ATOM      4  C   UNL     1      33.277  -8.766 -22.641  0.00  0.00    +0.133 C 
ATOM      5  C   UNL     1      33.781  -9.508 -23.727  0.00  0.00    +0.129 C 
ATOM      6  C   UNL     1      33.429  -7.360 -22.636  0.00  0.00    -0.003 C 
ATOM      7  C   UNL     1      33.703 -15.862 -21.915  0.00  0.00    +0.122 C 
ATOM      8  C   UNL     1      34.427  -8.833 -24.783  0.00  0.00    +0.027 C 
ATOM      9  C   UNL     1      34.123 -11.546 -24.775  0.00  0.00    +0.188 C 
ATOM     10  C   UNL     1      34.066  -6.702 -23.680  0.00  0.00    -0.003 C 
ATOM     11  C   UNL     1      33.902 -13.741 -23.656  0.00  0.00    +0.069 C 
ATOM     12  C   UNL     1      33.636 -16.110 -23.291  0.00  0.00    +0.053 C 
ATOM     13  C   UNL     1      34.564  -7.435 -24.752  0.00  0.00    +0.002 C 
ATOM     14  C   UNL     1      33.737 -15.022 -24.175  0.00  0.00    +0.094 C 
ATOM     15  C   UNL     1      33.868 -14.564 -21.424  0.00  0.00    +0.091 C 
ATOM     16  C   UNL     1      34.920  -9.595 -25.851  0.00  0.00    +0.006 C 
ATOM     17  C   UNL     1      33.972 -13.469 -22.289  0.00  0.00    -0.002 C 
ATOM     18  C   UNL     1      34.768 -10.974 -25.852  0.00  0.00    +0.048 C 
ATOM     19  C   UNL     1      33.841 -13.725 -25.867  0.00  0.00    +0.226 C 
ENDROOT
BRANCH   4  20
ATOM     20  N   UNL     1      32.627  -9.391 -21.569  0.00  0.00    -0.265 NA
ATOM     21  C   UNL     1      31.160 -10.643 -19.418  0.00  0.00    -0.063 C 
ATOM     22  C   UNL     1      31.441 -11.379 -20.727  0.00  0.00    -0.004 C 
ATOM     23  C   UNL     1      32.268  -9.627 -19.144  0.00  0.00    -0.004 C 
ATOM     24  C   UNL     1      31.612 -10.403 -21.890  0.00  0.00    +0.071 C 
ATOM     25  C   UNL     1      32.441  -8.657 -20.312  0.00  0.00    +0.071 C 
BRANCH  21  26
ATOM     26  N   UNL     1      31.036 -11.576 -18.325  0.00  0.00    +0.382 N 
ATOM     27  H   UNL     1      31.505 -12.449 -18.569  0.00  0.00    -0.089 HD
ATOM     28  H   UNL     1      30.050 -11.760 -18.145  0.00  0.00    -0.089 HD
ATOM     29  H   UNL     1      31.467 -11.181 -17.490  0.00  0.00    -0.089 HD
ENDBRANCH  21  26
ENDBRANCH   4  20
BRANCH   7  30
ATOM     30  O   UNL     1      33.607 -16.904 -21.041  0.00  0.00    -0.479 OA
BRANCH  30  31
ATOM     31  C   UNL     1      34.750 -17.745 -20.909  0.00  0.00    +0.210 C 
BRANCH  31  33
ATOM     32  O   UNL     1      33.518 -20.534 -19.966  0.00  0.00    -0.353 OA
ATOM     33  C   UNL     1      34.371 -19.148 -21.343  0.00  0.00    +0.095 C 
ATOM     34  C   UNL     1      32.978 -19.576 -20.904  0.00  0.00    +0.148 C 
ATOM     35  C   UNL     1      34.865 -20.239 -20.402  0.00  0.00    +0.148 C 
ATOM     36  C   UNL     1      34.677 -19.383 -22.800  0.00  0.00    +0.009 C 
ENDBRANCH  31  33
ENDBRANCH  30  31
ENDBRANCH   7  30
TORSDOF 5
ENDMDL
MODEL 2
REMARK VINA RESULT:      -8.4      3.502      9.236
REMARK  Name = 10366136
REMARK  5 active torsions:
REMARK  status: ('A' for Active; 'I' for Inactive)
REMARK    1  A    between atoms: C_4  and  N_20
REMARK    2  A    between atoms: C_7  and  O_30
REMARK    3  A    between atoms: C_21  and  N_26
REMARK    4  A    between atoms: O_30  and  C_31
REMARK    5  A    between atoms: C_31  and  C_33
REMARK                            x       y       z     vdW  Elec       q    Type
REMARK                         _______ _______ _______ _____ _____    ______ ____
ROOT
ATOM      1  N   UNL     1      32.986 -13.944 -22.288  0.00  0.00    -0.389 NA
ATOM      2  N   UNL     1      32.121 -12.229 -20.945  0.00  0.00    -0.240 N 
ATOM      3  N   UNL     1      30.871 -10.578 -20.118  0.00  0.00    -0.246 NA
ATOM      4  C   UNL     1      33.855 -15.656 -23.683  0.00  0.00    +0.133 C 
ATOM      5  C   UNL     1      33.547 -15.164 -22.399  0.00  0.00    +0.129 C 
ATOM      6  C   UNL     1      34.444 -16.935 -23.809  0.00  0.00    -0.003 C 
ATOM      7  C   UNL     1      32.209  -8.729 -23.078  0.00  0.00    +0.122 C 
ATOM      8  C   UNL     1      33.835 -15.957 -21.270  0.00  0.00    +0.027 C 
ATOM      9  C   UNL     1      32.696 -13.485 -21.048  0.00  0.00    +0.188 C 
ATOM     10  C   UNL     1      34.724 -17.711 -22.691  0.00  0.00    -0.003 C 
ATOM     11  C   UNL     1      32.293 -11.164 -21.799  0.00  0.00    +0.069 C 
ATOM     12  C   UNL     1      31.458  -8.904 -21.910  0.00  0.00    +0.053 C 
ATOM     13  C   UNL     1      34.421 -17.225 -21.423  0.00  0.00    +0.002 C 
ATOM     14  C   UNL     1      31.504 -10.150 -21.262  0.00  0.00    +0.094 C 
ATOM     15  C   UNL     1      32.990  -9.766 -23.593  0.00  0.00    +0.091 C 
ATOM     16  C   UNL     1      33.519 -15.443 -20.004  0.00  0.00    +0.006 C 
ATOM     17  C   UNL     1      33.050 -11.013 -22.962  0.00  0.00    -0.002 C 
ATOM     18  C   UNL     1      32.940 -14.188 -19.886  0.00  0.00    +0.048 C 
ATOM     19  C   UNL     1      31.261 -11.822 -19.956  0.00  0.00    +0.226 C 
ENDROOT
BRANCH   4  20
ATOM     20  N   UNL     1      33.587 -14.907 -24.836  0.00  0.00    -0.265 NA
ATOM     21  C   UNL     1      33.134 -13.441 -27.283  0.00  0.00    -0.063 C 
ATOM     22  C   UNL     1      32.433 -14.770 -27.008  0.00  0.00    -0.004 C 
ATOM     23  C   UNL     1      33.429 -12.724 -25.966  0.00  0.00    -0.004 C 
ATOM     24  C   UNL     1      33.251 -15.645 -26.061  0.00  0.00    +0.071 C 
ATOM     25  C   UNL     1      34.241 -13.606 -25.017  0.00  0.00    +0.071 C 
BRANCH  21  26
ATOM     26  N   UNL     1      32.332 -12.612 -28.150  0.00  0.00    +0.382 N 
ATOM     27  H   UNL     1      31.346 -12.834 -28.017  0.00  0.00    -0.089 HD
ATOM     28  H   UNL     1      32.591 -12.785 -29.121  0.00  0.00    -0.089 HD
ATOM     29  H   UNL     1      32.492 -11.630 -27.926  0.00  0.00    -0.089 HD
ENDBRANCH  21  26
ENDBRANCH   4  20
BRANCH   7  30
ATOM     30  O   UNL     1      32.177  -7.527 -23.721  0.00  0.00    -0.479 OA
BRANCH  30  31
ATOM     31  C   UNL     1      32.466  -6.369 -22.942  0.00  0.00    +0.210 C 
BRANCH  31  33
ATOM     32  O   UNL     1      31.229  -4.166 -24.892  0.00  0.00    -0.353 OA
ATOM     33  C   UNL     1      31.346  -5.365 -23.133  0.00  0.00    +0.095 C 
ATOM     34  C   UNL     1      30.673  -5.441 -24.496  0.00  0.00    +0.148 C 
ATOM     35  C   UNL     1      31.821  -3.990 -23.584  0.00  0.00    +0.148 C 
ATOM     36  C   UNL     1      30.400  -5.355 -21.960  0.00  0.00    +0.009 C 
ENDBRANCH  31  33
ENDBRANCH  30  31
ENDBRANCH   7  30
TORSDOF 5
ENDMDL
MODEL 3
REMARK VINA RESULT:      -7.9      4.214      9.792
REMARK  Name = 10366136
REMARK  5 active torsions:
REMARK  status: ('A' for Active; 'I' for Inactive)
REMARK    1  A    between atoms: C_4  and  N_20
REMARK    2  A    between atoms: C_7  and  O_30
REMARK    3  A    between atoms: C_21  and  N_26
REMARK    4  A    between atoms: O_30  and  C_31
REMARK    5  A    between atoms: C_31  and  C_33
REMARK                            x       y       z     vdW  Elec       q    Type
REMARK                         _______ _______ _______ _____ _____    ______ ____
ROOT
ATOM      1  N   UNL     1      32.371 -10.885 -22.178  0.00  0.00    -0.389 NA
ATOM      2  N   UNL     1      32.023  -8.574 -22.012  0.00  0.00    -0.240 N 
ATOM      3  N   UNL     1      31.440  -6.459 -22.413  0.00  0.00    -0.246 NA
ATOM      4  C   UNL     1      32.737 -13.221 -22.390  0.00  0.00    +0.133 C 
ATOM      5  C   UNL     1      32.365 -12.107 -21.611  0.00  0.00    +0.129 C 
ATOM      6  C   UNL     1      32.733 -14.506 -21.802  0.00  0.00    -0.003 C 
ATOM      7  C   UNL     1      34.121  -6.716 -25.004  0.00  0.00    +0.122 C 
ATOM      8  C   UNL     1      31.999 -12.300 -20.263  0.00  0.00    +0.027 C 
ATOM      9  C   UNL     1      32.012  -9.825 -21.418  0.00  0.00    +0.188 C 
ATOM     10  C   UNL     1      32.371 -14.689 -20.473  0.00  0.00    -0.003 C 
ATOM     11  C   UNL     1      32.838  -8.147 -23.035  0.00  0.00    +0.069 C 
ATOM     12  C   UNL     1      33.106  -6.092 -24.269  0.00  0.00    +0.053 C 
ATOM     13  C   UNL     1      32.004 -13.588 -19.704  0.00  0.00    +0.002 C 
ATOM     14  C   UNL     1      32.455  -6.829 -23.265  0.00  0.00    +0.094 C 
ATOM     15  C   UNL     1      34.484  -8.041 -24.750  0.00  0.00    +0.091 C 
ATOM     16  C   UNL     1      31.634 -11.175 -19.511  0.00  0.00    +0.006 C 
ATOM     17  C   UNL     1      33.847  -8.789 -23.755  0.00  0.00    -0.002 C 
ATOM     18  C   UNL     1      31.638  -9.915 -20.093  0.00  0.00    +0.048 C 
ATOM     19  C   UNL     1      31.207  -7.523 -21.678  0.00  0.00    +0.226 C 
ENDROOT
BRANCH   4  20
ATOM     20  N   UNL     1      33.108 -13.081 -23.733  0.00  0.00    -0.265 NA
ATOM     21  C   UNL     1      33.968 -12.900 -26.485  0.00  0.00    -0.063 C 
ATOM     22  C   UNL     1      32.913 -13.914 -26.043  0.00  0.00    -0.004 C 
ATOM     23  C   UNL     1      33.917 -11.669 -25.582  0.00  0.00    -0.004 C 
ATOM     24  C   UNL     1      33.082 -14.287 -24.572  0.00  0.00    +0.071 C 
ATOM     25  C   UNL     1      34.078 -12.047 -24.109  0.00  0.00    +0.071 C 
BRANCH  21  26
ATOM     26  N   UNL     1      33.773 -12.532 -27.867  0.00  0.00    +0.382 N 
ATOM     27  H   UNL     1      32.986 -13.055 -28.250  0.00  0.00    -0.089 HD
ATOM     28  H   UNL     1      34.616 -12.749 -28.398  0.00  0.00    -0.089 HD
ATOM     29  H   UNL     1      33.579 -11.533 -27.929  0.00  0.00    -0.089 HD
ENDBRANCH  21  26
ENDBRANCH   4  20
BRANCH   7  30
ATOM     30  O   UNL     1      34.765  -6.018 -25.982  0.00  0.00    -0.479 OA
BRANCH  30  31
ATOM     31  C   UNL     1      33.979  -5.117 -26.758  0.00  0.00    +0.210 C 
BRANCH  31  33
ATOM     32  O   UNL     1      34.179  -2.668 -28.794  0.00  0.00    -0.353 OA
ATOM     33  C   UNL     1      34.904  -4.319 -27.658  0.00  0.00    +0.095 C 
ATOM     34  C   UNL     1      34.782  -2.811 -27.488  0.00  0.00    +0.148 C 
ATOM     35  C   UNL     1      34.349  -4.080 -29.055  0.00  0.00    +0.148 C 
ATOM     36  C   UNL     1      36.314  -4.849 -27.618  0.00  0.00    +0.009 C 
ENDBRANCH  31  33
ENDBRANCH  30  31
ENDBRANCH   7  30
TORSDOF 5
ENDMDL
MODEL 4
REMARK VINA RESULT:      -7.8      6.079     10.549
REMARK  Name = 10366136
REMARK  5 active torsions:
REMARK  status: ('A' for Active; 'I' for Inactive)
REMARK    1  A    between atoms: C_4  and  N_20
REMARK    2  A    between atoms: C_7  and  O_30
REMARK    3  A    between atoms: C_21  and  N_26
REMARK    4  A    between atoms: O_30  and  C_31
REMARK    5  A    between atoms: C_31  and  C_33
REMARK                            x       y       z     vdW  Elec       q    Type
REMARK                         _______ _______ _______ _____ _____    ______ ____
ROOT
ATOM      1  N   UNL     1      32.470  -6.471 -23.742  0.00  0.00    -0.389 NA
ATOM      2  N   UNL     1      32.117  -4.632 -25.149  0.00  0.00    -0.240 N 
ATOM      3  N   UNL     1      31.686  -3.329 -26.908  0.00  0.00    -0.246 NA
ATOM      4  C   UNL     1      32.853  -8.354 -22.348  0.00  0.00    +0.133 C 
ATOM      5  C   UNL     1      32.299  -7.074 -22.549  0.00  0.00    +0.129 C 
ATOM      6  C   UNL     1      32.677  -8.993 -21.099  0.00  0.00    -0.003 C 
ATOM      7  C   UNL     1      34.959  -4.681 -28.104  0.00  0.00    +0.122 C 
ATOM      8  C   UNL     1      31.584  -6.460 -21.500  0.00  0.00    +0.027 C 
ATOM      9  C   UNL     1      31.933  -5.242 -23.919  0.00  0.00    +0.188 C 
ATOM     10  C   UNL     1      31.971  -8.382 -20.070  0.00  0.00    -0.003 C 
ATOM     11  C   UNL     1      33.181  -4.795 -26.007  0.00  0.00    +0.069 C 
ATOM     12  C   UNL     1      33.792  -3.911 -28.167  0.00  0.00    +0.053 C 
ATOM     13  C   UNL     1      31.425  -7.117 -20.270  0.00  0.00    +0.002 C 
ATOM     14  C   UNL     1      32.887  -3.974 -27.093  0.00  0.00    +0.094 C 
ATOM     15  C   UNL     1      35.225  -5.497 -27.001  0.00  0.00    +0.091 C 
ATOM     16  C   UNL     1      31.044  -5.186 -21.727  0.00  0.00    +0.006 C 
ATOM     17  C   UNL     1      34.337  -5.572 -25.923  0.00  0.00    -0.002 C 
ATOM     18  C   UNL     1      31.218  -4.563 -22.954  0.00  0.00    +0.048 C 
ATOM     19  C   UNL     1      31.253  -3.743 -25.738  0.00  0.00    +0.226 C 
ENDROOT
BRANCH   4  20
ATOM     20  N   UNL     1      33.570  -9.006 -23.359  0.00  0.00    -0.265 NA
ATOM     21  C   UNL     1      35.099 -10.444 -25.343  0.00  0.00    -0.063 C 
ATOM     22  C   UNL     1      33.711 -10.913 -24.912  0.00  0.00    -0.004 C 
ATOM     23  C   UNL     1      35.205  -8.926 -25.199  0.00  0.00    -0.004 C 
ATOM     24  C   UNL     1      33.386 -10.458 -23.491  0.00  0.00    +0.071 C 
ATOM     25  C   UNL     1      34.871  -8.473 -23.777  0.00  0.00    +0.071 C 
BRANCH  21  26
ATOM     26  N   UNL     1      35.377 -10.851 -26.699  0.00  0.00    +0.382 N 
ATOM     27  H   UNL     1      36.294 -11.295 -26.740  0.00  0.00    -0.089 HD
ATOM     28  H   UNL     1      35.367 -10.034 -27.309  0.00  0.00    -0.089 HD
ATOM     29  H   UNL     1      34.666 -11.514 -27.008  0.00  0.00    -0.089 HD
ENDBRANCH  21  26
ENDBRANCH   4  20
BRANCH   7  30
ATOM     30  O   UNL     1      35.849  -4.633 -29.136  0.00  0.00    -0.479 OA
BRANCH  30  31
ATOM     31  C   UNL     1      36.900  -3.676 -29.040  0.00  0.00    +0.210 C 
BRANCH  31  33
ATOM     32  O   UNL     1      39.889  -3.446 -27.946  0.00  0.00    -0.353 OA
ATOM     33  C   UNL     1      38.209  -4.412 -28.835  0.00  0.00    +0.095 C 
ATOM     34  C   UNL     1      38.798  -4.249 -27.441  0.00  0.00    +0.148 C 
ATOM     35  C   UNL     1      39.432  -3.637 -29.305  0.00  0.00    +0.148 C 
ATOM     36  C   UNL     1      38.132  -5.834 -29.327  0.00  0.00    +0.009 C 
ENDBRANCH  31  33
ENDBRANCH  30  31
ENDBRANCH   7  30
TORSDOF 5
ENDMDL
