MODEL 1
REMARK VINA RESULT:      -8.1      0.000      0.000
REMARK  Name = 71698
REMARK  7 active torsions:
REMARK  status: ('A' for Active; 'I' for Inactive)
REMARK    1  A    between atoms: O_1  and  C_4
REMARK    2  A    between atoms: O_1  and  C_13
REMARK    3  A    between atoms: C_13  and  C_14
REMARK    4  A    between atoms: C_14  and  O_15
REMARK    5  A    between atoms: C_14  and  C_17
REMARK    6  A    between atoms: C_17  and  N_18
REMARK    7  A    between atoms: N_18  and  C_21
REMARK                            x       y       z     vdW  Elec       q    Type
REMARK                         _______ _______ _______ _____ _____    ______ ____
ROOT
ATOM      1  O   UNL     1      35.333 -16.820 -22.062  0.00  0.00    -0.473 OA
ENDROOT
BRANCH   1   4
ATOM      2  N   UNL     1      32.502 -13.780 -24.154  0.00  0.00    -0.316 N 
ATOM      3  C   UNL     1      33.836 -15.212 -23.084  0.00  0.00    +0.048 C 
ATOM      4  C   UNL     1      34.398 -15.826 -21.948  0.00  0.00    +0.140 C 
ATOM      5  C   UNL     1      32.885 -14.205 -22.903  0.00  0.00    +0.051 C 
ATOM      6  C   UNL     1      34.009 -15.375 -24.487  0.00  0.00    +0.014 C 
ATOM      7  C   UNL     1      33.175 -14.481 -25.119  0.00  0.00    +0.026 C 
ATOM      8  C   UNL     1      33.990 -15.411 -20.675  0.00  0.00    +0.037 C 
ATOM      9  C   UNL     1      32.468 -13.779 -21.636  0.00  0.00    +0.015 C 
ATOM     10  C   UNL     1      33.040 -14.403 -20.523  0.00  0.00    +0.004 C 
ATOM     11  C   UNL     1      32.950 -14.222 -26.552  0.00  0.00    +0.047 C 
ATOM     12  H   UNL     1      31.840 -13.072 -24.331  0.00  0.00    +0.152 HD
ENDBRANCH   1   4
BRANCH   1  13
ATOM     13  C   UNL     1      35.305 -17.844 -21.074  0.00  0.00    +0.232 C 
BRANCH  13  14
ATOM     14  C   UNL     1      34.346 -18.943 -21.529  0.00  0.00    +0.133 C 
BRANCH  14  15
ATOM     15  O   UNL     1      34.735 -19.379 -22.835  0.00  0.00    -0.383 OA
ATOM     16  H   UNL     1      35.653 -19.114 -23.003  0.00  0.00    +0.210 HD
ENDBRANCH  14  15
BRANCH  14  17
ATOM     17  C   UNL     1      34.336 -20.160 -20.601  0.00  0.00    -0.048 C 
BRANCH  17  18
ATOM     18  N   UNL     1      35.634 -20.387 -19.981  0.00  0.00    +0.387 N 
ATOM     19  H   UNL     1      35.786 -19.681 -19.259  0.00  0.00    -0.084 HD
ATOM     20  H   UNL     1      36.354 -20.323 -20.700  0.00  0.00    -0.084 HD
BRANCH  18  21
ATOM     21  C   UNL     1      35.697 -21.709 -19.374  0.00  0.00    -0.062 C 
ATOM     22  C   UNL     1      34.297 -22.194 -19.012  0.00  0.00    -0.023 C 
ATOM     23  C   UNL     1      36.595 -21.660 -18.141  0.00  0.00    -0.023 C 
ENDBRANCH  18  21
ENDBRANCH  17  18
ENDBRANCH  14  17
ENDBRANCH  13  14
ENDBRANCH   1  13
TORSDOF 7
ENDMDL
MODEL 2
REMARK VINA RESULT:      -8.0      7.637     10.390
REMARK  Name = 71698
REMARK  7 active torsions:
REMARK  status: ('A' for Active; 'I' for Inactive)
REMARK    1  A    between atoms: O_1  and  C_4
REMARK    2  A    between atoms: O_1  and  C_13
REMARK    3  A    between atoms: C_13  and  C_14
REMARK    4  A    between atoms: C_14  and  O_15
REMARK    5  A    between atoms: C_14  and  C_17
REMARK    6  A    between atoms: C_17  and  N_18
REMARK    7  A    between atoms: N_18  and  C_21
REMARK                            x       y       z     vdW  Elec       q    Type
REMARK                         _______ _______ _______ _____ _____    ______ ____
ROOT
ATOM      1  O   UNL     1      34.476 -24.502 -14.093  0.00  0.00    -0.473 OA
ENDROOT
BRANCH   1   4
ATOM      2  N   UNL     1      32.068 -22.657 -17.620  0.00  0.00    -0.316 N 
ATOM      3  C   UNL     1      33.158 -23.544 -15.888  0.00  0.00    +0.048 C 
ATOM      4  C   UNL     1      33.271 -24.080 -14.590  0.00  0.00    +0.140 C 
ATOM      5  C   UNL     1      31.902 -23.134 -16.339  0.00  0.00    +0.051 C 
ATOM      6  C   UNL     1      34.082 -23.297 -16.942  0.00  0.00    +0.014 C 
ATOM      7  C   UNL     1      33.382 -22.751 -17.993  0.00  0.00    +0.026 C 
ATOM      8  C   UNL     1      32.126 -24.185 -13.793  0.00  0.00    +0.037 C 
ATOM      9  C   UNL     1      30.748 -23.232 -15.553  0.00  0.00    +0.015 C 
ATOM     10  C   UNL     1      30.884 -23.766 -14.268  0.00  0.00    +0.004 C 
ATOM     11  C   UNL     1      33.834 -22.308 -19.325  0.00  0.00    +0.047 C 
ATOM     12  H   UNL     1      31.346 -22.298 -18.185  0.00  0.00    +0.152 HD
ENDBRANCH   1   4
BRANCH   1  13
ATOM     13  C   UNL     1      35.252 -23.538 -13.388  0.00  0.00    +0.232 C 
BRANCH  13  14
ATOM     14  C   UNL     1      35.783 -24.175 -12.106  0.00  0.00    +0.133 C 
BRANCH  14  15
ATOM     15  O   UNL     1      34.778 -25.046 -11.576  0.00  0.00    -0.383 OA
ATOM     16  H   UNL     1      35.171 -25.910 -11.380  0.00  0.00    +0.210 HD
ENDBRANCH  14  15
BRANCH  14  17
ATOM     17  C   UNL     1      37.059 -24.993 -12.321  0.00  0.00    -0.048 C 
BRANCH  17  18
ATOM     18  N   UNL     1      36.790 -26.269 -12.967  0.00  0.00    +0.387 N 
ATOM     19  H   UNL     1      35.825 -26.280 -13.296  0.00  0.00    -0.084 HD
ATOM     20  H   UNL     1      36.944 -27.016 -12.289  0.00  0.00    -0.084 HD
BRANCH  18  21
ATOM     21  C   UNL     1      37.682 -26.478 -14.100  0.00  0.00    -0.062 C 
ATOM     22  C   UNL     1      38.567 -25.254 -14.310  0.00  0.00    -0.023 C 
ATOM     23  C   UNL     1      36.856 -26.778 -15.347  0.00  0.00    -0.023 C 
ENDBRANCH  18  21
ENDBRANCH  17  18
ENDBRANCH  14  17
ENDBRANCH  13  14
ENDBRANCH   1  13
TORSDOF 7
ENDMDL
MODEL 3
REMARK VINA RESULT:      -7.9      9.359     11.431
REMARK  Name = 71698
REMARK  7 active torsions:
REMARK  status: ('A' for Active; 'I' for Inactive)
REMARK    1  A    between atoms: O_1  and  C_4
REMARK    2  A    between atoms: O_1  and  C_13
REMARK    3  A    between atoms: C_13  and  C_14
REMARK    4  A    between atoms: C_14  and  O_15
REMARK    5  A    between atoms: C_14  and  C_17
REMARK    6  A    between atoms: C_17  and  N_18
REMARK    7  A    between atoms: N_18  and  C_21
REMARK                            x       y       z     vdW  Elec       q    Type
REMARK                         _______ _______ _______ _____ _____    ______ ____
ROOT
ATOM      1  O   UNL     1      34.481 -24.388 -12.981  0.00  0.00    -0.473 OA
ENDROOT
BRANCH   1   4
ATOM      2  N   UNL     1      30.957 -24.057 -15.999  0.00  0.00    -0.316 N 
ATOM      3  C   UNL     1      32.693 -24.186 -14.604  0.00  0.00    +0.048 C 
ATOM      4  C   UNL     1      34.039 -24.018 -14.223  0.00  0.00    +0.140 C 
ATOM      5  C   UNL     1      32.302 -23.788 -15.885  0.00  0.00    +0.051 C 
ATOM      6  C   UNL     1      31.536 -24.702 -13.956  0.00  0.00    +0.014 C 
ATOM      7  C   UNL     1      30.485 -24.609 -14.839  0.00  0.00    +0.026 C 
ATOM      8  C   UNL     1      34.942 -23.461 -15.135  0.00  0.00    +0.037 C 
ATOM      9  C   UNL     1      33.195 -23.230 -16.807  0.00  0.00    +0.015 C 
ATOM     10  C   UNL     1      34.525 -23.074 -16.408  0.00  0.00    +0.004 C 
ATOM     11  C   UNL     1      29.069 -24.992 -14.693  0.00  0.00    +0.047 C 
ATOM     12  H   UNL     1      30.413 -23.879 -16.801  0.00  0.00    +0.152 HD
ENDBRANCH   1   4
BRANCH   1  13
ATOM     13  C   UNL     1      35.481 -23.567 -12.386  0.00  0.00    +0.232 C 
BRANCH  13  14
ATOM     14  C   UNL     1      36.276 -24.406 -11.387  0.00  0.00    +0.133 C 
BRANCH  14  15
ATOM     15  O   UNL     1      35.370 -25.255 -10.677  0.00  0.00    -0.383 OA
ATOM     16  H   UNL     1      35.287 -26.101 -11.144  0.00  0.00    +0.210 HD
ENDBRANCH  14  15
BRANCH  14  17
ATOM     17  C   UNL     1      37.339 -25.287 -12.049  0.00  0.00    -0.048 C 
BRANCH  17  18
ATOM     18  N   UNL     1      36.759 -26.224 -13.001  0.00  0.00    +0.387 N 
ATOM     19  H   UNL     1      35.837 -25.888 -13.279  0.00  0.00    -0.084 HD
ATOM     20  H   UNL     1      36.686 -27.138 -12.555  0.00  0.00    -0.084 HD
BRANCH  18  21
ATOM     21  C   UNL     1      37.597 -26.349 -14.185  0.00  0.00    -0.062 C 
ATOM     22  C   UNL     1      38.320 -25.035 -14.464  0.00  0.00    -0.023 C 
ATOM     23  C   UNL     1      36.738 -26.765 -15.375  0.00  0.00    -0.023 C 
ENDBRANCH  18  21
ENDBRANCH  17  18
ENDBRANCH  14  17
ENDBRANCH  13  14
ENDBRANCH   1  13
TORSDOF 7
ENDMDL
MODEL 4
REMARK VINA RESULT:      -7.9      2.199      7.160
REMARK  Name = 71698
REMARK  7 active torsions:
REMARK  status: ('A' for Active; 'I' for Inactive)
REMARK    1  A    between atoms: O_1  and  C_4
REMARK    2  A    between atoms: O_1  and  C_13
REMARK    3  A    between atoms: C_13  and  C_14
REMARK    4  A    between atoms: C_14  and  O_15
REMARK    5  A    between atoms: C_14  and  C_17
REMARK    6  A    between atoms: C_17  and  N_18
REMARK    7  A    between atoms: N_18  and  C_21
REMARK                            x       y       z     vdW  Elec       q    Type
REMARK                         _______ _______ _______ _____ _____    ______ ____
ROOT
ATOM      1  O   UNL     1      35.006 -15.126 -22.435  0.00  0.00    -0.473 OA
ENDROOT
BRANCH   1   4
ATOM      2  N   UNL     1      34.914 -19.773 -22.603  0.00  0.00    -0.316 N 
ATOM      3  C   UNL     1      34.944 -17.543 -22.597  0.00  0.00    +0.048 C 
ATOM      4  C   UNL     1      34.842 -16.264 -23.178  0.00  0.00    +0.140 C 
ATOM      5  C   UNL     1      34.765 -18.666 -23.407  0.00  0.00    +0.051 C 
ATOM      6  C   UNL     1      35.205 -18.015 -21.280  0.00  0.00    +0.014 C 
ATOM      7  C   UNL     1      35.180 -19.391 -21.316  0.00  0.00    +0.026 C 
ATOM      8  C   UNL     1      34.565 -16.156 -24.546  0.00  0.00    +0.037 C 
ATOM      9  C   UNL     1      34.488 -18.573 -24.776  0.00  0.00    +0.015 C 
ATOM     10  C   UNL     1      34.392 -17.294 -25.332  0.00  0.00    +0.004 C 
ATOM     11  C   UNL     1      35.383 -20.385 -20.247  0.00  0.00    +0.047 C 
ATOM     12  H   UNL     1      34.840 -20.707 -22.910  0.00  0.00    +0.152 HD
ENDBRANCH   1   4
BRANCH   1  13
ATOM     13  C   UNL     1      34.004 -14.123 -22.567  0.00  0.00    +0.232 C 
BRANCH  13  14
ATOM     14  C   UNL     1      32.896 -14.395 -21.552  0.00  0.00    +0.133 C 
BRANCH  14  15
ATOM     15  O   UNL     1      33.480 -14.970 -20.379  0.00  0.00    -0.383 OA
ATOM     16  H   UNL     1      33.080 -15.838 -20.212  0.00  0.00    +0.210 HD
ENDBRANCH  14  15
BRANCH  14  17
ATOM     17  C   UNL     1      32.132 -13.136 -21.138  0.00  0.00    -0.048 C 
BRANCH  17  18
ATOM     18  N   UNL     1      31.636 -12.392 -22.288  0.00  0.00    +0.387 N 
ATOM     19  H   UNL     1      30.928 -12.950 -22.765  0.00  0.00    -0.084 HD
ATOM     20  H   UNL     1      32.419 -12.199 -22.913  0.00  0.00    -0.084 HD
BRANCH  18  21
ATOM     21  C   UNL     1      31.046 -11.126 -21.875  0.00  0.00    -0.062 C 
ATOM     22  C   UNL     1      31.853  -9.959 -22.436  0.00  0.00    -0.023 C 
ATOM     23  C   UNL     1      30.983 -11.067 -20.352  0.00  0.00    -0.023 C 
ENDBRANCH  18  21
ENDBRANCH  17  18
ENDBRANCH  14  17
ENDBRANCH  13  14
ENDBRANCH   1  13
TORSDOF 7
ENDMDL
MODEL 5
REMARK VINA RESULT:      -7.9      5.013      7.526
REMARK  Name = 71698
REMARK  7 active torsions:
REMARK  status: ('A' for Active; 'I' for Inactive)
REMARK    1  A    between atoms: O_1  and  C_4
REMARK    2  A    between atoms: O_1  and  C_13
REMARK    3  A    between atoms: C_13  and  C_14
REMARK    4  A    between atoms: C_14  and  O_15
REMARK    5  A    between atoms: C_14  and  C_17
REMARK    6  A    between atoms: C_17  and  N_18
REMARK    7  A    between atoms: N_18  and  C_21
REMARK                            x       y       z     vdW  Elec       q    Type
REMARK                         _______ _______ _______ _____ _____    ______ ____
ROOT
ATOM      1  O   UNL     1      31.771 -12.430 -22.345  0.00  0.00    -0.473 OA
ENDROOT
BRANCH   1   4
ATOM      2  N   UNL     1      31.961  -7.855 -21.524  0.00  0.00    -0.316 N 
ATOM      3  C   UNL     1      31.864 -10.060 -21.843  0.00  0.00    +0.048 C 
ATOM      4  C   UNL     1      31.759 -11.406 -21.436  0.00  0.00    +0.140 C 
ATOM      5  C   UNL     1      31.845  -9.060 -20.869  0.00  0.00    +0.051 C 
ATOM      6  C   UNL     1      31.996  -9.414 -23.104  0.00  0.00    +0.014 C 
ATOM      7  C   UNL     1      32.053  -8.058 -22.875  0.00  0.00    +0.026 C 
ATOM      8  C   UNL     1      31.639 -11.699 -20.073  0.00  0.00    +0.037 C 
ATOM      9  C   UNL     1      31.726  -9.339 -19.503  0.00  0.00    +0.015 C 
ATOM     10  C   UNL     1      31.623 -10.680 -19.122  0.00  0.00    +0.004 C 
ATOM     11  C   UNL     1      32.185  -6.928 -23.813  0.00  0.00    +0.047 C 
ATOM     12  H   UNL     1      31.977  -6.974 -21.084  0.00  0.00    +0.152 HD
ENDBRANCH   1   4
BRANCH   1  13
ATOM     13  C   UNL     1      32.284 -13.680 -21.897  0.00  0.00    +0.232 C 
BRANCH  13  14
ATOM     14  C   UNL     1      33.517 -14.032 -22.725  0.00  0.00    +0.133 C 
BRANCH  14  15
ATOM     15  O   UNL     1      33.545 -15.449 -22.925  0.00  0.00    -0.383 OA
ATOM     16  H   UNL     1      32.671 -15.820 -22.727  0.00  0.00    +0.210 HD
ENDBRANCH  14  15
BRANCH  14  17
ATOM     17  C   UNL     1      33.539 -13.354 -24.097  0.00  0.00    -0.048 C 
BRANCH  17  18
ATOM     18  N   UNL     1      34.252 -12.086 -24.070  0.00  0.00    +0.387 N 
ATOM     19  H   UNL     1      35.251 -12.267 -23.968  0.00  0.00    -0.084 HD
ATOM     20  H   UNL     1      33.907 -11.534 -23.284  0.00  0.00    -0.084 HD
BRANCH  18  21
ATOM     21  C   UNL     1      34.028 -11.335 -25.299  0.00  0.00    -0.062 C 
ATOM     22  C   UNL     1      33.733 -12.287 -26.454  0.00  0.00    -0.023 C 
ATOM     23  C   UNL     1      35.251 -10.474 -25.598  0.00  0.00    -0.023 C 
ENDBRANCH  18  21
ENDBRANCH  17  18
ENDBRANCH  14  17
ENDBRANCH  13  14
ENDBRANCH   1  13
TORSDOF 7
ENDMDL
MODEL 6
REMARK VINA RESULT:      -7.8      3.581      4.728
REMARK  Name = 71698
REMARK  7 active torsions:
REMARK  status: ('A' for Active; 'I' for Inactive)
REMARK    1  A    between atoms: O_1  and  C_4
REMARK    2  A    between atoms: O_1  and  C_13
REMARK    3  A    between atoms: C_13  and  C_14
REMARK    4  A    between atoms: C_14  and  O_15
REMARK    5  A    between atoms: C_14  and  C_17
REMARK    6  A    between atoms: C_17  and  N_18
REMARK    7  A    between atoms: N_18  and  C_21
REMARK                            x       y       z     vdW  Elec       q    Type
REMARK                         _______ _______ _______ _____ _____    ______ ____
ROOT
ATOM      1  O   UNL     1      32.592 -14.427 -22.379  0.00  0.00    -0.473 OA
ENDROOT
BRANCH   1   4
ATOM      2  N   UNL     1      33.524 -10.206 -24.097  0.00  0.00    -0.316 N 
ATOM      3  C   UNL     1      33.033 -12.197 -23.220  0.00  0.00    +0.048 C 
ATOM      4  C   UNL     1      32.404 -13.072 -22.312  0.00  0.00    +0.140 C 
ATOM      5  C   UNL     1      32.801 -10.826 -23.103  0.00  0.00    +0.051 C 
ATOM      6  C   UNL     1      33.920 -12.379 -24.318  0.00  0.00    +0.014 C 
ATOM      7  C   UNL     1      34.204 -11.136 -24.837  0.00  0.00    +0.026 C 
ATOM      8  C   UNL     1      31.567 -12.543 -21.323  0.00  0.00    +0.037 C 
ATOM      9  C   UNL     1      31.967 -10.282 -22.118  0.00  0.00    +0.015 C 
ATOM     10  C   UNL     1      31.354 -11.169 -21.228  0.00  0.00    +0.004 C 
ATOM     11  C   UNL     1      35.058 -10.738 -25.970  0.00  0.00    +0.047 C 
ATOM     12  H   UNL     1      33.549  -9.234 -24.253  0.00  0.00    +0.152 HD
ENDBRANCH   1   4
BRANCH   1  13
ATOM     13  C   UNL     1      33.008 -15.076 -21.182  0.00  0.00    +0.232 C 
BRANCH  13  14
ATOM     14  C   UNL     1      34.476 -15.473 -21.322  0.00  0.00    +0.133 C 
BRANCH  14  15
ATOM     15  O   UNL     1      34.923 -16.021 -20.078  0.00  0.00    -0.383 OA
ATOM     16  H   UNL     1      35.394 -15.337 -19.575  0.00  0.00    +0.210 HD
ENDBRANCH  14  15
BRANCH  14  17
ATOM     17  C   UNL     1      34.721 -16.513 -22.418  0.00  0.00    -0.048 C 
BRANCH  17  18
ATOM     18  N   UNL     1      35.290 -15.919 -23.619  0.00  0.00    +0.387 N 
ATOM     19  H   UNL     1      36.308 -15.937 -23.550  0.00  0.00    -0.084 HD
ATOM     20  H   UNL     1      34.954 -14.959 -23.699  0.00  0.00    -0.084 HD
BRANCH  18  21
ATOM     21  C   UNL     1      34.881 -16.655 -24.808  0.00  0.00    -0.062 C 
ATOM     22  C   UNL     1      33.634 -16.025 -25.419  0.00  0.00    -0.023 C 
ATOM     23  C   UNL     1      34.634 -18.115 -24.442  0.00  0.00    -0.023 C 
ENDBRANCH  18  21
ENDBRANCH  17  18
ENDBRANCH  14  17
ENDBRANCH  13  14
ENDBRANCH   1  13
TORSDOF 7
ENDMDL
MODEL 7
REMARK VINA RESULT:      -7.8      3.621      5.492
REMARK  Name = 71698
REMARK  7 active torsions:
REMARK  status: ('A' for Active; 'I' for Inactive)
REMARK    1  A    between atoms: O_1  and  C_4
REMARK    2  A    between atoms: O_1  and  C_13
REMARK    3  A    between atoms: C_13  and  C_14
REMARK    4  A    between atoms: C_14  and  O_15
REMARK    5  A    between atoms: C_14  and  C_17
REMARK    6  A    between atoms: C_17  and  N_18
REMARK    7  A    between atoms: N_18  and  C_21
REMARK                            x       y       z     vdW  Elec       q    Type
REMARK                         _______ _______ _______ _____ _____    ______ ____
ROOT
ATOM      1  O   UNL     1      33.923 -12.930 -23.974  0.00  0.00    -0.473 OA
ENDROOT
BRANCH   1   4
ATOM      2  N   UNL     1      32.945  -8.520 -22.866  0.00  0.00    -0.316 N 
ATOM      3  C   UNL     1      33.359 -10.657 -23.351  0.00  0.00    +0.048 C 
ATOM      4  C   UNL     1      33.151 -12.049 -23.267  0.00  0.00    +0.140 C 
ATOM      5  C   UNL     1      32.537  -9.809 -22.607  0.00  0.00    +0.051 C 
ATOM      6  C   UNL     1      34.274  -9.833 -24.065  0.00  0.00    +0.014 C 
ATOM      7  C   UNL     1      33.995  -8.524 -23.745  0.00  0.00    +0.026 C 
ATOM      8  C   UNL     1      32.130 -12.537 -22.444  0.00  0.00    +0.037 C 
ATOM      9  C   UNL     1      31.513 -10.283 -21.779  0.00  0.00    +0.015 C 
ATOM     10  C   UNL     1      31.325 -11.667 -21.712  0.00  0.00    +0.004 C 
ATOM     11  C   UNL     1      34.625  -7.269 -24.193  0.00  0.00    +0.047 C 
ATOM     12  H   UNL     1      32.542  -7.711 -22.474  0.00  0.00    +0.152 HD
ENDBRANCH   1   4
BRANCH   1  13
ATOM     13  C   UNL     1      33.397 -13.394 -25.213  0.00  0.00    +0.232 C 
BRANCH  13  14
ATOM     14  C   UNL     1      33.328 -14.920 -25.179  0.00  0.00    +0.133 C 
BRANCH  14  15
ATOM     15  O   UNL     1      33.656 -15.423 -26.478  0.00  0.00    -0.383 OA
ATOM     16  H   UNL     1      34.263 -14.808 -26.918  0.00  0.00    +0.210 HD
ENDBRANCH  14  15
BRANCH  14  17
ATOM     17  C   UNL     1      34.289 -15.547 -24.166  0.00  0.00    -0.048 C 
BRANCH  17  18
ATOM     18  N   UNL     1      33.678 -15.703 -22.854  0.00  0.00    +0.387 N 
ATOM     19  H   UNL     1      33.137 -16.568 -22.840  0.00  0.00    -0.084 HD
ATOM     20  H   UNL     1      33.073 -14.900 -22.679  0.00  0.00    -0.084 HD
BRANCH  18  21
ATOM     21  C   UNL     1      34.692 -15.758 -21.810  0.00  0.00    -0.062 C 
ATOM     22  C   UNL     1      35.005 -17.208 -21.452  0.00  0.00    -0.023 C 
ATOM     23  C   UNL     1      34.206 -14.985 -20.588  0.00  0.00    -0.023 C 
ENDBRANCH  18  21
ENDBRANCH  17  18
ENDBRANCH  14  17
ENDBRANCH  13  14
ENDBRANCH   1  13
TORSDOF 7
ENDMDL
MODEL 8
REMARK VINA RESULT:      -7.8      4.006      5.852
REMARK  Name = 71698
REMARK  7 active torsions:
REMARK  status: ('A' for Active; 'I' for Inactive)
REMARK    1  A    between atoms: O_1  and  C_4
REMARK    2  A    between atoms: O_1  and  C_13
REMARK    3  A    between atoms: C_13  and  C_14
REMARK    4  A    between atoms: C_14  and  O_15
REMARK    5  A    between atoms: C_14  and  C_17
REMARK    6  A    between atoms: C_17  and  N_18
REMARK    7  A    between atoms: N_18  and  C_21
REMARK                            x       y       z     vdW  Elec       q    Type
REMARK                         _______ _______ _______ _____ _____    ______ ____
ROOT
ATOM      1  O   UNL     1      31.942 -12.533 -22.617  0.00  0.00    -0.473 OA
ENDROOT
BRANCH   1   4
ATOM      2  N   UNL     1      32.029  -8.021 -21.489  0.00  0.00    -0.316 N 
ATOM      3  C   UNL     1      31.978 -10.201 -21.956  0.00  0.00    +0.048 C 
ATOM      4  C   UNL     1      31.863 -11.571 -21.646  0.00  0.00    +0.140 C 
ATOM      5  C   UNL     1      31.887  -9.268 -20.922  0.00  0.00    +0.051 C 
ATOM      6  C   UNL     1      32.179  -9.472 -23.162  0.00  0.00    +0.014 C 
ATOM      7  C   UNL     1      32.207  -8.134 -22.842  0.00  0.00    +0.026 C 
ATOM      8  C   UNL     1      31.662 -11.955 -20.315  0.00  0.00    +0.037 C 
ATOM      9  C   UNL     1      31.687  -9.637 -19.587  0.00  0.00    +0.015 C 
ATOM     10  C   UNL     1      31.576 -11.001 -19.302  0.00  0.00    +0.004 C 
ATOM     11  C   UNL     1      32.384  -6.944 -23.693  0.00  0.00    +0.047 C 
ATOM     12  H   UNL     1      32.008  -7.171 -20.992  0.00  0.00    +0.152 HD
ENDBRANCH   1   4
BRANCH   1  13
ATOM     13  C   UNL     1      32.457 -13.801 -22.224  0.00  0.00    +0.232 C 
BRANCH  13  14
ATOM     14  C   UNL     1      33.523 -14.233 -23.228  0.00  0.00    +0.133 C 
BRANCH  14  15
ATOM     15  O   UNL     1      34.215 -13.070 -23.691  0.00  0.00    -0.383 OA
ATOM     16  H   UNL     1      35.131 -13.304 -23.909  0.00  0.00    +0.210 HD
ENDBRANCH  14  15
BRANCH  14  17
ATOM     17  C   UNL     1      34.553 -15.200 -22.639  0.00  0.00    -0.048 C 
BRANCH  17  18
ATOM     18  N   UNL     1      35.221 -15.983 -23.669  0.00  0.00    +0.387 N 
ATOM     19  H   UNL     1      36.225 -15.988 -23.485  0.00  0.00    -0.084 HD
ATOM     20  H   UNL     1      35.027 -15.560 -24.577  0.00  0.00    -0.084 HD
BRANCH  18  21
ATOM     21  C   UNL     1      34.733 -17.355 -23.680  0.00  0.00    -0.062 C 
ATOM     22  C   UNL     1      35.723 -18.276 -22.973  0.00  0.00    -0.023 C 
ATOM     23  C   UNL     1      34.503 -17.801 -25.121  0.00  0.00    -0.023 C 
ENDBRANCH  18  21
ENDBRANCH  17  18
ENDBRANCH  14  17
ENDBRANCH  13  14
ENDBRANCH   1  13
TORSDOF 7
ENDMDL
MODEL 9
REMARK VINA RESULT:      -7.8      3.313      7.805
REMARK  Name = 71698
REMARK  7 active torsions:
REMARK  status: ('A' for Active; 'I' for Inactive)
REMARK    1  A    between atoms: O_1  and  C_4
REMARK    2  A    between atoms: O_1  and  C_13
REMARK    3  A    between atoms: C_13  and  C_14
REMARK    4  A    between atoms: C_14  and  O_15
REMARK    5  A    between atoms: C_14  and  C_17
REMARK    6  A    between atoms: C_17  and  N_18
REMARK    7  A    between atoms: N_18  and  C_21
REMARK                            x       y       z     vdW  Elec       q    Type
REMARK                         _______ _______ _______ _____ _____    ______ ____
ROOT
ATOM      1  O   UNL     1      33.548 -13.139 -22.843  0.00  0.00    -0.473 OA
ENDROOT
BRANCH   1   4
ATOM      2  N   UNL     1      34.881 -17.485 -23.832  0.00  0.00    -0.316 N 
ATOM      3  C   UNL     1      34.217 -15.394 -23.429  0.00  0.00    +0.048 C 
ATOM      4  C   UNL     1      33.637 -14.153 -23.759  0.00  0.00    +0.140 C 
ATOM      5  C   UNL     1      34.277 -16.389 -24.406  0.00  0.00    +0.051 C 
ATOM      6  C   UNL     1      34.805 -15.930 -22.249  0.00  0.00    +0.014 C 
ATOM      7  C   UNL     1      35.204 -17.217 -22.528  0.00  0.00    +0.026 C 
ATOM      8  C   UNL     1      33.140 -13.954 -25.052  0.00  0.00    +0.037 C 
ATOM      9  C   UNL     1      33.786 -16.204 -25.704  0.00  0.00    +0.015 C 
ATOM     10  C   UNL     1      33.215 -14.965 -26.009  0.00  0.00    +0.004 C 
ATOM     11  C   UNL     1      35.863 -18.226 -21.679  0.00  0.00    +0.047 C 
ATOM     12  H   UNL     1      35.057 -18.337 -24.292  0.00  0.00    +0.152 HD
ENDBRANCH   1   4
BRANCH   1  13
ATOM     13  C   UNL     1      32.317 -13.018 -22.137  0.00  0.00    +0.232 C 
BRANCH  13  14
ATOM     14  C   UNL     1      31.615 -11.738 -22.586  0.00  0.00    +0.133 C 
BRANCH  14  15
ATOM     15  O   UNL     1      30.581 -11.429 -21.646  0.00  0.00    -0.383 OA
ATOM     16  H   UNL     1      30.412 -10.474 -21.655  0.00  0.00    +0.210 HD
ENDBRANCH  14  15
BRANCH  14  17
ATOM     17  C   UNL     1      32.555 -10.533 -22.676  0.00  0.00    -0.048 C 
BRANCH  17  18
ATOM     18  N   UNL     1      33.047 -10.323 -24.030  0.00  0.00    +0.387 N 
ATOM     19  H   UNL     1      32.501  -9.583 -24.472  0.00  0.00    -0.084 HD
ATOM     20  H   UNL     1      32.953 -11.195 -24.550  0.00  0.00    -0.084 HD
BRANCH  18  21
ATOM     21  C   UNL     1      34.451  -9.936 -24.020  0.00  0.00    -0.062 C 
ATOM     22  C   UNL     1      34.584  -8.428 -23.827  0.00  0.00    -0.023 C 
ATOM     23  C   UNL     1      35.111 -10.382 -25.322  0.00  0.00    -0.023 C 
ENDBRANCH  18  21
ENDBRANCH  17  18
ENDBRANCH  14  17
ENDBRANCH  13  14
ENDBRANCH   1  13
TORSDOF 7
ENDMDL
