MODEL 1
REMARK VINA RESULT:      -6.0      0.000      0.000
REMARK  Name = 72258
REMARK  5 active torsions:
REMARK  status: ('A' for Active; 'I' for Inactive)
REMARK    1  A    between atoms: C_2  and  O_9
REMARK    2  A    between atoms: CA_3  and  C_15
REMARK    3  A    between atoms: C_4  and  O_11
REMARK    4  A    between atoms: C_5  and  O_13
REMARK    5  A    between atoms: C_15  and  O_16
REMARK                            x       y       z     vdW  Elec       q    Type
REMARK                         _______ _______ _______ _____ _____    ______ ____
ROOT
ATOM      1  N   UNL     1      35.600 -25.315 -13.057  0.00  0.00    +0.390 N 
ATOM      2  C   UNL     1      38.016 -24.707 -13.081  0.00  0.00    +0.123 C 
ATOM      3  CA  UNL     1      36.817 -25.258 -13.878  0.00  0.00    -0.002 C 
ATOM      4  C   UNL     1      37.674 -23.350 -12.460  0.00  0.00    +0.160 C 
ATOM      5  C   UNL     1      36.371 -23.415 -11.663  0.00  0.00    +0.118 C 
ATOM      6  C   UNL     1      35.246 -23.998 -12.515  0.00  0.00    -0.049 C 
ATOM      7  H1  UNL     1      35.755 -25.959 -12.281  0.00  0.00    -0.084 HD
ATOM      8  H2  UNL     1      34.832 -25.630 -13.649  0.00  0.00    -0.084 HD
ENDROOT
BRANCH   2   9
ATOM      9  O   UNL     1      39.129 -24.512 -13.953  0.00  0.00    -0.384 OA
ATOM     10  H   UNL     1      39.229 -23.565 -14.143  0.00  0.00    +0.210 HD
ENDBRANCH   2   9
BRANCH   4  11
ATOM     11  O   UNL     1      38.743 -22.942 -11.608  0.00  0.00    -0.380 OA
ATOM     12  H   UNL     1      38.568 -23.243 -10.703  0.00  0.00    +0.211 HD
ENDBRANCH   4  11
BRANCH   5  13
ATOM     13  O   UNL     1      36.531 -24.239 -10.507  0.00  0.00    -0.384 OA
ATOM     14  H   UNL     1      36.994 -25.055 -10.752  0.00  0.00    +0.210 HD
ENDBRANCH   5  13
BRANCH   3  15
ATOM     15  C   UNL     1      37.095 -26.665 -14.416  0.00  0.00    +0.118 C 
BRANCH  15  16
ATOM     16  O   UNL     1      37.500 -26.554 -15.766  0.00  0.00    -0.384 OA
ATOM     17  H   UNL     1      38.231 -25.920 -15.834  0.00  0.00    +0.210 HD
ENDBRANCH  15  16
ENDBRANCH   3  15
TORSDOF 5
ENDMDL
MODEL 2
REMARK VINA RESULT:      -6.0      1.812      3.725
REMARK  Name = 72258
REMARK  5 active torsions:
REMARK  status: ('A' for Active; 'I' for Inactive)
REMARK    1  A    between atoms: C_2  and  O_9
REMARK    2  A    between atoms: CA_3  and  C_15
REMARK    3  A    between atoms: C_4  and  O_11
REMARK    4  A    between atoms: C_5  and  O_13
REMARK    5  A    between atoms: C_15  and  O_16
REMARK                            x       y       z     vdW  Elec       q    Type
REMARK                         _______ _______ _______ _____ _____    ______ ____
ROOT
ATOM      1  N   UNL     1      35.840 -23.120 -13.275  0.00  0.00    +0.390 N 
ATOM      2  C   UNL     1      36.972 -25.339 -13.233  0.00  0.00    +0.123 C 
ATOM      3  CA  UNL     1      35.854 -24.451 -12.652  0.00  0.00    -0.002 C 
ATOM      4  C   UNL     1      36.863 -25.416 -14.759  0.00  0.00    +0.160 C 
ATOM      5  C   UNL     1      36.785 -24.021 -15.382  0.00  0.00    +0.118 C 
ATOM      6  C   UNL     1      35.674 -23.201 -14.730  0.00  0.00    -0.049 C 
ATOM      7  H1  UNL     1      36.722 -22.651 -13.069  0.00  0.00    -0.084 HD
ATOM      8  H2  UNL     1      35.049 -22.601 -12.894  0.00  0.00    -0.084 HD
ENDROOT
BRANCH   2   9
ATOM      9  O   UNL     1      36.848 -26.668 -12.727  0.00  0.00    -0.384 OA
ATOM     10  H   UNL     1      37.710 -27.113 -12.771  0.00  0.00    +0.210 HD
ENDBRANCH   2   9
BRANCH   4  11
ATOM     11  O   UNL     1      37.995 -26.114 -15.275  0.00  0.00    -0.380 OA
ATOM     12  H   UNL     1      38.045 -26.993 -14.869  0.00  0.00    +0.211 HD
ENDBRANCH   4  11
BRANCH   5  13
ATOM     13  O   UNL     1      38.020 -23.324 -15.207  0.00  0.00    -0.384 OA
ATOM     14  H   UNL     1      38.486 -23.681 -14.436  0.00  0.00    +0.210 HD
ENDBRANCH   5  13
BRANCH   3  15
ATOM     15  C   UNL     1      36.008 -24.269 -11.139  0.00  0.00    +0.118 C 
BRANCH  15  16
ATOM     16  O   UNL     1      35.250 -25.270 -10.490  0.00  0.00    -0.384 OA
ATOM     17  H   UNL     1      35.440 -25.254  -9.539  0.00  0.00    +0.210 HD
ENDBRANCH  15  16
ENDBRANCH   3  15
TORSDOF 5
ENDMDL
MODEL 3
REMARK VINA RESULT:      -5.9      1.356      3.490
REMARK  Name = 72258
REMARK  5 active torsions:
REMARK  status: ('A' for Active; 'I' for Inactive)
REMARK    1  A    between atoms: C_2  and  O_9
REMARK    2  A    between atoms: CA_3  and  C_15
REMARK    3  A    between atoms: C_4  and  O_11
REMARK    4  A    between atoms: C_5  and  O_13
REMARK    5  A    between atoms: C_15  and  O_16
REMARK                            x       y       z     vdW  Elec       q    Type
REMARK                         _______ _______ _______ _____ _____    ______ ____
ROOT
ATOM      1  N   UNL     1      35.886 -25.464 -14.014  0.00  0.00    +0.390 N 
ATOM      2  C   UNL     1      37.758 -24.654 -12.583  0.00  0.00    +0.123 C 
ATOM      3  CA  UNL     1      36.373 -25.329 -12.634  0.00  0.00    -0.002 C 
ATOM      4  C   UNL     1      38.755 -25.396 -13.479  0.00  0.00    +0.160 C 
ATOM      5  C   UNL     1      38.201 -25.581 -14.892  0.00  0.00    +0.118 C 
ATOM      6  C   UNL     1      36.819 -26.228 -14.850  0.00  0.00    -0.049 C 
ATOM      7  H1  UNL     1      35.771 -24.533 -14.415  0.00  0.00    -0.084 HD
ATOM      8  H2  UNL     1      34.999 -25.966 -13.990  0.00  0.00    -0.084 HD
ENDROOT
BRANCH   2   9
ATOM      9  O   UNL     1      38.268 -24.692 -11.251  0.00  0.00    -0.384 OA
ATOM     10  H   UNL     1      37.988 -25.517 -10.821  0.00  0.00    +0.210 HD
ENDBRANCH   2   9
BRANCH   4  11
ATOM     11  O   UNL     1      39.976 -24.661 -13.529  0.00  0.00    -0.380 OA
ATOM     12  H   UNL     1      39.783 -23.723 -13.682  0.00  0.00    +0.211 HD
ENDBRANCH   4  11
BRANCH   5  13
ATOM     13  O   UNL     1      38.087 -24.321 -15.555  0.00  0.00    -0.384 OA
ATOM     14  H   UNL     1      38.743 -23.705 -15.195  0.00  0.00    +0.210 HD
ENDBRANCH   5  13
BRANCH   3  15
ATOM     15  C   UNL     1      35.331 -24.542 -11.835  0.00  0.00    +0.118 C 
BRANCH  15  16
ATOM     16  O   UNL     1      35.319 -25.035 -10.510  0.00  0.00    -0.384 OA
ATOM     17  H   UNL     1      35.585 -24.330  -9.900  0.00  0.00    +0.210 HD
ENDBRANCH  15  16
ENDBRANCH   3  15
TORSDOF 5
ENDMDL
MODEL 4
REMARK VINA RESULT:      -5.7      6.655      7.764
REMARK  Name = 72258
REMARK  5 active torsions:
REMARK  status: ('A' for Active; 'I' for Inactive)
REMARK    1  A    between atoms: C_2  and  O_9
REMARK    2  A    between atoms: CA_3  and  C_15
REMARK    3  A    between atoms: C_4  and  O_11
REMARK    4  A    between atoms: C_5  and  O_13
REMARK    5  A    between atoms: C_15  and  O_16
REMARK                            x       y       z     vdW  Elec       q    Type
REMARK                         _______ _______ _______ _____ _____    ______ ____
ROOT
ATOM      1  N   UNL     1      30.931 -22.898 -16.430  0.00  0.00    +0.390 N 
ATOM      2  C   UNL     1      29.733 -24.287 -14.744  0.00  0.00    +0.123 C 
ATOM      3  CA  UNL     1      29.840 -23.861 -16.222  0.00  0.00    -0.002 C 
ATOM      4  C   UNL     1      31.077 -24.816 -14.234  0.00  0.00    +0.160 C 
ATOM      5  C   UNL     1      32.208 -23.826 -14.519  0.00  0.00    +0.118 C 
ATOM      6  C   UNL     1      32.224 -23.436 -15.995  0.00  0.00    -0.049 C 
ATOM      7  H1  UNL     1      30.729 -22.052 -15.897  0.00  0.00    -0.084 HD
ATOM      8  H2  UNL     1      30.990 -22.698 -17.428  0.00  0.00    -0.084 HD
ENDROOT
BRANCH   2   9
ATOM      9  O   UNL     1      28.779 -25.341 -14.611  0.00  0.00    -0.384 OA
ATOM     10  H   UNL     1      28.986 -26.046 -15.246  0.00  0.00    +0.210 HD
ENDBRANCH   2   9
BRANCH   4  11
ATOM     11  O   UNL     1      30.984 -25.055 -12.831  0.00  0.00    -0.380 OA
ATOM     12  H   UNL     1      31.161 -25.991 -12.651  0.00  0.00    +0.211 HD
ENDBRANCH   4  11
BRANCH   5  13
ATOM     13  O   UNL     1      32.041 -22.638 -13.742  0.00  0.00    -0.384 OA
ATOM     14  H   UNL     1      32.895 -22.188 -13.653  0.00  0.00    +0.210 HD
ENDBRANCH   5  13
BRANCH   3  15
ATOM     15  C   UNL     1      28.540 -23.226 -16.723  0.00  0.00    +0.118 C 
BRANCH  15  16
ATOM     16  O   UNL     1      27.784 -24.221 -17.384  0.00  0.00    -0.384 OA
ATOM     17  H   UNL     1      28.272 -25.059 -17.374  0.00  0.00    +0.210 HD
ENDBRANCH  15  16
ENDBRANCH   3  15
TORSDOF 5
ENDMDL
MODEL 5
REMARK VINA RESULT:      -5.6      2.087      2.739
REMARK  Name = 72258
REMARK  5 active torsions:
REMARK  status: ('A' for Active; 'I' for Inactive)
REMARK    1  A    between atoms: C_2  and  O_9
REMARK    2  A    between atoms: CA_3  and  C_15
REMARK    3  A    between atoms: C_4  and  O_11
REMARK    4  A    between atoms: C_5  and  O_13
REMARK    5  A    between atoms: C_15  and  O_16
REMARK                            x       y       z     vdW  Elec       q    Type
REMARK                         _______ _______ _______ _____ _____    ______ ____
ROOT
ATOM      1  N   UNL     1      37.093 -24.404 -15.274  0.00  0.00    +0.390 N 
ATOM      2  C   UNL     1      36.966 -25.455 -13.018  0.00  0.00    +0.123 C 
ATOM      3  CA  UNL     1      37.873 -24.866 -14.117  0.00  0.00    -0.002 C 
ATOM      4  C   UNL     1      35.880 -24.452 -12.619  0.00  0.00    +0.160 C 
ATOM      5  C   UNL     1      35.123 -23.934 -13.844  0.00  0.00    +0.118 C 
ATOM      6  C   UNL     1      36.096 -23.398 -14.892  0.00  0.00    -0.049 C 
ATOM      7  H1  UNL     1      36.614 -25.203 -15.688  0.00  0.00    -0.084 HD
ATOM      8  H2  UNL     1      37.736 -23.975 -15.939  0.00  0.00    -0.084 HD
ENDROOT
BRANCH   2   9
ATOM      9  O   UNL     1      37.738 -25.737 -11.851  0.00  0.00    -0.384 OA
ATOM     10  H   UNL     1      38.523 -26.251 -12.099  0.00  0.00    +0.210 HD
ENDBRANCH   2   9
BRANCH   4  11
ATOM     11  O   UNL     1      34.970 -25.080 -11.718  0.00  0.00    -0.380 OA
ATOM     12  H   UNL     1      35.080 -26.041 -11.766  0.00  0.00    +0.211 HD
ENDBRANCH   4  11
BRANCH   5  13
ATOM     13  O   UNL     1      34.356 -24.983 -14.439  0.00  0.00    -0.384 OA
ATOM     14  H   UNL     1      33.417 -24.742 -14.430  0.00  0.00    +0.210 HD
ENDBRANCH   5  13
BRANCH   3  15
ATOM     15  C   UNL     1      38.898 -25.891 -14.612  0.00  0.00    +0.118 C 
BRANCH  15  16
ATOM     16  O   UNL     1      38.305 -27.173 -14.565  0.00  0.00    -0.384 OA
ATOM     17  H   UNL     1      38.275 -27.548 -15.459  0.00  0.00    +0.210 HD
ENDBRANCH  15  16
ENDBRANCH   3  15
TORSDOF 5
ENDMDL
MODEL 6
REMARK VINA RESULT:      -5.6      2.311      3.711
REMARK  Name = 72258
REMARK  5 active torsions:
REMARK  status: ('A' for Active; 'I' for Inactive)
REMARK    1  A    between atoms: C_2  and  O_9
REMARK    2  A    between atoms: CA_3  and  C_15
REMARK    3  A    between atoms: C_4  and  O_11
REMARK    4  A    between atoms: C_5  and  O_13
REMARK    5  A    between atoms: C_15  and  O_16
REMARK                            x       y       z     vdW  Elec       q    Type
REMARK                         _______ _______ _______ _____ _____    ______ ____
ROOT
ATOM      1  N   UNL     1      34.947 -24.779 -12.450  0.00  0.00    +0.390 N 
ATOM      2  C   UNL     1      35.370 -24.947 -14.899  0.00  0.00    +0.123 C 
ATOM      3  CA  UNL     1      34.659 -24.186 -13.763  0.00  0.00    -0.002 C 
ATOM      4  C   UNL     1      36.874 -25.045 -14.626  0.00  0.00    +0.160 C 
ATOM      5  C   UNL     1      37.150 -25.604 -13.229  0.00  0.00    +0.118 C 
ATOM      6  C   UNL     1      36.386 -24.813 -12.171  0.00  0.00    -0.049 C 
ATOM      7  H1  UNL     1      34.585 -25.733 -12.433  0.00  0.00    -0.084 HD
ATOM      8  H2  UNL     1      34.499 -24.203 -11.737  0.00  0.00    -0.084 HD
ENDROOT
BRANCH   2   9
ATOM      9  O   UNL     1      35.203 -24.247 -16.132  0.00  0.00    -0.384 OA
ATOM     10  H   UNL     1      35.950 -24.445 -16.720  0.00  0.00    +0.210 HD
ENDBRANCH   2   9
BRANCH   4  11
ATOM     11  O   UNL     1      37.476 -25.882 -15.611  0.00  0.00    -0.380 OA
ATOM     12  H   UNL     1      38.437 -25.893 -15.482  0.00  0.00    +0.211 HD
ENDBRANCH   4  11
BRANCH   5  13
ATOM     13  O   UNL     1      36.744 -26.972 -13.148  0.00  0.00    -0.384 OA
ATOM     14  H   UNL     1      37.367 -27.524 -13.645  0.00  0.00    +0.210 HD
ENDBRANCH   5  13
BRANCH   3  15
ATOM     15  C   UNL     1      33.140 -24.172 -13.958  0.00  0.00    +0.118 C 
BRANCH  15  16
ATOM     16  O   UNL     1      32.576 -25.176 -13.138  0.00  0.00    -0.384 OA
ATOM     17  H   UNL     1      33.088 -25.994 -13.229  0.00  0.00    +0.210 HD
ENDBRANCH  15  16
ENDBRANCH   3  15
TORSDOF 5
ENDMDL
MODEL 7
REMARK VINA RESULT:      -5.5      2.366      3.058
REMARK  Name = 72258
REMARK  5 active torsions:
REMARK  status: ('A' for Active; 'I' for Inactive)
REMARK    1  A    between atoms: C_2  and  O_9
REMARK    2  A    between atoms: CA_3  and  C_15
REMARK    3  A    between atoms: C_4  and  O_11
REMARK    4  A    between atoms: C_5  and  O_13
REMARK    5  A    between atoms: C_15  and  O_16
REMARK                            x       y       z     vdW  Elec       q    Type
REMARK                         _______ _______ _______ _____ _____    ______ ____
ROOT
ATOM      1  N   UNL     1      36.115 -24.244 -13.376  0.00  0.00    +0.390 N 
ATOM      2  C   UNL     1      38.047 -24.633 -14.900  0.00  0.00    +0.123 C 
ATOM      3  CA  UNL     1      37.137 -23.597 -14.211  0.00  0.00    -0.002 C 
ATOM      4  C   UNL     1      38.660 -25.585 -13.869  0.00  0.00    +0.160 C 
ATOM      5  C   UNL     1      37.586 -26.197 -12.969  0.00  0.00    +0.118 C 
ATOM      6  C   UNL     1      36.714 -25.107 -12.352  0.00  0.00    -0.049 C 
ATOM      7  H1  UNL     1      35.512 -24.811 -13.974  0.00  0.00    -0.084 HD
ATOM      8  H2  UNL     1      35.582 -23.514 -12.904  0.00  0.00    -0.084 HD
ENDROOT
BRANCH   2   9
ATOM      9  O   UNL     1      39.123 -23.968 -15.563  0.00  0.00    -0.384 OA
ATOM     10  H   UNL     1      39.100 -24.182 -16.509  0.00  0.00    +0.210 HD
ENDBRANCH   2   9
BRANCH   4  11
ATOM     11  O   UNL     1      39.370 -26.618 -14.549  0.00  0.00    -0.380 OA
ATOM     12  H   UNL     1      39.074 -26.661 -15.470  0.00  0.00    +0.211 HD
ENDBRANCH   4  11
BRANCH   5  13
ATOM     13  O   UNL     1      36.744 -27.075 -13.720  0.00  0.00    -0.384 OA
ATOM     14  H   UNL     1      36.812 -26.860 -14.663  0.00  0.00    +0.210 HD
ENDBRANCH   5  13
BRANCH   3  15
ATOM     15  C   UNL     1      36.424 -22.704 -15.231  0.00  0.00    +0.118 C 
BRANCH  15  16
ATOM     16  O   UNL     1      36.583 -23.278 -16.513  0.00  0.00    -0.384 OA
ATOM     17  H   UNL     1      35.723 -23.590 -16.837  0.00  0.00    +0.210 HD
ENDBRANCH  15  16
ENDBRANCH   3  15
TORSDOF 5
ENDMDL
MODEL 8
REMARK VINA RESULT:      -5.5      2.108      3.146
REMARK  Name = 72258
REMARK  5 active torsions:
REMARK  status: ('A' for Active; 'I' for Inactive)
REMARK    1  A    between atoms: C_2  and  O_9
REMARK    2  A    between atoms: CA_3  and  C_15
REMARK    3  A    between atoms: C_4  and  O_11
REMARK    4  A    between atoms: C_5  and  O_13
REMARK    5  A    between atoms: C_15  and  O_16
REMARK                            x       y       z     vdW  Elec       q    Type
REMARK                         _______ _______ _______ _____ _____    ______ ____
ROOT
ATOM      1  N   UNL     1      37.476 -24.141 -14.381  0.00  0.00    +0.390 N 
ATOM      2  C   UNL     1      35.659 -24.124 -12.677  0.00  0.00    +0.123 C 
ATOM      3  CA  UNL     1      36.093 -24.547 -14.094  0.00  0.00    -0.002 C 
ATOM      4  C   UNL     1      36.646 -24.650 -11.630  0.00  0.00    +0.160 C 
ATOM      5  C   UNL     1      38.085 -24.271 -11.982  0.00  0.00    +0.118 C 
ATOM      6  C   UNL     1      38.421 -24.699 -13.408  0.00  0.00    -0.049 C 
ATOM      7  H1  UNL     1      37.534 -23.123 -14.351  0.00  0.00    -0.084 HD
ATOM      8  H2  UNL     1      37.725 -24.496 -15.305  0.00  0.00    -0.084 HD
ENDROOT
BRANCH   2   9
ATOM      9  O   UNL     1      34.379 -24.678 -12.376  0.00  0.00    -0.384 OA
ATOM     10  H   UNL     1      34.255 -24.703 -11.414  0.00  0.00    +0.210 HD
ENDBRANCH   2   9
BRANCH   4  11
ATOM     11  O   UNL     1      36.303 -24.115 -10.353  0.00  0.00    -0.380 OA
ATOM     12  H   UNL     1      36.781 -23.284 -10.211  0.00  0.00    +0.211 HD
ENDBRANCH   4  11
BRANCH   5  13
ATOM     13  O   UNL     1      38.270 -22.858 -11.882  0.00  0.00    -0.384 OA
ATOM     14  H   UNL     1      39.189 -22.668 -11.638  0.00  0.00    +0.210 HD
ENDBRANCH   5  13
BRANCH   3  15
ATOM     15  C   UNL     1      35.185 -23.940 -15.168  0.00  0.00    +0.118 C 
BRANCH  15  16
ATOM     16  O   UNL     1      34.574 -22.783 -14.633  0.00  0.00    -0.384 OA
ATOM     17  H   UNL     1      33.717 -22.640 -15.065  0.00  0.00    +0.210 HD
ENDBRANCH  15  16
ENDBRANCH   3  15
TORSDOF 5
ENDMDL
MODEL 9
REMARK VINA RESULT:      -5.4      2.048      2.896
REMARK  Name = 72258
REMARK  5 active torsions:
REMARK  status: ('A' for Active; 'I' for Inactive)
REMARK    1  A    between atoms: C_2  and  O_9
REMARK    2  A    between atoms: CA_3  and  C_15
REMARK    3  A    between atoms: C_4  and  O_11
REMARK    4  A    between atoms: C_5  and  O_13
REMARK    5  A    between atoms: C_15  and  O_16
REMARK                            x       y       z     vdW  Elec       q    Type
REMARK                         _______ _______ _______ _____ _____    ______ ____
ROOT
ATOM      1  N   UNL     1      36.817 -23.056 -13.356  0.00  0.00    +0.390 N 
ATOM      2  C   UNL     1      36.881 -25.237 -14.559  0.00  0.00    +0.123 C 
ATOM      3  CA  UNL     1      37.278 -23.747 -14.569  0.00  0.00    -0.002 C 
ATOM      4  C   UNL     1      37.376 -25.920 -13.280  0.00  0.00    +0.160 C 
ATOM      5  C   UNL     1      36.940 -25.149 -12.033  0.00  0.00    +0.118 C 
ATOM      6  C   UNL     1      37.345 -23.681 -12.138  0.00  0.00    -0.049 C 
ATOM      7  H1  UNL     1      35.798 -23.086 -13.327  0.00  0.00    -0.084 HD
ATOM      8  H2  UNL     1      37.156 -22.095 -13.391  0.00  0.00    -0.084 HD
ENDROOT
BRANCH   2   9
ATOM      9  O   UNL     1      37.486 -25.907 -15.664  0.00  0.00    -0.384 OA
ATOM     10  H   UNL     1      37.248 -26.848 -15.642  0.00  0.00    +0.210 HD
ENDBRANCH   2   9
BRANCH   4  11
ATOM     11  O   UNL     1      36.863 -27.250 -13.231  0.00  0.00    -0.380 OA
ATOM     12  H   UNL     1      36.237 -27.382 -13.959  0.00  0.00    +0.211 HD
ENDBRANCH   4  11
BRANCH   5  13
ATOM     13  O   UNL     1      35.521 -25.213 -11.875  0.00  0.00    -0.384 OA
ATOM     14  H   UNL     1      35.256 -24.681 -11.109  0.00  0.00    +0.210 HD
ENDBRANCH   5  13
BRANCH   3  15
ATOM     15  C   UNL     1      36.699 -23.017 -15.784  0.00  0.00    +0.118 C 
BRANCH  15  16
ATOM     16  O   UNL     1      35.570 -23.735 -16.240  0.00  0.00    -0.384 OA
ATOM     17  H   UNL     1      35.227 -24.289 -15.521  0.00  0.00    +0.210 HD
ENDBRANCH  15  16
ENDBRANCH   3  15
TORSDOF 5
ENDMDL
