MODEL 1
REMARK VINA RESULT:     -12.3      0.000      0.000
REMARK  Name = 44472635
REMARK  7 active torsions:
REMARK  status: ('A' for Active; 'I' for Inactive)
REMARK    1  A    between atoms: C_1  and  C_21
REMARK    2  A    between atoms: C_4  and  N_8
REMARK    3  A    between atoms: C_9  and  C_14
REMARK    4  A    between atoms: C_21  and  C_24
REMARK    5  A    between atoms: C_23  and  C_29
REMARK    6  A    between atoms: C_29  and  C_30
REMARK    7  A    between atoms: C_29  and  O_36
REMARK                            x       y       z     vdW  Elec       q    Type
REMARK                         _______ _______ _______ _____ _____    ______ ____
ROOT
ATOM      1  C   UNL     1      33.118 -13.002 -23.718  0.00  0.00    -0.024 C 
ATOM      2  C   UNL     1      33.983 -12.192 -24.454  0.00  0.00    -0.003 C 
ATOM      3  C   UNL     1      32.288 -12.436 -22.750  0.00  0.00    -0.003 C 
ATOM      4  C   UNL     1      33.187 -10.252 -23.254  0.00  0.00    +0.050 C 
ATOM      5  C   UNL     1      34.018 -10.817 -24.222  0.00  0.00    +0.014 C 
ATOM      6  C   UNL     1      32.322 -11.062 -22.518  0.00  0.00    +0.014 C 
ENDROOT
BRANCH   4   8
ATOM      7  O   UNL     1      31.175  -8.109 -23.906  0.00  0.00    -0.273 OA
ATOM      8  N   UNL     1      33.222  -8.857 -23.019  0.00  0.00    -0.283 N 
ATOM      9  C   UNL     1      32.253  -7.920 -23.350  0.00  0.00    +0.245 C 
ATOM     10  H   UNL     1      34.027  -8.512 -22.568  0.00  0.00    +0.155 HD
BRANCH   9  14
ATOM     11  O   UNL     1      34.029  -5.925 -25.489  0.00  0.00    -0.269 OA
ATOM     12  N   UNL     1      32.274  -5.637 -23.987  0.00  0.00    -0.237 N 
ATOM     13  N   UNL     1      30.502  -4.103 -24.432  0.00  0.00    -0.233 NA
ATOM     14  C   UNL     1      32.667  -6.542 -22.929  0.00  0.00    +0.158 C 
ATOM     15  C   UNL     1      31.870  -6.056 -21.727  0.00  0.00    +0.037 C 
ATOM     16  C   UNL     1      30.614  -5.420 -22.329  0.00  0.00    +0.064 C 
ATOM     17  C   UNL     1      31.093  -4.968 -23.675  0.00  0.00    +0.115 C 
ATOM     18  C   UNL     1      32.971  -5.403 -25.157  0.00  0.00    +0.256 C 
ATOM     19  C   UNL     1      32.295  -4.412 -26.033  0.00  0.00    +0.079 C 
ATOM     20  C   UNL     1      31.147  -3.854 -25.621  0.00  0.00    +0.105 C 
ENDBRANCH   9  14
ENDBRANCH   4   8
BRANCH   1  21
ATOM     21  C   UNL     1      33.082 -14.473 -23.964  0.00  0.00    +0.005 C 
BRANCH  21  24
ATOM     22  N   UNL     1      33.823 -16.608 -22.945  0.00  0.00    +0.388 N 
ATOM     23  C   UNL     1      34.282 -17.076 -21.628  0.00  0.00    -0.030 C 
ATOM     24  C   UNL     1      33.257 -15.277 -22.685  0.00  0.00    -0.057 C 
ATOM     25  C   UNL     1      34.784 -15.826 -20.906  0.00  0.00    -0.021 C 
ATOM     26  C   UNL     1      34.256 -14.652 -21.722  0.00  0.00    -0.023 C 
ATOM     27  H   UNL     1      33.112 -17.234 -23.322  0.00  0.00    -0.084 HD
ATOM     28  H   UNL     1      34.577 -16.583 -23.631  0.00  0.00    -0.084 HD
BRANCH  23  29
ATOM     29  C   UNL     1      35.346 -18.158 -21.753  0.00  0.00    +0.113 C 
BRANCH  29  30
ATOM     30  C   UNL     1      35.005 -19.390 -20.946  0.00  0.00    +0.002 C 
ATOM     31  C   UNL     1      33.672 -19.756 -20.759  0.00  0.00    -0.002 C 
ATOM     32  C   UNL     1      36.024 -20.161 -20.386  0.00  0.00    -0.002 C 
ATOM     33  C   UNL     1      33.359 -20.892 -20.014  0.00  0.00    -0.000 C 
ATOM     34  C   UNL     1      35.711 -21.297 -19.640  0.00  0.00    -0.000 C 
ATOM     35  C   UNL     1      34.378 -21.663 -19.455  0.00  0.00    -0.000 C 
ENDBRANCH  29  30
BRANCH  29  36
ATOM     36  O   UNL     1      35.499 -18.527 -23.123  0.00  0.00    -0.382 OA
ATOM     37  H   UNL     1      35.998 -19.357 -23.180  0.00  0.00    +0.211 HD
ENDBRANCH  29  36
ENDBRANCH  23  29
ENDBRANCH  21  24
ENDBRANCH   1  21
TORSDOF 7
ENDMDL
MODEL 2
REMARK VINA RESULT:     -12.1      5.856     15.085
REMARK  Name = 44472635
REMARK  7 active torsions:
REMARK  status: ('A' for Active; 'I' for Inactive)
REMARK    1  A    between atoms: C_1  and  C_21
REMARK    2  A    between atoms: C_4  and  N_8
REMARK    3  A    between atoms: C_9  and  C_14
REMARK    4  A    between atoms: C_21  and  C_24
REMARK    5  A    between atoms: C_23  and  C_29
REMARK    6  A    between atoms: C_29  and  C_30
REMARK    7  A    between atoms: C_29  and  O_36
REMARK                            x       y       z     vdW  Elec       q    Type
REMARK                         _______ _______ _______ _____ _____    ______ ____
ROOT
ATOM      1  C   UNL     1      35.668 -20.855 -20.043  0.00  0.00    -0.024 C 
ATOM      2  C   UNL     1      36.631 -21.236 -19.109  0.00  0.00    -0.003 C 
ATOM      3  C   UNL     1      34.355 -21.309 -19.916  0.00  0.00    -0.003 C 
ATOM      4  C   UNL     1      34.968 -22.523 -17.920  0.00  0.00    +0.050 C 
ATOM      5  C   UNL     1      36.281 -22.070 -18.047  0.00  0.00    +0.014 C 
ATOM      6  C   UNL     1      34.005 -22.143 -18.854  0.00  0.00    +0.014 C 
ENDROOT
BRANCH   4   8
ATOM      7  O   UNL     1      35.856 -22.504 -15.043  0.00  0.00    -0.273 OA
ATOM      8  N   UNL     1      34.612 -23.369 -16.842  0.00  0.00    -0.283 N 
ATOM      9  C   UNL     1      35.064 -23.304 -15.532  0.00  0.00    +0.245 C 
ATOM     10  H   UNL     1      33.969 -24.087 -17.047  0.00  0.00    +0.155 HD
BRANCH   9  14
ATOM     11  O   UNL     1      36.058 -26.559 -15.902  0.00  0.00    -0.269 OA
ATOM     12  N   UNL     1      35.533 -25.153 -14.123  0.00  0.00    -0.237 N 
ATOM     13  N   UNL     1      36.690 -25.302 -12.044  0.00  0.00    -0.233 NA
ATOM     14  C   UNL     1      34.448 -24.383 -14.693  0.00  0.00    +0.158 C 
ATOM     15  C   UNL     1      33.736 -23.811 -13.475  0.00  0.00    +0.037 C 
ATOM     16  C   UNL     1      34.828 -23.700 -12.407  0.00  0.00    +0.064 C 
ATOM     17  C   UNL     1      35.779 -24.788 -12.802  0.00  0.00    +0.115 C 
ATOM     18  C   UNL     1      36.235 -26.159 -14.757  0.00  0.00    +0.256 C 
ATOM     19  C   UNL     1      37.287 -26.752 -13.892  0.00  0.00    +0.079 C 
ATOM     20  C   UNL     1      37.434 -26.293 -12.640  0.00  0.00    +0.105 C 
ENDBRANCH   9  14
ENDBRANCH   4   8
BRANCH   1  21
ATOM     21  C   UNL     1      36.042 -19.965 -21.180  0.00  0.00    +0.005 C 
BRANCH  21  24
ATOM     22  N   UNL     1      35.217 -17.659 -20.798  0.00  0.00    +0.388 N 
ATOM     23  C   UNL     1      34.347 -16.693 -21.488  0.00  0.00    -0.030 C 
ATOM     24  C   UNL     1      34.967 -18.934 -21.485  0.00  0.00    -0.057 C 
ATOM     25  C   UNL     1      34.336 -17.132 -22.953  0.00  0.00    -0.021 C 
ATOM     26  C   UNL     1      34.922 -18.539 -22.954  0.00  0.00    -0.023 C 
ATOM     27  H   UNL     1      34.968 -17.726 -19.812  0.00  0.00    -0.084 HD
ATOM     28  H   UNL     1      36.199 -17.387 -20.829  0.00  0.00    -0.084 HD
BRANCH  23  29
ATOM     29  C   UNL     1      34.832 -15.263 -21.301  0.00  0.00    +0.113 C 
BRANCH  29  30
ATOM     30  C   UNL     1      33.861 -14.252 -21.866  0.00  0.00    +0.002 C 
ATOM     31  C   UNL     1      34.039 -13.759 -23.159  0.00  0.00    -0.002 C 
ATOM     32  C   UNL     1      32.786 -13.810 -21.095  0.00  0.00    -0.002 C 
ATOM     33  C   UNL     1      33.143 -12.827 -23.680  0.00  0.00    -0.000 C 
ATOM     34  C   UNL     1      31.890 -12.877 -21.615  0.00  0.00    -0.000 C 
ATOM     35  C   UNL     1      32.068 -12.385 -22.908  0.00  0.00    -0.000 C 
ENDBRANCH  29  30
BRANCH  29  36
ATOM     36  O   UNL     1      35.024 -14.997 -19.911  0.00  0.00    -0.382 OA
ATOM     37  H   UNL     1      34.169 -14.795 -19.500  0.00  0.00    +0.211 HD
ENDBRANCH  29  36
ENDBRANCH  23  29
ENDBRANCH  21  24
ENDBRANCH   1  21
TORSDOF 7
ENDMDL
MODEL 3
REMARK VINA RESULT:     -12.0      1.329      1.821
REMARK  Name = 44472635
REMARK  7 active torsions:
REMARK  status: ('A' for Active; 'I' for Inactive)
REMARK    1  A    between atoms: C_1  and  C_21
REMARK    2  A    between atoms: C_4  and  N_8
REMARK    3  A    between atoms: C_9  and  C_14
REMARK    4  A    between atoms: C_21  and  C_24
REMARK    5  A    between atoms: C_23  and  C_29
REMARK    6  A    between atoms: C_29  and  C_30
REMARK    7  A    between atoms: C_29  and  O_36
REMARK                            x       y       z     vdW  Elec       q    Type
REMARK                         _______ _______ _______ _____ _____    ______ ____
ROOT
ATOM      1  C   UNL     1      33.417 -13.480 -24.878  0.00  0.00    -0.024 C 
ATOM      2  C   UNL     1      32.897 -13.201 -23.614  0.00  0.00    -0.003 C 
ATOM      3  C   UNL     1      33.948 -12.450 -25.655  0.00  0.00    -0.003 C 
ATOM      4  C   UNL     1      33.438 -10.864 -23.906  0.00  0.00    +0.050 C 
ATOM      5  C   UNL     1      32.907 -11.893 -23.128  0.00  0.00    +0.014 C 
ATOM      6  C   UNL     1      33.959 -11.143 -25.170  0.00  0.00    +0.014 C 
ENDROOT
BRANCH   4   8
ATOM      7  O   UNL     1      31.164  -9.037 -23.160  0.00  0.00    -0.273 OA
ATOM      8  N   UNL     1      33.449  -9.538 -23.413  0.00  0.00    -0.283 N 
ATOM      9  C   UNL     1      32.355  -8.748 -23.089  0.00  0.00    +0.245 C 
ATOM     10  H   UNL     1      34.336  -9.129 -23.286  0.00  0.00    +0.155 HD
BRANCH   9  14
ATOM     11  O   UNL     1      34.626  -6.912 -24.874  0.00  0.00    -0.269 OA
ATOM     12  N   UNL     1      32.658  -6.480 -23.710  0.00  0.00    -0.237 N 
ATOM     13  N   UNL     1      31.112  -4.827 -24.462  0.00  0.00    -0.233 NA
ATOM     14  C   UNL     1      32.788  -7.399 -22.600  0.00  0.00    +0.158 C 
ATOM     15  C   UNL     1      31.827  -6.842 -21.559  0.00  0.00    +0.037 C 
ATOM     16  C   UNL     1      30.749  -6.124 -22.375  0.00  0.00    +0.064 C 
ATOM     17  C   UNL     1      31.493  -5.724 -23.613  0.00  0.00    +0.115 C 
ATOM     18  C   UNL     1      33.567  -6.311 -24.735  0.00  0.00    +0.256 C 
ATOM     19  C   UNL     1      33.134  -5.284 -25.717  0.00  0.00    +0.079 C 
ATOM     20  C   UNL     1      31.974  -4.639 -25.516  0.00  0.00    +0.105 C 
ENDBRANCH   9  14
ENDBRANCH   4   8
BRANCH   1  21
ATOM     21  C   UNL     1      33.404 -14.877 -25.398  0.00  0.00    +0.005 C 
BRANCH  21  24
ATOM     22  N   UNL     1      34.242 -15.712 -23.220  0.00  0.00    +0.388 N 
ATOM     23  C   UNL     1      34.977 -16.884 -22.721  0.00  0.00    -0.030 C 
ATOM     24  C   UNL     1      34.402 -15.771 -24.679  0.00  0.00    -0.057 C 
ATOM     25  C   UNL     1      34.768 -17.972 -23.775  0.00  0.00    -0.021 C 
ATOM     26  C   UNL     1      34.212 -17.248 -24.995  0.00  0.00    -0.023 C 
ATOM     27  H   UNL     1      34.642 -14.851 -22.848  0.00  0.00    -0.084 HD
ATOM     28  H   UNL     1      33.262 -15.720 -22.936  0.00  0.00    -0.084 HD
BRANCH  23  29
ATOM     29  C   UNL     1      34.504 -17.301 -21.336  0.00  0.00    +0.113 C 
BRANCH  29  30
ATOM     30  C   UNL     1      35.015 -18.669 -20.945  0.00  0.00    +0.002 C 
ATOM     31  C   UNL     1      34.115 -19.702 -20.682  0.00  0.00    -0.002 C 
ATOM     32  C   UNL     1      36.387 -18.899 -20.845  0.00  0.00    -0.002 C 
ATOM     33  C   UNL     1      34.586 -20.963 -20.321  0.00  0.00    -0.000 C 
ATOM     34  C   UNL     1      36.860 -20.160 -20.484  0.00  0.00    -0.000 C 
ATOM     35  C   UNL     1      35.959 -21.193 -20.222  0.00  0.00    -0.000 C 
ENDBRANCH  29  30
BRANCH  29  36
ATOM     36  O   UNL     1      34.944 -16.346 -20.369  0.00  0.00    -0.382 OA
ATOM     37  H   UNL     1      34.179 -16.012 -19.875  0.00  0.00    +0.211 HD
ENDBRANCH  29  36
ENDBRANCH  23  29
ENDBRANCH  21  24
ENDBRANCH   1  21
TORSDOF 7
ENDMDL
MODEL 4
REMARK VINA RESULT:     -11.9      6.179      9.962
REMARK  Name = 44472635
REMARK  7 active torsions:
REMARK  status: ('A' for Active; 'I' for Inactive)
REMARK    1  A    between atoms: C_1  and  C_21
REMARK    2  A    between atoms: C_4  and  N_8
REMARK    3  A    between atoms: C_9  and  C_14
REMARK    4  A    between atoms: C_21  and  C_24
REMARK    5  A    between atoms: C_23  and  C_29
REMARK    6  A    between atoms: C_29  and  C_30
REMARK    7  A    between atoms: C_29  and  O_36
REMARK                            x       y       z     vdW  Elec       q    Type
REMARK                         _______ _______ _______ _____ _____    ______ ____
ROOT
ATOM      1  C   UNL     1      34.189 -21.911 -19.286  0.00  0.00    -0.024 C 
ATOM      2  C   UNL     1      35.524 -21.583 -19.524  0.00  0.00    -0.003 C 
ATOM      3  C   UNL     1      33.174 -21.055 -19.716  0.00  0.00    -0.003 C 
ATOM      4  C   UNL     1      34.829 -19.547 -20.622  0.00  0.00    +0.050 C 
ATOM      5  C   UNL     1      35.844 -20.401 -20.192  0.00  0.00    +0.014 C 
ATOM      6  C   UNL     1      33.494 -19.874 -20.385  0.00  0.00    +0.014 C 
ENDROOT
BRANCH   4   8
ATOM      7  O   UNL     1      33.976 -18.539 -23.328  0.00  0.00    -0.273 OA
ATOM      8  N   UNL     1      35.153 -18.348 -21.300  0.00  0.00    -0.283 N 
ATOM      9  C   UNL     1      34.722 -17.944 -22.556  0.00  0.00    +0.245 C 
ATOM     10  H   UNL     1      35.753 -17.728 -20.825  0.00  0.00    +0.155 HD
BRANCH   9  14
ATOM     11  O   UNL     1      35.203 -17.106 -25.840  0.00  0.00    -0.269 OA
ATOM     12  N   UNL     1      34.424 -16.032 -23.926  0.00  0.00    -0.237 N 
ATOM     13  N   UNL     1      32.666 -14.426 -24.037  0.00  0.00    -0.233 NA
ATOM     14  C   UNL     1      35.291 -16.605 -22.919  0.00  0.00    +0.158 C 
ATOM     15  C   UNL     1      35.195 -15.621 -21.762  0.00  0.00    +0.037 C 
ATOM     16  C   UNL     1      33.806 -14.993 -21.905  0.00  0.00    +0.064 C 
ATOM     17  C   UNL     1      33.554 -15.094 -23.378  0.00  0.00    +0.115 C 
ATOM     18  C   UNL     1      34.450 -16.319 -25.277  0.00  0.00    +0.256 C 
ATOM     19  C   UNL     1      33.428 -15.557 -26.040  0.00  0.00    +0.079 C 
ATOM     20  C   UNL     1      32.635 -14.695 -25.385  0.00  0.00    +0.105 C 
ENDBRANCH   9  14
ENDBRANCH   4   8
BRANCH   1  21
ATOM     21  C   UNL     1      33.846 -23.173 -18.570  0.00  0.00    +0.005 C 
BRANCH  21  24
ATOM     22  N   UNL     1      32.624 -23.157 -16.414  0.00  0.00    +0.388 N 
ATOM     23  C   UNL     1      32.933 -23.379 -14.993  0.00  0.00    -0.030 C 
ATOM     24  C   UNL     1      33.937 -23.024 -17.060  0.00  0.00    -0.057 C 
ATOM     25  C   UNL     1      34.216 -24.211 -14.984  0.00  0.00    -0.021 C 
ATOM     26  C   UNL     1      34.764 -24.120 -16.403  0.00  0.00    -0.023 C 
ATOM     27  H   UNL     1      32.076 -22.305 -16.533  0.00  0.00    -0.084 HD
ATOM     28  H   UNL     1      32.069 -23.914 -16.812  0.00  0.00    -0.084 HD
BRANCH  23  29
ATOM     29  C   UNL     1      31.782 -24.056 -14.263  0.00  0.00    +0.113 C 
BRANCH  29  30
ATOM     30  C   UNL     1      30.457 -23.834 -14.957  0.00  0.00    +0.002 C 
ATOM     31  C   UNL     1      29.801 -22.608 -14.835  0.00  0.00    -0.002 C 
ATOM     32  C   UNL     1      29.889 -24.855 -15.719  0.00  0.00    -0.002 C 
ATOM     33  C   UNL     1      28.579 -22.404 -15.475  0.00  0.00    -0.000 C 
ATOM     34  C   UNL     1      28.666 -24.652 -16.358  0.00  0.00    -0.000 C 
ATOM     35  C   UNL     1      28.012 -23.426 -16.237  0.00  0.00    -0.000 C 
ENDBRANCH  29  30
BRANCH  29  36
ATOM     36  O   UNL     1      32.028 -25.459 -14.169  0.00  0.00    -0.382 OA
ATOM     37  H   UNL     1      31.191 -25.940 -14.252  0.00  0.00    +0.211 HD
ENDBRANCH  29  36
ENDBRANCH  23  29
ENDBRANCH  21  24
ENDBRANCH   1  21
TORSDOF 7
ENDMDL
MODEL 5
REMARK VINA RESULT:     -11.9      2.814      4.545
REMARK  Name = 44472635
REMARK  7 active torsions:
REMARK  status: ('A' for Active; 'I' for Inactive)
REMARK    1  A    between atoms: C_1  and  C_21
REMARK    2  A    between atoms: C_4  and  N_8
REMARK    3  A    between atoms: C_9  and  C_14
REMARK    4  A    between atoms: C_21  and  C_24
REMARK    5  A    between atoms: C_23  and  C_29
REMARK    6  A    between atoms: C_29  and  C_30
REMARK    7  A    between atoms: C_29  and  O_36
REMARK                            x       y       z     vdW  Elec       q    Type
REMARK                         _______ _______ _______ _____ _____    ______ ____
ROOT
ATOM      1  C   UNL     1      34.552 -15.956 -23.157  0.00  0.00    -0.024 C 
ATOM      2  C   UNL     1      33.921 -15.448 -24.293  0.00  0.00    -0.003 C 
ATOM      3  C   UNL     1      34.520 -15.237 -21.962  0.00  0.00    -0.003 C 
ATOM      4  C   UNL     1      33.226 -13.504 -23.037  0.00  0.00    +0.050 C 
ATOM      5  C   UNL     1      33.258 -14.222 -24.233  0.00  0.00    +0.014 C 
ATOM      6  C   UNL     1      33.857 -14.013 -21.901  0.00  0.00    +0.014 C 
ENDROOT
BRANCH   4   8
ATOM      7  O   UNL     1      34.097 -10.764 -23.927  0.00  0.00    -0.273 OA
ATOM      8  N   UNL     1      32.553 -12.261 -22.975  0.00  0.00    -0.283 N 
ATOM      9  C   UNL     1      33.018 -11.027 -23.406  0.00  0.00    +0.245 C 
ATOM     10  H   UNL     1      31.650 -12.274 -22.581  0.00  0.00    +0.155 HD
BRANCH   9  14
ATOM     11  O   UNL     1      30.402 -11.574 -21.268  0.00  0.00    -0.269 OA
ATOM     12  N   UNL     1      31.855  -9.816 -21.731  0.00  0.00    -0.237 N 
ATOM     13  N   UNL     1      32.630  -8.362 -20.007  0.00  0.00    -0.233 NA
ATOM     14  C   UNL     1      32.001  -9.951 -23.165  0.00  0.00    +0.158 C 
ATOM     15  C   UNL     1      32.511  -8.586 -23.603  0.00  0.00    +0.037 C 
ATOM     16  C   UNL     1      33.268  -8.048 -22.386  0.00  0.00    +0.064 C 
ATOM     17  C   UNL     1      32.571  -8.725 -21.246  0.00  0.00    +0.115 C 
ATOM     18  C   UNL     1      31.083 -10.618 -20.915  0.00  0.00    +0.256 C 
ATOM     19  C   UNL     1      31.149 -10.209 -19.488  0.00  0.00    +0.079 C 
ATOM     20  C   UNL     1      31.895  -9.146 -19.149  0.00  0.00    +0.105 C 
ENDBRANCH   9  14
ENDBRANCH   4   8
BRANCH   1  21
ATOM     21  C   UNL     1      35.263 -17.265 -23.221  0.00  0.00    +0.005 C 
BRANCH  21  24
ATOM     22  N   UNL     1      34.314 -18.895 -21.613  0.00  0.00    +0.388 N 
ATOM     23  C   UNL     1      34.791 -19.693 -20.473  0.00  0.00    -0.030 C 
ATOM     24  C   UNL     1      35.388 -17.922 -21.857  0.00  0.00    -0.057 C 
ATOM     25  C   UNL     1      36.305 -19.800 -20.659  0.00  0.00    -0.021 C 
ATOM     26  C   UNL     1      36.654 -18.754 -21.711  0.00  0.00    -0.023 C 
ATOM     27  H   UNL     1      33.443 -18.419 -21.379  0.00  0.00    -0.084 HD
ATOM     28  H   UNL     1      34.116 -19.469 -22.432  0.00  0.00    -0.084 HD
BRANCH  23  29
ATOM     29  C   UNL     1      34.104 -21.050 -20.407  0.00  0.00    +0.113 C 
BRANCH  29  30
ATOM     30  C   UNL     1      34.352 -21.752 -19.091  0.00  0.00    +0.002 C 
ATOM     31  C   UNL     1      35.621 -21.724 -18.512  0.00  0.00    -0.002 C 
ATOM     32  C   UNL     1      33.311 -22.429 -18.455  0.00  0.00    -0.002 C 
ATOM     33  C   UNL     1      35.849 -22.371 -17.299  0.00  0.00    -0.000 C 
ATOM     34  C   UNL     1      33.538 -23.078 -17.242  0.00  0.00    -0.000 C 
ATOM     35  C   UNL     1      34.808 -23.049 -16.663  0.00  0.00    -0.000 C 
ENDBRANCH  29  30
BRANCH  29  36
ATOM     36  O   UNL     1      32.698 -20.887 -20.590  0.00  0.00    -0.382 OA
ATOM     37  H   UNL     1      32.239 -21.082 -19.758  0.00  0.00    +0.211 HD
ENDBRANCH  29  36
ENDBRANCH  23  29
ENDBRANCH  21  24
ENDBRANCH   1  21
TORSDOF 7
ENDMDL
MODEL 6
REMARK VINA RESULT:     -11.8      5.501     14.378
REMARK  Name = 44472635
REMARK  7 active torsions:
REMARK  status: ('A' for Active; 'I' for Inactive)
REMARK    1  A    between atoms: C_1  and  C_21
REMARK    2  A    between atoms: C_4  and  N_8
REMARK    3  A    between atoms: C_9  and  C_14
REMARK    4  A    between atoms: C_21  and  C_24
REMARK    5  A    between atoms: C_23  and  C_29
REMARK    6  A    between atoms: C_29  and  C_30
REMARK    7  A    between atoms: C_29  and  O_36
REMARK                            x       y       z     vdW  Elec       q    Type
REMARK                         _______ _______ _______ _____ _____    ______ ____
ROOT
ATOM      1  C   UNL     1      35.225 -20.190 -20.890  0.00  0.00    -0.024 C 
ATOM      2  C   UNL     1      33.867 -20.332 -20.604  0.00  0.00    -0.003 C 
ATOM      3  C   UNL     1      36.166 -20.951 -20.195  0.00  0.00    -0.003 C 
ATOM      4  C   UNL     1      34.392 -21.994 -18.931  0.00  0.00    +0.050 C 
ATOM      5  C   UNL     1      33.450 -21.233 -19.625  0.00  0.00    +0.014 C 
ATOM      6  C   UNL     1      35.750 -21.853 -19.216  0.00  0.00    +0.014 C 
ENDROOT
BRANCH   4   8
ATOM      7  O   UNL     1      35.378 -22.419 -16.118  0.00  0.00    -0.273 OA
ATOM      8  N   UNL     1      33.969 -22.909 -17.938  0.00  0.00    -0.283 N 
ATOM      9  C   UNL     1      34.473 -23.053 -16.653  0.00  0.00    +0.245 C 
ATOM     10  H   UNL     1      33.232 -23.513 -18.188  0.00  0.00    +0.155 HD
BRANCH   9  14
ATOM     11  O   UNL     1      36.161 -25.839 -15.604  0.00  0.00    -0.269 OA
ATOM     12  N   UNL     1      34.532 -24.430 -14.724  0.00  0.00    -0.237 N 
ATOM     13  N   UNL     1      34.479 -23.898 -12.399  0.00  0.00    -0.233 NA
ATOM     14  C   UNL     1      33.753 -24.137 -15.908  0.00  0.00    +0.158 C 
ATOM     15  C   UNL     1      32.423 -23.651 -15.351  0.00  0.00    +0.037 C 
ATOM     16  C   UNL     1      32.774 -23.043 -13.990  0.00  0.00    +0.064 C 
ATOM     17  C   UNL     1      33.994 -23.818 -13.595  0.00  0.00    +0.115 C 
ATOM     18  C   UNL     1      35.647 -25.241 -14.666  0.00  0.00    +0.256 C 
ATOM     19  C   UNL     1      36.212 -25.336 -13.295  0.00  0.00    +0.079 C 
ATOM     20  C   UNL     1      35.607 -24.677 -12.295  0.00  0.00    +0.105 C 
ENDBRANCH   9  14
ENDBRANCH   4   8
BRANCH   1  21
ATOM     21  C   UNL     1      35.671 -19.225 -21.935  0.00  0.00    +0.005 C 
BRANCH  21  24
ATOM     22  N   UNL     1      34.789 -16.982 -21.354  0.00  0.00    +0.388 N 
ATOM     23  C   UNL     1      33.991 -15.932 -22.004  0.00  0.00    -0.030 C 
ATOM     24  C   UNL     1      34.627 -18.158 -22.220  0.00  0.00    -0.057 C 
ATOM     25  C   UNL     1      34.141 -16.180 -23.505  0.00  0.00    -0.021 C 
ATOM     26  C   UNL     1      34.736 -17.579 -23.623  0.00  0.00    -0.023 C 
ATOM     27  H   UNL     1      34.437 -17.174 -20.416  0.00  0.00    -0.084 HD
ATOM     28  H   UNL     1      35.767 -16.713 -21.244  0.00  0.00    -0.084 HD
BRANCH  23  29
ATOM     29  C   UNL     1      34.440 -14.540 -21.585  0.00  0.00    +0.113 C 
BRANCH  29  30
ATOM     30  C   UNL     1      33.304 -13.543 -21.605  0.00  0.00    +0.002 C 
ATOM     31  C   UNL     1      32.579 -13.286 -20.441  0.00  0.00    -0.002 C 
ATOM     32  C   UNL     1      32.980 -12.879 -22.788  0.00  0.00    -0.002 C 
ATOM     33  C   UNL     1      31.531 -12.367 -20.460  0.00  0.00    -0.000 C 
ATOM     34  C   UNL     1      31.931 -11.960 -22.808  0.00  0.00    -0.000 C 
ATOM     35  C   UNL     1      31.207 -11.704 -21.643  0.00  0.00    -0.000 C 
ENDBRANCH  29  30
BRANCH  29  36
ATOM     36  O   UNL     1      34.995 -14.588 -20.270  0.00  0.00    -0.382 OA
ATOM     37  H   UNL     1      35.378 -15.465 -20.114  0.00  0.00    +0.211 HD
ENDBRANCH  29  36
ENDBRANCH  23  29
ENDBRANCH  21  24
ENDBRANCH   1  21
TORSDOF 7
ENDMDL
MODEL 7
REMARK VINA RESULT:     -11.7      7.830     15.611
REMARK  Name = 44472635
REMARK  7 active torsions:
REMARK  status: ('A' for Active; 'I' for Inactive)
REMARK    1  A    between atoms: C_1  and  C_21
REMARK    2  A    between atoms: C_4  and  N_8
REMARK    3  A    between atoms: C_9  and  C_14
REMARK    4  A    between atoms: C_21  and  C_24
REMARK    5  A    between atoms: C_23  and  C_29
REMARK    6  A    between atoms: C_29  and  C_30
REMARK    7  A    between atoms: C_29  and  O_36
REMARK                            x       y       z     vdW  Elec       q    Type
REMARK                         _______ _______ _______ _____ _____    ______ ____
ROOT
ATOM      1  C   UNL     1      34.156 -22.644 -18.218  0.00  0.00    -0.024 C 
ATOM      2  C   UNL     1      35.432 -22.317 -17.760  0.00  0.00    -0.003 C 
ATOM      3  C   UNL     1      33.323 -23.450 -17.442  0.00  0.00    -0.003 C 
ATOM      4  C   UNL     1      35.041 -23.602 -15.751  0.00  0.00    +0.050 C 
ATOM      5  C   UNL     1      35.875 -22.796 -16.527  0.00  0.00    +0.014 C 
ATOM      6  C   UNL     1      33.764 -23.929 -16.210  0.00  0.00    +0.014 C 
ENDROOT
BRANCH   4   8
ATOM      7  O   UNL     1      33.597 -23.856 -13.121  0.00  0.00    -0.273 OA
ATOM      8  N   UNL     1      35.489 -24.088 -14.500  0.00  0.00    -0.283 N 
ATOM      9  C   UNL     1      34.766 -24.176 -13.319  0.00  0.00    +0.245 C 
ATOM     10  H   UNL     1      36.423 -24.399 -14.464  0.00  0.00    +0.155 HD
BRANCH   9  14
ATOM     11  O   UNL     1      36.525 -27.071 -13.807  0.00  0.00    -0.269 OA
ATOM     12  N   UNL     1      36.910 -25.024 -12.767  0.00  0.00    -0.237 N 
ATOM     13  N   UNL     1      39.067 -24.008 -12.795  0.00  0.00    -0.233 NA
ATOM     14  C   UNL     1      35.602 -24.747 -12.214  0.00  0.00    +0.158 C 
ATOM     15  C   UNL     1      35.882 -23.717 -11.130  0.00  0.00    +0.037 C 
ATOM     16  C   UNL     1      37.139 -22.986 -11.608  0.00  0.00    +0.064 C 
ATOM     17  C   UNL     1      37.826 -24.030 -12.436  0.00  0.00    +0.115 C 
ATOM     18  C   UNL     1      37.261 -26.140 -13.502  0.00  0.00    +0.256 C 
ATOM     19  C   UNL     1      38.686 -26.120 -13.921  0.00  0.00    +0.079 C 
ATOM     20  C   UNL     1      39.459 -25.088 -13.550  0.00  0.00    +0.105 C 
ENDBRANCH   9  14
ENDBRANCH   4   8
BRANCH   1  21
ATOM     21  C   UNL     1      33.683 -22.134 -19.537  0.00  0.00    +0.005 C 
BRANCH  21  24
ATOM     22  N   UNL     1      35.151 -20.485 -20.666  0.00  0.00    +0.388 N 
ATOM     23  C   UNL     1      35.088 -19.067 -21.051  0.00  0.00    -0.030 C 
ATOM     24  C   UNL     1      34.021 -20.666 -19.744  0.00  0.00    -0.057 C 
ATOM     25  C   UNL     1      33.599 -18.728 -21.110  0.00  0.00    -0.021 C 
ATOM     26  C   UNL     1      32.897 -19.885 -20.409  0.00  0.00    -0.023 C 
ATOM     27  H   UNL     1      36.033 -20.693 -20.199  0.00  0.00    -0.084 HD
ATOM     28  H   UNL     1      35.099 -21.108 -21.471  0.00  0.00    -0.084 HD
BRANCH  23  29
ATOM     29  C   UNL     1      35.809 -18.807 -22.367  0.00  0.00    +0.113 C 
BRANCH  29  30
ATOM     30  C   UNL     1      35.179 -17.678 -23.150  0.00  0.00    +0.002 C 
ATOM     31  C   UNL     1      34.707 -17.904 -24.444  0.00  0.00    -0.002 C 
ATOM     32  C   UNL     1      35.069 -16.410 -22.580  0.00  0.00    -0.002 C 
ATOM     33  C   UNL     1      34.126 -16.862 -25.166  0.00  0.00    -0.000 C 
ATOM     34  C   UNL     1      34.489 -15.367 -23.302  0.00  0.00    -0.000 C 
ATOM     35  C   UNL     1      34.017 -15.594 -24.595  0.00  0.00    -0.000 C 
ENDBRANCH  29  30
BRANCH  29  36
ATOM     36  O   UNL     1      37.177 -18.490 -22.112  0.00  0.00    -0.382 OA
ATOM     37  H   UNL     1      37.658 -19.298 -21.875  0.00  0.00    +0.211 HD
ENDBRANCH  29  36
ENDBRANCH  23  29
ENDBRANCH  21  24
ENDBRANCH   1  21
TORSDOF 7
ENDMDL
MODEL 8
REMARK VINA RESULT:     -11.7      5.472     14.325
REMARK  Name = 44472635
REMARK  7 active torsions:
REMARK  status: ('A' for Active; 'I' for Inactive)
REMARK    1  A    between atoms: C_1  and  C_21
REMARK    2  A    between atoms: C_4  and  N_8
REMARK    3  A    between atoms: C_9  and  C_14
REMARK    4  A    between atoms: C_21  and  C_24
REMARK    5  A    between atoms: C_23  and  C_29
REMARK    6  A    between atoms: C_29  and  C_30
REMARK    7  A    between atoms: C_29  and  O_36
REMARK                            x       y       z     vdW  Elec       q    Type
REMARK                         _______ _______ _______ _____ _____    ______ ____
ROOT
ATOM      1  C   UNL     1      35.571 -19.711 -20.833  0.00  0.00    -0.024 C 
ATOM      2  C   UNL     1      34.202 -19.946 -20.699  0.00  0.00    -0.003 C 
ATOM      3  C   UNL     1      36.482 -20.460 -20.088  0.00  0.00    -0.003 C 
ATOM      4  C   UNL     1      34.658 -21.677 -19.077  0.00  0.00    +0.050 C 
ATOM      5  C   UNL     1      33.745 -20.929 -19.821  0.00  0.00    +0.014 C 
ATOM      6  C   UNL     1      36.026 -21.443 -19.211  0.00  0.00    +0.014 C 
ENDROOT
BRANCH   4   8
ATOM      7  O   UNL     1      35.517 -22.340 -16.268  0.00  0.00    -0.273 OA
ATOM      8  N   UNL     1      34.195 -22.675 -18.186  0.00  0.00    -0.283 N 
ATOM      9  C   UNL     1      34.640 -22.928 -16.896  0.00  0.00    +0.245 C 
ATOM     10  H   UNL     1      33.474 -23.256 -18.520  0.00  0.00    +0.155 HD
BRANCH   9  14
ATOM     11  O   UNL     1      36.340 -25.609 -15.617  0.00  0.00    -0.269 OA
ATOM     12  N   UNL     1      34.497 -24.332 -14.991  0.00  0.00    -0.237 N 
ATOM     13  N   UNL     1      34.046 -23.848 -12.700  0.00  0.00    -0.233 NA
ATOM     14  C   UNL     1      33.893 -24.072 -16.280  0.00  0.00    +0.158 C 
ATOM     15  C   UNL     1      32.461 -23.690 -15.934  0.00  0.00    +0.037 C 
ATOM     16  C   UNL     1      32.552 -23.084 -14.531  0.00  0.00    +0.064 C 
ATOM     17  C   UNL     1      33.749 -23.779 -13.956  0.00  0.00    +0.115 C 
ATOM     18  C   UNL     1      35.645 -25.065 -14.766  0.00  0.00    +0.256 C 
ATOM     19  C   UNL     1      35.995 -25.145 -13.324  0.00  0.00    +0.079 C 
ATOM     20  C   UNL     1      35.197 -24.548 -12.426  0.00  0.00    +0.105 C 
ENDBRANCH   9  14
ENDBRANCH   4   8
BRANCH   1  21
ATOM     21  C   UNL     1      36.059 -18.659 -21.771  0.00  0.00    +0.005 C 
BRANCH  21  24
ATOM     22  N   UNL     1      34.579 -16.689 -22.041  0.00  0.00    +0.388 N 
ATOM     23  C   UNL     1      33.785 -16.072 -23.115  0.00  0.00    -0.030 C 
ATOM     24  C   UNL     1      34.929 -18.019 -22.560  0.00  0.00    -0.057 C 
ATOM     25  C   UNL     1      34.402 -16.581 -24.418  0.00  0.00    -0.021 C 
ATOM     26  C   UNL     1      35.298 -17.744 -24.011  0.00  0.00    -0.023 C 
ATOM     27  H   UNL     1      34.028 -16.769 -21.187  0.00  0.00    -0.084 HD
ATOM     28  H   UNL     1      35.402 -16.137 -21.802  0.00  0.00    -0.084 HD
BRANCH  23  29
ATOM     29  C   UNL     1      33.782 -14.553 -23.013  0.00  0.00    +0.113 C 
BRANCH  29  30
ATOM     30  C   UNL     1      33.601 -13.891 -24.360  0.00  0.00    +0.002 C 
ATOM     31  C   UNL     1      33.975 -12.559 -24.538  0.00  0.00    -0.002 C 
ATOM     32  C   UNL     1      33.060 -14.611 -25.424  0.00  0.00    -0.002 C 
ATOM     33  C   UNL     1      33.807 -11.948 -25.780  0.00  0.00    -0.000 C 
ATOM     34  C   UNL     1      32.891 -14.001 -26.667  0.00  0.00    -0.000 C 
ATOM     35  C   UNL     1      33.266 -12.669 -26.845  0.00  0.00    -0.000 C 
ENDBRANCH  29  30
BRANCH  29  36
ATOM     36  O   UNL     1      32.732 -14.132 -22.142  0.00  0.00    -0.382 OA
ATOM     37  H   UNL     1      31.876 -14.271 -22.576  0.00  0.00    +0.211 HD
ENDBRANCH  29  36
ENDBRANCH  23  29
ENDBRANCH  21  24
ENDBRANCH   1  21
TORSDOF 7
ENDMDL
MODEL 9
REMARK VINA RESULT:     -11.6      6.697     15.069
REMARK  Name = 44472635
REMARK  7 active torsions:
REMARK  status: ('A' for Active; 'I' for Inactive)
REMARK    1  A    between atoms: C_1  and  C_21
REMARK    2  A    between atoms: C_4  and  N_8
REMARK    3  A    between atoms: C_9  and  C_14
REMARK    4  A    between atoms: C_21  and  C_24
REMARK    5  A    between atoms: C_23  and  C_29
REMARK    6  A    between atoms: C_29  and  C_30
REMARK    7  A    between atoms: C_29  and  O_36
REMARK                            x       y       z     vdW  Elec       q    Type
REMARK                         _______ _______ _______ _____ _____    ______ ____
ROOT
ATOM      1  C   UNL     1      35.757 -21.303 -19.339  0.00  0.00    -0.024 C 
ATOM      2  C   UNL     1      34.630 -22.066 -19.033  0.00  0.00    -0.003 C 
ATOM      3  C   UNL     1      36.847 -21.291 -18.468  0.00  0.00    -0.003 C 
ATOM      4  C   UNL     1      35.684 -22.804 -16.988  0.00  0.00    +0.050 C 
ATOM      5  C   UNL     1      34.593 -22.816 -17.857  0.00  0.00    +0.014 C 
ATOM      6  C   UNL     1      36.811 -22.041 -17.293  0.00  0.00    +0.014 C 
ENDROOT
BRANCH   4   8
ATOM      7  O   UNL     1      33.581 -22.971 -14.839  0.00  0.00    -0.273 OA
ATOM      8  N   UNL     1      35.646 -23.565 -15.795  0.00  0.00    -0.283 N 
ATOM      9  C   UNL     1      34.639 -23.593 -14.842  0.00  0.00    +0.245 C 
ATOM     10  H   UNL     1      36.426 -24.142 -15.623  0.00  0.00    +0.155 HD
BRANCH   9  14
ATOM     11  O   UNL     1      36.092 -26.619 -15.507  0.00  0.00    -0.269 OA
ATOM     12  N   UNL     1      36.353 -24.943 -13.914  0.00  0.00    -0.237 N 
ATOM     13  N   UNL     1      38.501 -24.390 -13.038  0.00  0.00    -0.233 NA
ATOM     14  C   UNL     1      34.979 -24.530 -13.722  0.00  0.00    +0.158 C 
ATOM     15  C   UNL     1      35.003 -23.817 -12.378  0.00  0.00    +0.037 C 
ATOM     16  C   UNL     1      36.427 -23.268 -12.258  0.00  0.00    +0.064 C 
ATOM     17  C   UNL     1      37.218 -24.237 -13.083  0.00  0.00    +0.115 C 
ATOM     18  C   UNL     1      36.791 -25.934 -14.770  0.00  0.00    +0.256 C 
ATOM     19  C   UNL     1      38.265 -26.112 -14.726  0.00  0.00    +0.079 C 
ATOM     20  C   UNL     1      38.989 -25.351 -13.892  0.00  0.00    +0.105 C 
ENDBRANCH   9  14
ENDBRANCH   4   8
BRANCH   1  21
ATOM     21  C   UNL     1      35.796 -20.500 -20.594  0.00  0.00    +0.005 C 
BRANCH  21  24
ATOM     22  N   UNL     1      35.531 -18.038 -20.727  0.00  0.00    +0.388 N 
ATOM     23  C   UNL     1      34.463 -17.082 -21.055  0.00  0.00    -0.030 C 
ATOM     24  C   UNL     1      34.836 -19.322 -20.556  0.00  0.00    -0.057 C 
ATOM     25  C   UNL     1      33.457 -17.870 -21.894  0.00  0.00    -0.021 C 
ATOM     26  C   UNL     1      33.835 -19.334 -21.703  0.00  0.00    -0.023 C 
ATOM     27  H   UNL     1      36.004 -17.768 -19.865  0.00  0.00    -0.084 HD
ATOM     28  H   UNL     1      36.250 -18.079 -21.449  0.00  0.00    -0.084 HD
BRANCH  23  29
ATOM     29  C   UNL     1      35.005 -15.855 -21.775  0.00  0.00    +0.113 C 
BRANCH  29  30
ATOM     30  C   UNL     1      34.479 -15.744 -23.188  0.00  0.00    +0.002 C 
ATOM     31  C   UNL     1      33.589 -14.723 -23.524  0.00  0.00    -0.002 C 
ATOM     32  C   UNL     1      34.884 -16.662 -24.157  0.00  0.00    -0.002 C 
ATOM     33  C   UNL     1      33.104 -14.621 -24.827  0.00  0.00    -0.000 C 
ATOM     34  C   UNL     1      34.398 -16.561 -25.461  0.00  0.00    -0.000 C 
ATOM     35  C   UNL     1      33.509 -15.540 -25.796  0.00  0.00    -0.000 C 
ENDBRANCH  29  30
BRANCH  29  36
ATOM     36  O   UNL     1      34.651 -14.676 -21.052  0.00  0.00    -0.382 OA
ATOM     37  H   UNL     1      34.245 -14.925 -20.207  0.00  0.00    +0.211 HD
ENDBRANCH  29  36
ENDBRANCH  23  29
ENDBRANCH  21  24
ENDBRANCH   1  21
TORSDOF 7
ENDMDL
