MODEL 1
REMARK VINA RESULT:     -10.1      0.000      0.000
REMARK  Name = 17759780
REMARK  9 active torsions:
REMARK  status: ('A' for Active; 'I' for Inactive)
REMARK    1  A    between atoms: C_3  and  C_10
REMARK    2  A    between atoms: C_5  and  O_25
REMARK    3  A    between atoms: C_6  and  C_22
REMARK    4  A    between atoms: C_7  and  N_13
REMARK    5  A    between atoms: N_13  and  C_15
REMARK    6  A    between atoms: C_22  and  O_23
REMARK    7  A    between atoms: O_25  and  C_26
REMARK    8  A    between atoms: C_26  and  C_28
REMARK    9  A    between atoms: C_28  and  O_29
REMARK                            x       y       z     vdW  Elec       q    Type
REMARK                         _______ _______ _______ _____ _____    ______ ____
ROOT
ATOM      1 BR   UNL     1      34.536 -14.889 -20.488  0.00  0.00    -0.045 Br
ATOM      2  S   UNL     1      32.723 -13.875 -24.385  0.00  0.00    -0.077 S 
ATOM      3  C   UNL     1      33.067 -13.711 -22.715  0.00  0.00    +0.039 A 
ATOM      4  C   UNL     1      33.909 -14.702 -22.261  0.00  0.00    +0.075 A 
ATOM      5  C   UNL     1      34.277 -15.608 -23.297  0.00  0.00    +0.158 A 
ATOM      6  C   UNL     1      33.701 -15.275 -24.504  0.00  0.00    +0.139 A 
ENDROOT
BRANCH   3  10
ATOM      7  C   UNL     1      31.671 -10.327 -21.970  0.00  0.00    +0.045 C 
ATOM      8  C   UNL     1      32.251 -11.394 -22.657  0.00  0.00    +0.015 C 
ATOM      9  C   UNL     1      31.309 -10.475 -20.631  0.00  0.00    +0.014 C 
ATOM     10  C   UNL     1      32.468 -12.608 -22.004  0.00  0.00    +0.008 C 
ATOM     11  C   UNL     1      31.526 -11.688 -19.978  0.00  0.00    +0.001 C 
ATOM     12  C   UNL     1      32.106 -12.755 -20.665  0.00  0.00    +0.001 C 
BRANCH   7  13
ATOM     13  N   UNL     1      31.454  -9.124 -22.615  0.00  0.00    -0.334 N 
ATOM     14  H   UNL     1      30.971  -9.136 -23.472  0.00  0.00    +0.147 HD
BRANCH  13  15
ATOM     15  C   UNL     1      31.901  -7.845 -22.096  0.00  0.00    +0.069 C 
ATOM     16  C   UNL     1      33.431  -7.780 -22.103  0.00  0.00    +0.019 C 
ATOM     17  C   UNL     1      31.286  -6.702 -22.911  0.00  0.00    +0.019 C 
ATOM     18  C   UNL     1      34.013  -7.669 -23.513  0.00  0.00    +0.002 C 
ATOM     19  C   UNL     1      31.874  -6.596 -24.317  0.00  0.00    +0.002 C 
ATOM     20  C   UNL     1      33.397  -6.508 -24.286  0.00  0.00    +0.000 C 
ENDBRANCH  13  15
ENDBRANCH   7  13
ENDBRANCH   3  10
BRANCH   6  22
ATOM     21  O   UNL     1      33.097 -15.765 -26.771  0.00  0.00    -0.244 OA
ATOM     22  C   UNL     1      33.820 -15.923 -25.771  0.00  0.00    +0.347 C 
BRANCH  22  23
ATOM     23  O   UNL     1      34.869 -16.809 -25.823  0.00  0.00    -0.477 OA
ATOM     24  H   UNL     1      35.668 -16.614 -25.376  0.00  0.00    +0.295 HD
ENDBRANCH  22  23
ENDBRANCH   6  22
BRANCH   5  25
ATOM     25  O   UNL     1      35.087 -16.675 -23.160  0.00  0.00    -0.463 OA
BRANCH  25  26
ATOM     26  C   UNL     1      34.619 -17.743 -22.333  0.00  0.00    +0.314 C 
BRANCH  26  28
ATOM     27  O   UNL     1      35.759 -18.934 -20.549  0.00  0.00    -0.246 OA
ATOM     28  C   UNL     1      35.783 -18.406 -21.651  0.00  0.00    +0.359 C 
BRANCH  28  29
ATOM     29  O   UNL     1      36.887 -18.339 -22.436  0.00  0.00    -0.478 OA
ATOM     30  H   UNL     1      37.740 -18.352 -22.048  0.00  0.00    +0.295 HD
ENDBRANCH  28  29
ENDBRANCH  26  28
ENDBRANCH  25  26
ENDBRANCH   5  25
TORSDOF 9
ENDMDL
MODEL 2
REMARK VINA RESULT:      -9.8     12.632     14.590
REMARK  Name = 17759780
REMARK  9 active torsions:
REMARK  status: ('A' for Active; 'I' for Inactive)
REMARK    1  A    between atoms: C_3  and  C_10
REMARK    2  A    between atoms: C_5  and  O_25
REMARK    3  A    between atoms: C_6  and  C_22
REMARK    4  A    between atoms: C_7  and  N_13
REMARK    5  A    between atoms: N_13  and  C_15
REMARK    6  A    between atoms: C_22  and  O_23
REMARK    7  A    between atoms: O_25  and  C_26
REMARK    8  A    between atoms: C_26  and  C_28
REMARK    9  A    between atoms: C_28  and  O_29
REMARK                            x       y       z     vdW  Elec       q    Type
REMARK                         _______ _______ _______ _____ _____    ______ ____
ROOT
ATOM      1 BR   UNL     1      37.903 -23.063 -16.053  0.00  0.00    -0.045 Br
ATOM      2  S   UNL     1      34.473 -23.834 -13.380  0.00  0.00    -0.077 S 
ATOM      3  C   UNL     1      35.277 -23.425 -14.836  0.00  0.00    +0.039 A 
ATOM      4  C   UNL     1      36.647 -23.450 -14.694  0.00  0.00    +0.075 A 
ATOM      5  C   UNL     1      37.042 -23.810 -13.374  0.00  0.00    +0.158 A 
ATOM      6  C   UNL     1      35.959 -24.045 -12.556  0.00  0.00    +0.139 A 
ENDROOT
BRANCH   3  10
ATOM      7  C   UNL     1      32.301 -22.817 -17.010  0.00  0.00    +0.045 C 
ATOM      8  C   UNL     1      33.080 -23.117 -15.893  0.00  0.00    +0.015 C 
ATOM      9  C   UNL     1      32.914 -22.515 -18.227  0.00  0.00    +0.014 C 
ATOM     10  C   UNL     1      34.472 -23.115 -15.992  0.00  0.00    +0.008 C 
ATOM     11  C   UNL     1      34.305 -22.514 -18.326  0.00  0.00    +0.001 C 
ATOM     12  C   UNL     1      35.084 -22.814 -17.209  0.00  0.00    +0.001 C 
BRANCH   7  13
ATOM     13  N   UNL     1      30.922 -22.818 -16.913  0.00  0.00    -0.334 N 
ATOM     14  H   UNL     1      30.416 -22.180 -17.466  0.00  0.00    +0.147 HD
BRANCH  13  15
ATOM     15  C   UNL     1      30.181 -23.710 -16.040  0.00  0.00    +0.069 C 
ATOM     16  C   UNL     1      29.724 -22.958 -14.786  0.00  0.00    +0.019 C 
ATOM     17  C   UNL     1      28.994 -24.318 -16.794  0.00  0.00    +0.019 C 
ATOM     18  C   UNL     1      28.614 -21.946 -15.073  0.00  0.00    +0.002 C 
ATOM     19  C   UNL     1      27.888 -23.302 -17.075  0.00  0.00    +0.002 C 
ATOM     20  C   UNL     1      27.440 -22.591 -15.802  0.00  0.00    +0.000 C 
ENDBRANCH  13  15
ENDBRANCH   7  13
ENDBRANCH   3  10
BRANCH   6  22
ATOM     21  O   UNL     1      35.204 -25.283 -10.648  0.00  0.00    -0.244 OA
ATOM     22  C   UNL     1      35.932 -24.426 -11.180  0.00  0.00    +0.347 C 
BRANCH  22  23
ATOM     23  O   UNL     1      36.834 -23.729 -10.414  0.00  0.00    -0.477 OA
ATOM     24  H   UNL     1      37.560 -24.174 -10.025  0.00  0.00    +0.295 HD
ENDBRANCH  22  23
ENDBRANCH   6  22
BRANCH   5  25
ATOM     25  O   UNL     1      38.310 -23.919 -12.933  0.00  0.00    -0.463 OA
BRANCH  25  26
ATOM     26  C   UNL     1      38.850 -25.238 -12.831  0.00  0.00    +0.314 C 
BRANCH  26  28
ATOM     27  O   UNL     1      40.781 -24.750 -14.223  0.00  0.00    -0.246 OA
ATOM     28  C   UNL     1      39.837 -25.473 -13.942  0.00  0.00    +0.359 C 
BRANCH  28  29
ATOM     29  O   UNL     1      39.532 -26.616 -14.604  0.00  0.00    -0.478 OA
ATOM     30  H   UNL     1      39.152 -26.576 -15.460  0.00  0.00    +0.295 HD
ENDBRANCH  28  29
ENDBRANCH  26  28
ENDBRANCH  25  26
ENDBRANCH   5  25
TORSDOF 9
ENDMDL
MODEL 3
REMARK VINA RESULT:      -9.5      4.494      9.025
REMARK  Name = 17759780
REMARK  9 active torsions:
REMARK  status: ('A' for Active; 'I' for Inactive)
REMARK    1  A    between atoms: C_3  and  C_10
REMARK    2  A    between atoms: C_5  and  O_25
REMARK    3  A    between atoms: C_6  and  C_22
REMARK    4  A    between atoms: C_7  and  N_13
REMARK    5  A    between atoms: N_13  and  C_15
REMARK    6  A    between atoms: C_22  and  O_23
REMARK    7  A    between atoms: O_25  and  C_26
REMARK    8  A    between atoms: C_26  and  C_28
REMARK    9  A    between atoms: C_28  and  O_29
REMARK                            x       y       z     vdW  Elec       q    Type
REMARK                         _______ _______ _______ _____ _____    ______ ____
ROOT
ATOM      1 BR   UNL     1      34.370 -11.006 -25.189  0.00  0.00    -0.045 Br
ATOM      2  S   UNL     1      32.114 -12.955 -21.932  0.00  0.00    -0.077 S 
ATOM      3  C   UNL     1      33.102 -12.859 -23.327  0.00  0.00    +0.039 A 
ATOM      4  C   UNL     1      33.333 -11.554 -23.707  0.00  0.00    +0.075 A 
ATOM      5  C   UNL     1      32.690 -10.623 -22.843  0.00  0.00    +0.158 A 
ATOM      6  C   UNL     1      31.991 -11.250 -21.834  0.00  0.00    +0.139 A 
ENDROOT
BRANCH   3  10
ATOM      7  C   UNL     1      34.859 -16.124 -23.776  0.00  0.00    +0.045 C 
ATOM      8  C   UNL     1      34.414 -14.932 -23.204  0.00  0.00    +0.015 C 
ATOM      9  C   UNL     1      34.451 -16.474 -25.063  0.00  0.00    +0.014 C 
ATOM     10  C   UNL     1      33.562 -14.090 -23.919  0.00  0.00    +0.008 C 
ATOM     11  C   UNL     1      33.600 -15.633 -25.779  0.00  0.00    +0.001 C 
ATOM     12  C   UNL     1      33.155 -14.440 -25.207  0.00  0.00    +0.001 C 
BRANCH   7  13
ATOM     13  N   UNL     1      35.703 -16.960 -23.068  0.00  0.00    -0.334 N 
ATOM     14  H   UNL     1      36.276 -16.562 -22.374  0.00  0.00    +0.147 HD
BRANCH  13  15
ATOM     15  C   UNL     1      35.788 -18.391 -23.294  0.00  0.00    +0.069 C 
ATOM     16  C   UNL     1      36.870 -19.000 -22.398  0.00  0.00    +0.019 C 
ATOM     17  C   UNL     1      34.423 -19.044 -23.050  0.00  0.00    +0.019 C 
ATOM     18  C   UNL     1      36.473 -19.026 -20.922  0.00  0.00    +0.002 C 
ATOM     19  C   UNL     1      34.034 -19.067 -21.572  0.00  0.00    +0.002 C 
ATOM     20  C   UNL     1      35.123 -19.704 -20.713  0.00  0.00    +0.000 C 
ENDBRANCH  13  15
ENDBRANCH   7  13
ENDBRANCH   3  10
BRANCH   6  22
ATOM     21  O   UNL     1      30.121 -11.065 -20.347  0.00  0.00    -0.244 OA
ATOM     22  C   UNL     1      31.223 -10.677 -20.776  0.00  0.00    +0.347 C 
BRANCH  22  23
ATOM     23  O   UNL     1      31.823  -9.577 -20.213  0.00  0.00    -0.477 OA
ATOM     24  H   UNL     1      31.429  -8.733 -20.299  0.00  0.00    +0.295 HD
ENDBRANCH  22  23
ENDBRANCH   6  22
BRANCH   5  25
ATOM     25  O   UNL     1      32.732  -9.282 -22.958  0.00  0.00    -0.463 OA
BRANCH  25  26
ATOM     26  C   UNL     1      31.660  -8.658 -23.667  0.00  0.00    +0.314 C 
BRANCH  26  28
ATOM     27  O   UNL     1      31.119  -6.292 -23.785  0.00  0.00    -0.246 OA
ATOM     28  C   UNL     1      31.429  -7.273 -23.127  0.00  0.00    +0.359 C 
BRANCH  28  29
ATOM     29  O   UNL     1      31.614  -7.259 -21.783  0.00  0.00    -0.478 OA
ATOM     30  H   UNL     1      32.399  -6.896 -21.422  0.00  0.00    +0.295 HD
ENDBRANCH  28  29
ENDBRANCH  26  28
ENDBRANCH  25  26
ENDBRANCH   5  25
TORSDOF 9
ENDMDL
MODEL 4
REMARK VINA RESULT:      -9.4      4.841      8.790
REMARK  Name = 17759780
REMARK  9 active torsions:
REMARK  status: ('A' for Active; 'I' for Inactive)
REMARK    1  A    between atoms: C_3  and  C_10
REMARK    2  A    between atoms: C_5  and  O_25
REMARK    3  A    between atoms: C_6  and  C_22
REMARK    4  A    between atoms: C_7  and  N_13
REMARK    5  A    between atoms: N_13  and  C_15
REMARK    6  A    between atoms: C_22  and  O_23
REMARK    7  A    between atoms: O_25  and  C_26
REMARK    8  A    between atoms: C_26  and  C_28
REMARK    9  A    between atoms: C_28  and  O_29
REMARK                            x       y       z     vdW  Elec       q    Type
REMARK                         _______ _______ _______ _____ _____    ______ ____
ROOT
ATOM      1 BR   UNL     1      31.038 -11.876 -21.777  0.00  0.00    -0.045 Br
ATOM      2  S   UNL     1      34.232 -10.311 -24.394  0.00  0.00    -0.077 S 
ATOM      3  C   UNL     1      33.208 -11.488 -23.688  0.00  0.00    +0.039 A 
ATOM      4  C   UNL     1      32.334 -10.932 -22.778  0.00  0.00    +0.075 A 
ATOM      5  C   UNL     1      32.508  -9.524 -22.660  0.00  0.00    +0.158 A 
ATOM      6  C   UNL     1      33.508  -9.055 -23.483  0.00  0.00    +0.139 A 
ENDROOT
BRANCH   3  10
ATOM      7  C   UNL     1      33.743 -15.182 -23.550  0.00  0.00    +0.045 C 
ATOM      8  C   UNL     1      33.593 -13.854 -23.150  0.00  0.00    +0.015 C 
ATOM      9  C   UNL     1      33.663 -15.516 -24.901  0.00  0.00    +0.014 C 
ATOM     10  C   UNL     1      33.363 -12.860 -24.102  0.00  0.00    +0.008 C 
ATOM     11  C   UNL     1      33.433 -14.523 -25.853  0.00  0.00    +0.001 C 
ATOM     12  C   UNL     1      33.283 -13.195 -25.454  0.00  0.00    +0.001 C 
BRANCH   7  13
ATOM     13  N   UNL     1      33.971 -16.167 -22.607  0.00  0.00    -0.334 N 
ATOM     14  H   UNL     1      33.221 -16.445 -22.033  0.00  0.00    +0.147 HD
BRANCH  13  15
ATOM     15  C   UNL     1      35.256 -16.814 -22.419  0.00  0.00    +0.069 C 
ATOM     16  C   UNL     1      35.286 -17.543 -21.072  0.00  0.00    +0.019 C 
ATOM     17  C   UNL     1      35.539 -17.771 -23.582  0.00  0.00    +0.019 C 
ATOM     18  C   UNL     1      34.399 -18.788 -21.052  0.00  0.00    +0.002 C 
ATOM     19  C   UNL     1      34.650 -19.014 -23.554  0.00  0.00    +0.002 C 
ATOM     20  C   UNL     1      34.723 -19.729 -22.208  0.00  0.00    +0.000 C 
ENDBRANCH  13  15
ENDBRANCH   7  13
ENDBRANCH   3  10
BRANCH   6  22
ATOM     21  O   UNL     1      35.162  -7.325 -23.600  0.00  0.00    -0.244 OA
ATOM     22  C   UNL     1      33.984  -7.720 -23.657  0.00  0.00    +0.347 C 
BRANCH  22  23
ATOM     23  O   UNL     1      32.977  -6.822 -23.912  0.00  0.00    -0.477 OA
ATOM     24  H   UNL     1      32.318  -6.662 -23.267  0.00  0.00    +0.295 HD
ENDBRANCH  22  23
ENDBRANCH   6  22
BRANCH   5  25
ATOM     25  O   UNL     1      31.803  -8.708 -21.854  0.00  0.00    -0.463 OA
BRANCH  25  26
ATOM     26  C   UNL     1      32.358  -8.428 -20.567  0.00  0.00    +0.314 C 
BRANCH  26  28
ATOM     27  O   UNL     1      31.985  -6.088 -21.104  0.00  0.00    -0.246 OA
ATOM     28  C   UNL     1      32.455  -6.941 -20.366  0.00  0.00    +0.359 C 
BRANCH  28  29
ATOM     29  O   UNL     1      33.150  -6.666 -19.234  0.00  0.00    -0.478 OA
ATOM     30  H   UNL     1      32.740  -6.765 -18.397  0.00  0.00    +0.295 HD
ENDBRANCH  28  29
ENDBRANCH  26  28
ENDBRANCH  25  26
ENDBRANCH   5  25
TORSDOF 9
ENDMDL
MODEL 5
REMARK VINA RESULT:      -9.2      5.088      7.723
REMARK  Name = 17759780
REMARK  9 active torsions:
REMARK  status: ('A' for Active; 'I' for Inactive)
REMARK    1  A    between atoms: C_3  and  C_10
REMARK    2  A    between atoms: C_5  and  O_25
REMARK    3  A    between atoms: C_6  and  C_22
REMARK    4  A    between atoms: C_7  and  N_13
REMARK    5  A    between atoms: N_13  and  C_15
REMARK    6  A    between atoms: C_22  and  O_23
REMARK    7  A    between atoms: O_25  and  C_26
REMARK    8  A    between atoms: C_26  and  C_28
REMARK    9  A    between atoms: C_28  and  O_29
REMARK                            x       y       z     vdW  Elec       q    Type
REMARK                         _______ _______ _______ _____ _____    ______ ____
ROOT
ATOM      1 BR   UNL     1      37.497 -20.230 -20.277  0.00  0.00    -0.045 Br
ATOM      2  S   UNL     1      33.119 -20.804 -20.200  0.00  0.00    -0.077 S 
ATOM      3  C   UNL     1      34.613 -20.142 -20.711  0.00  0.00    +0.039 A 
ATOM      4  C   UNL     1      35.679 -20.682 -20.023  0.00  0.00    +0.075 A 
ATOM      5  C   UNL     1      35.262 -21.651 -19.067  0.00  0.00    +0.158 A 
ATOM      6  C   UNL     1      33.895 -21.815 -19.057  0.00  0.00    +0.139 A 
ENDROOT
BRANCH   3  10
ATOM      7  C   UNL     1      33.960 -16.945 -22.530  0.00  0.00    +0.045 C 
ATOM      8  C   UNL     1      33.979 -17.912 -21.524  0.00  0.00    +0.015 C 
ATOM      9  C   UNL     1      34.557 -17.211 -23.762  0.00  0.00    +0.014 C 
ATOM     10  C   UNL     1      34.594 -19.144 -21.751  0.00  0.00    +0.008 C 
ATOM     11  C   UNL     1      35.172 -18.442 -23.990  0.00  0.00    +0.001 C 
ATOM     12  C   UNL     1      35.190 -19.408 -22.984  0.00  0.00    +0.001 C 
BRANCH   7  13
ATOM     13  N   UNL     1      33.351 -15.725 -22.305  0.00  0.00    -0.334 N 
ATOM     14  H   UNL     1      32.370 -15.677 -22.360  0.00  0.00    +0.147 HD
BRANCH  13  15
ATOM     15  C   UNL     1      34.082 -14.511 -21.993  0.00  0.00    +0.069 C 
ATOM     16  C   UNL     1      33.819 -13.449 -23.065  0.00  0.00    +0.019 C 
ATOM     17  C   UNL     1      33.697 -14.009 -20.598  0.00  0.00    +0.019 C 
ATOM     18  C   UNL     1      32.400 -12.883 -23.002  0.00  0.00    +0.002 C 
ATOM     19  C   UNL     1      32.278 -13.443 -20.544  0.00  0.00    +0.002 C 
ATOM     20  C   UNL     1      32.059 -12.370 -21.607  0.00  0.00    +0.000 C 
ENDBRANCH  13  15
ENDBRANCH   7  13
ENDBRANCH   3  10
BRANCH   6  22
ATOM     21  O   UNL     1      31.949 -22.465 -17.818  0.00  0.00    -0.244 OA
ATOM     22  C   UNL     1      33.094 -22.682 -18.253  0.00  0.00    +0.347 C 
BRANCH  22  23
ATOM     23  O   UNL     1      33.717 -23.872 -17.965  0.00  0.00    -0.477 OA
ATOM     24  H   UNL     1      33.638 -24.247 -17.110  0.00  0.00    +0.295 HD
ENDBRANCH  22  23
ENDBRANCH   6  22
BRANCH   5  25
ATOM     25  O   UNL     1      36.073 -22.348 -18.248  0.00  0.00    -0.463 OA
BRANCH  25  26
ATOM     26  C   UNL     1      36.507 -21.694 -17.053  0.00  0.00    +0.314 C 
BRANCH  26  28
ATOM     27  O   UNL     1      37.659 -22.664 -15.147  0.00  0.00    -0.246 OA
ATOM     28  C   UNL     1      36.767 -22.714 -15.979  0.00  0.00    +0.359 C 
BRANCH  28  29
ATOM     29  O   UNL     1      35.860 -23.720 -16.059  0.00  0.00    -0.478 OA
ATOM     30  H   UNL     1      36.007 -24.440 -16.640  0.00  0.00    +0.295 HD
ENDBRANCH  28  29
ENDBRANCH  26  28
ENDBRANCH  25  26
ENDBRANCH   5  25
TORSDOF 9
ENDMDL
MODEL 6
REMARK VINA RESULT:      -9.2      1.888      2.831
REMARK  Name = 17759780
REMARK  9 active torsions:
REMARK  status: ('A' for Active; 'I' for Inactive)
REMARK    1  A    between atoms: C_3  and  C_10
REMARK    2  A    between atoms: C_5  and  O_25
REMARK    3  A    between atoms: C_6  and  C_22
REMARK    4  A    between atoms: C_7  and  N_13
REMARK    5  A    between atoms: N_13  and  C_15
REMARK    6  A    between atoms: C_22  and  O_23
REMARK    7  A    between atoms: O_25  and  C_26
REMARK    8  A    between atoms: C_26  and  C_28
REMARK    9  A    between atoms: C_28  and  O_29
REMARK                            x       y       z     vdW  Elec       q    Type
REMARK                         _______ _______ _______ _____ _____    ______ ____
ROOT
ATOM      1 BR   UNL     1      33.234 -14.329 -25.765  0.00  0.00    -0.045 Br
ATOM      2  S   UNL     1      34.311 -14.887 -21.519  0.00  0.00    -0.077 S 
ATOM      3  C   UNL     1      33.618 -14.115 -22.881  0.00  0.00    +0.039 A 
ATOM      4  C   UNL     1      33.830 -14.827 -24.042  0.00  0.00    +0.075 A 
ATOM      5  C   UNL     1      34.570 -16.021 -23.809  0.00  0.00    +0.158 A 
ATOM      6  C   UNL     1      34.897 -16.177 -22.480  0.00  0.00    +0.139 A 
ENDROOT
BRANCH   3  10
ATOM      7  C   UNL     1      32.709 -10.498 -23.096  0.00  0.00    +0.045 C 
ATOM      8  C   UNL     1      33.381 -11.704 -23.294  0.00  0.00    +0.015 C 
ATOM      9  C   UNL     1      31.580 -10.456 -22.278  0.00  0.00    +0.014 C 
ATOM     10  C   UNL     1      32.923 -12.868 -22.675  0.00  0.00    +0.008 C 
ATOM     11  C   UNL     1      31.122 -11.619 -21.659  0.00  0.00    +0.001 C 
ATOM     12  C   UNL     1      31.794 -12.825 -21.858  0.00  0.00    +0.001 C 
BRANCH   7  13
ATOM     13  N   UNL     1      33.161  -9.345 -23.709  0.00  0.00    -0.334 N 
ATOM     14  H   UNL     1      33.262  -9.347 -24.688  0.00  0.00    +0.147 HD
BRANCH  13  15
ATOM     15  C   UNL     1      33.494  -8.131 -22.987  0.00  0.00    +0.069 C 
ATOM     16  C   UNL     1      34.725  -7.469 -23.612  0.00  0.00    +0.019 C 
ATOM     17  C   UNL     1      32.291  -7.181 -22.972  0.00  0.00    +0.019 C 
ATOM     18  C   UNL     1      34.436  -6.848 -24.978  0.00  0.00    +0.002 C 
ATOM     19  C   UNL     1      32.010  -6.563 -24.341  0.00  0.00    +0.002 C 
ATOM     20  C   UNL     1      33.250  -5.890 -24.922  0.00  0.00    +0.000 C 
ENDBRANCH  13  15
ENDBRANCH   7  13
ENDBRANCH   3  10
BRANCH   6  22
ATOM     21  O   UNL     1      35.431 -17.704 -20.712  0.00  0.00    -0.244 OA
ATOM     22  C   UNL     1      35.625 -17.229 -21.845  0.00  0.00    +0.347 C 
BRANCH  22  23
ATOM     23  O   UNL     1      36.638 -17.727 -22.628  0.00  0.00    -0.477 OA
ATOM     24  H   UNL     1      36.948 -18.600 -22.493  0.00  0.00    +0.295 HD
ENDBRANCH  22  23
ENDBRANCH   6  22
BRANCH   5  25
ATOM     25  O   UNL     1      34.931 -16.920 -24.745  0.00  0.00    -0.463 OA
BRANCH  25  26
ATOM     26  C   UNL     1      33.977 -17.933 -25.073  0.00  0.00    +0.314 C 
BRANCH  26  28
ATOM     27  O   UNL     1      34.972 -20.139 -25.290  0.00  0.00    -0.246 OA
ATOM     28  C   UNL     1      34.469 -19.271 -24.593  0.00  0.00    +0.359 C 
BRANCH  28  29
ATOM     29  O   UNL     1      34.277 -19.388 -23.255  0.00  0.00    -0.478 OA
ATOM     30  H   UNL     1      33.928 -18.668 -22.767  0.00  0.00    +0.295 HD
ENDBRANCH  28  29
ENDBRANCH  26  28
ENDBRANCH  25  26
ENDBRANCH   5  25
TORSDOF 9
ENDMDL
MODEL 7
REMARK VINA RESULT:      -9.0      4.209      8.671
REMARK  Name = 17759780
REMARK  9 active torsions:
REMARK  status: ('A' for Active; 'I' for Inactive)
REMARK    1  A    between atoms: C_3  and  C_10
REMARK    2  A    between atoms: C_5  and  O_25
REMARK    3  A    between atoms: C_6  and  C_22
REMARK    4  A    between atoms: C_7  and  N_13
REMARK    5  A    between atoms: N_13  and  C_15
REMARK    6  A    between atoms: C_22  and  O_23
REMARK    7  A    between atoms: O_25  and  C_26
REMARK    8  A    between atoms: C_26  and  C_28
REMARK    9  A    between atoms: C_28  and  O_29
REMARK                            x       y       z     vdW  Elec       q    Type
REMARK                         _______ _______ _______ _____ _____    ______ ____
ROOT
ATOM      1 BR   UNL     1      32.098 -15.349 -20.851  0.00  0.00    -0.045 Br
ATOM      2  S   UNL     1      33.586 -12.830 -24.159  0.00  0.00    -0.077 S 
ATOM      3  C   UNL     1      33.338 -14.266 -23.258  0.00  0.00    +0.039 A 
ATOM      4  C   UNL     1      32.597 -14.039 -22.119  0.00  0.00    +0.075 A 
ATOM      5  C   UNL     1      32.228 -12.670 -21.984  0.00  0.00    +0.158 A 
ATOM      6  C   UNL     1      32.701 -11.901 -23.025  0.00  0.00    +0.139 A 
ENDROOT
BRANCH   3  10
ATOM      7  C   UNL     1      35.125 -17.543 -23.395  0.00  0.00    +0.045 C 
ATOM      8  C   UNL     1      34.579 -16.356 -22.905  0.00  0.00    +0.015 C 
ATOM      9  C   UNL     1      34.995 -17.864 -24.746  0.00  0.00    +0.014 C 
ATOM     10  C   UNL     1      33.903 -15.491 -23.766  0.00  0.00    +0.008 C 
ATOM     11  C   UNL     1      34.320 -17.000 -25.607  0.00  0.00    +0.001 C 
ATOM     12  C   UNL     1      33.773 -15.813 -25.117  0.00  0.00    +0.001 C 
BRANCH   7  13
ATOM     13  N   UNL     1      35.795 -18.401 -22.543  0.00  0.00    -0.334 N 
ATOM     14  H   UNL     1      36.382 -19.085 -22.938  0.00  0.00    +0.147 HD
BRANCH  13  15
ATOM     15  C   UNL     1      35.679 -18.346 -21.097  0.00  0.00    +0.069 C 
ATOM     16  C   UNL     1      34.215 -18.517 -20.681  0.00  0.00    +0.019 C 
ATOM     17  C   UNL     1      36.574 -19.411 -20.457  0.00  0.00    +0.019 C 
ATOM     18  C   UNL     1      33.700 -19.941 -20.897  0.00  0.00    +0.002 C 
ATOM     19  C   UNL     1      36.052 -20.831 -20.675  0.00  0.00    +0.002 C 
ATOM     20  C   UNL     1      34.601 -20.973 -20.226  0.00  0.00    +0.000 C 
ENDBRANCH  13  15
ENDBRANCH   7  13
ENDBRANCH   3  10
BRANCH   6  22
ATOM     21  O   UNL     1      33.341  -9.740 -23.839  0.00  0.00    -0.244 OA
ATOM     22  C   UNL     1      32.548 -10.501 -23.256  0.00  0.00    +0.347 C 
BRANCH  22  23
ATOM     23  O   UNL     1      31.371 -10.001 -22.753  0.00  0.00    -0.477 OA
ATOM     24  H   UNL     1      31.330  -9.704 -21.866  0.00  0.00    +0.295 HD
ENDBRANCH  22  23
ENDBRANCH   6  22
BRANCH   5  25
ATOM     25  O   UNL     1      31.504 -12.145 -20.977  0.00  0.00    -0.463 OA
BRANCH  25  26
ATOM     26  C   UNL     1      32.213 -11.771 -19.795  0.00  0.00    +0.314 C 
BRANCH  26  28
ATOM     27  O   UNL     1      30.474 -10.227 -19.088  0.00  0.00    -0.246 OA
ATOM     28  C   UNL     1      31.658 -10.482 -19.254  0.00  0.00    +0.359 C 
BRANCH  28  29
ATOM     29  O   UNL     1      32.666  -9.621 -18.968  0.00  0.00    -0.478 OA
ATOM     30  H   UNL     1      33.554  -9.866 -19.140  0.00  0.00    +0.295 HD
ENDBRANCH  28  29
ENDBRANCH  26  28
ENDBRANCH  25  26
ENDBRANCH   5  25
TORSDOF 9
ENDMDL
MODEL 8
REMARK VINA RESULT:      -9.0      1.991      3.207
REMARK  Name = 17759780
REMARK  9 active torsions:
REMARK  status: ('A' for Active; 'I' for Inactive)
REMARK    1  A    between atoms: C_3  and  C_10
REMARK    2  A    between atoms: C_5  and  O_25
REMARK    3  A    between atoms: C_6  and  C_22
REMARK    4  A    between atoms: C_7  and  N_13
REMARK    5  A    between atoms: N_13  and  C_15
REMARK    6  A    between atoms: C_22  and  O_23
REMARK    7  A    between atoms: O_25  and  C_26
REMARK    8  A    between atoms: C_26  and  C_28
REMARK    9  A    between atoms: C_28  and  O_29
REMARK                            x       y       z     vdW  Elec       q    Type
REMARK                         _______ _______ _______ _____ _____    ______ ____
ROOT
ATOM      1 BR   UNL     1      32.033 -11.916 -21.049  0.00  0.00    -0.045 Br
ATOM      2  S   UNL     1      33.896 -12.567 -25.000  0.00  0.00    -0.077 S 
ATOM      3  C   UNL     1      33.376 -11.683 -23.628  0.00  0.00    +0.039 A 
ATOM      4  C   UNL     1      32.753 -12.489 -22.700  0.00  0.00    +0.075 A 
ATOM      5  C   UNL     1      32.703 -13.849 -23.120  0.00  0.00    +0.158 A 
ATOM      6  C   UNL     1      33.288 -14.031 -24.354  0.00  0.00    +0.139 A 
ENDROOT
BRANCH   3  10
ATOM      7  C   UNL     1      33.002  -8.038 -22.902  0.00  0.00    +0.045 C 
ATOM      8  C   UNL     1      32.753  -9.410 -22.934  0.00  0.00    +0.015 C 
ATOM      9  C   UNL     1      34.134  -7.521 -23.533  0.00  0.00    +0.014 C 
ATOM     10  C   UNL     1      33.634 -10.264 -23.597  0.00  0.00    +0.008 C 
ATOM     11  C   UNL     1      35.015  -8.374 -24.196  0.00  0.00    +0.001 C 
ATOM     12  C   UNL     1      34.765  -9.747 -24.228  0.00  0.00    +0.001 C 
BRANCH   7  13
ATOM     13  N   UNL     1      32.130  -7.190 -22.245  0.00  0.00    -0.334 N 
ATOM     14  H   UNL     1      32.398  -6.836 -21.367  0.00  0.00    +0.147 HD
BRANCH  13  15
ATOM     15  C   UNL     1      30.840  -6.795 -22.782  0.00  0.00    +0.069 C 
ATOM     16  C   UNL     1      30.396  -5.469 -22.158  0.00  0.00    +0.019 C 
ATOM     17  C   UNL     1      30.912  -6.703 -24.309  0.00  0.00    +0.019 C 
ATOM     18  C   UNL     1      31.221  -4.278 -22.649  0.00  0.00    +0.002 C 
ATOM     19  C   UNL     1      31.736  -5.510 -24.791  0.00  0.00    +0.002 C 
ATOM     20  C   UNL     1      31.251  -4.203 -24.172  0.00  0.00    +0.000 C 
ENDBRANCH  13  15
ENDBRANCH   7  13
ENDBRANCH   3  10
BRANCH   6  22
ATOM     21  O   UNL     1      33.125 -15.417 -26.303  0.00  0.00    -0.244 OA
ATOM     22  C   UNL     1      33.440 -15.231 -25.114  0.00  0.00    +0.347 C 
BRANCH  22  23
ATOM     23  O   UNL     1      34.001 -16.255 -24.391  0.00  0.00    -0.477 OA
ATOM     24  H   UNL     1      34.244 -16.119 -23.497  0.00  0.00    +0.295 HD
ENDBRANCH  22  23
ENDBRANCH   6  22
BRANCH   5  25
ATOM     25  O   UNL     1      32.159 -14.868 -22.428  0.00  0.00    -0.463 OA
BRANCH  25  26
ATOM     26  C   UNL     1      32.606 -15.050 -21.083  0.00  0.00    +0.314 C 
BRANCH  26  28
ATOM     27  O   UNL     1      34.240 -16.785 -21.559  0.00  0.00    -0.246 OA
ATOM     28  C   UNL     1      33.965 -15.695 -21.081  0.00  0.00    +0.359 C 
BRANCH  28  29
ATOM     29  O   UNL     1      34.865 -14.888 -20.465  0.00  0.00    -0.478 OA
ATOM     30  H   UNL     1      34.575 -14.252 -19.841  0.00  0.00    +0.295 HD
ENDBRANCH  28  29
ENDBRANCH  26  28
ENDBRANCH  25  26
ENDBRANCH   5  25
TORSDOF 9
ENDMDL
MODEL 9
REMARK VINA RESULT:      -9.0      1.717      2.927
REMARK  Name = 17759780
REMARK  9 active torsions:
REMARK  status: ('A' for Active; 'I' for Inactive)
REMARK    1  A    between atoms: C_3  and  C_10
REMARK    2  A    between atoms: C_5  and  O_25
REMARK    3  A    between atoms: C_6  and  C_22
REMARK    4  A    between atoms: C_7  and  N_13
REMARK    5  A    between atoms: N_13  and  C_15
REMARK    6  A    between atoms: C_22  and  O_23
REMARK    7  A    between atoms: O_25  and  C_26
REMARK    8  A    between atoms: C_26  and  C_28
REMARK    9  A    between atoms: C_28  and  O_29
REMARK                            x       y       z     vdW  Elec       q    Type
REMARK                         _______ _______ _______ _____ _____    ______ ____
ROOT
ATOM      1 BR   UNL     1      33.876 -12.859 -24.352  0.00  0.00    -0.045 Br
ATOM      2  S   UNL     1      33.084 -15.147 -20.659  0.00  0.00    -0.077 S 
ATOM      3  C   UNL     1      33.034 -13.808 -21.725  0.00  0.00    +0.039 A 
ATOM      4  C   UNL     1      33.694 -14.065 -22.907  0.00  0.00    +0.075 A 
ATOM      5  C   UNL     1      34.247 -15.377 -22.937  0.00  0.00    +0.158 A 
ATOM      6  C   UNL     1      33.990 -16.074 -21.777  0.00  0.00    +0.139 A 
ENDROOT
BRANCH   3  10
ATOM      7  C   UNL     1      31.322 -10.489 -21.801  0.00  0.00    +0.045 C 
ATOM      8  C   UNL     1      31.993 -11.638 -22.220  0.00  0.00    +0.015 C 
ATOM      9  C   UNL     1      30.999 -10.322 -20.454  0.00  0.00    +0.014 C 
ATOM     10  C   UNL     1      32.341 -12.620 -21.292  0.00  0.00    +0.008 C 
ATOM     11  C   UNL     1      31.347 -11.303 -19.526  0.00  0.00    +0.001 C 
ATOM     12  C   UNL     1      32.018 -12.452 -19.945  0.00  0.00    +0.001 C 
BRANCH   7  13
ATOM     13  N   UNL     1      30.976  -9.516 -22.720  0.00  0.00    -0.334 N 
ATOM     14  H   UNL     1      30.020  -9.344 -22.879  0.00  0.00    +0.147 HD
BRANCH  13  15
ATOM     15  C   UNL     1      31.948  -8.733 -23.462  0.00  0.00    +0.069 C 
ATOM     16  C   UNL     1      31.263  -7.529 -24.115  0.00  0.00    +0.019 C 
ATOM     17  C   UNL     1      33.089  -8.298 -22.537  0.00  0.00    +0.019 C 
ATOM     18  C   UNL     1      30.841  -6.465 -23.102  0.00  0.00    +0.002 C 
ATOM     19  C   UNL     1      32.660  -7.233 -21.529  0.00  0.00    +0.002 C 
ATOM     20  C   UNL     1      32.006  -6.038 -22.215  0.00  0.00    +0.000 C 
ENDBRANCH  13  15
ENDBRANCH   7  13
ENDBRANCH   3  10
BRANCH   6  22
ATOM     21  O   UNL     1      33.627 -18.314 -21.007  0.00  0.00    -0.244 OA
ATOM     22  C   UNL     1      34.368 -17.403 -21.419  0.00  0.00    +0.347 C 
BRANCH  22  23
ATOM     23  O   UNL     1      35.713 -17.637 -21.571  0.00  0.00    -0.477 OA
ATOM     24  H   UNL     1      36.325 -17.250 -20.978  0.00  0.00    +0.295 HD
ENDBRANCH  22  23
ENDBRANCH   6  22
BRANCH   5  25
ATOM     25  O   UNL     1      34.945 -15.914 -23.956  0.00  0.00    -0.463 OA
BRANCH  25  26
ATOM     26  C   UNL     1      34.193 -16.512 -25.014  0.00  0.00    +0.314 C 
BRANCH  26  28
ATOM     27  O   UNL     1      33.697 -18.827 -25.560  0.00  0.00    -0.246 OA
ATOM     28  C   UNL     1      34.415 -18.000 -25.020  0.00  0.00    +0.359 C 
BRANCH  28  29
ATOM     29  O   UNL     1      35.543 -18.307 -24.331  0.00  0.00    -0.478 OA
ATOM     30  H   UNL     1      36.371 -17.971 -24.612  0.00  0.00    +0.295 HD
ENDBRANCH  28  29
ENDBRANCH  26  28
ENDBRANCH  25  26
ENDBRANCH   5  25
TORSDOF 9
ENDMDL
