MODEL 1
REMARK VINA RESULT:      -5.7      0.000      0.000
REMARK  Name = 9859093
REMARK  11 active torsions:
REMARK  status: ('A' for Active; 'I' for Inactive)
REMARK    1  A    between atoms: O_1  and  C_2
REMARK    2  A    between atoms: O_1  and  C_10
REMARK    3  A    between atoms: C_2  and  C_3
REMARK    4  A    between atoms: C_3  and  C_4
REMARK    5  A    between atoms: C_3  and  C_6
REMARK    6  A    between atoms: C_6  and  C_7
REMARK    7  A    between atoms: C_7  and  C_8
REMARK    8  A    between atoms: C_10  and  C_11
REMARK    9  A    between atoms: C_11  and  O_12
REMARK   10  A    between atoms: C_11  and  C_14
REMARK   11  A    between atoms: C_14  and  O_15
REMARK                            x       y       z     vdW  Elec       q    Type
REMARK                         _______ _______ _______ _____ _____    ______ ____
ROOT
ATOM      1  O   UNL     1      34.918 -16.122 -24.245  0.00  0.00    -0.351 OA
ENDROOT
BRANCH   1   2
ATOM      2  C   UNL     1      34.938 -17.345 -23.522  0.00  0.00    +0.142 C 
BRANCH   2   3
ATOM      3  C   UNL     1      35.235 -17.082 -22.037  0.00  0.00    +0.030 C 
BRANCH   3   4
ATOM      4  C   UNL     1      34.027 -16.470 -21.292  0.00  0.00    +0.002 C 
ATOM      5  C   UNL     1      34.326 -15.199 -20.510  0.00  0.00    +0.000 C 
ENDBRANCH   3   4
BRANCH   3   6
ATOM      6  C   UNL     1      35.783 -18.377 -21.402  0.00  0.00    +0.002 C 
BRANCH   6   7
ATOM      7  C   UNL     1      34.956 -19.622 -21.739  0.00  0.00    +0.000 C 
BRANCH   7   8
ATOM      8  C   UNL     1      34.264 -20.234 -20.517  0.00  0.00    +0.000 C 
ATOM      9  C   UNL     1      32.759 -20.015 -20.501  0.00  0.00    +0.000 C 
ENDBRANCH   7   8
ENDBRANCH   6   7
ENDBRANCH   3   6
ENDBRANCH   2   3
ENDBRANCH   1   2
BRANCH   1  10
ATOM     10  C   UNL     1      33.858 -16.093 -25.192  0.00  0.00    +0.174 C 
BRANCH  10  11
ATOM     11  C   UNL     1      33.423 -14.652 -25.436  0.00  0.00    +0.169 C 
BRANCH  11  12
ATOM     12  O   UNL     1      32.273 -14.660 -26.285  0.00  0.00    -0.379 OA
ATOM     13  H   UNL     1      32.011 -15.575 -26.467  0.00  0.00    +0.211 HD
ENDBRANCH  11  12
BRANCH  11  14
ATOM     14  C   UNL     1      33.040 -13.958 -24.135  0.00  0.00    +0.169 C 
BRANCH  14  15
ATOM     15  O   UNL     1      34.198 -13.342 -23.583  0.00  0.00    -0.379 OA
ATOM     16  H   UNL     1      33.987 -12.982 -22.706  0.00  0.00    +0.211 HD
ENDBRANCH  14  15
ENDBRANCH  11  14
ENDBRANCH  10  11
ENDBRANCH   1  10
TORSDOF 11
ENDMDL
MODEL 2
REMARK VINA RESULT:      -5.7      7.968     11.279
REMARK  Name = 9859093
REMARK  11 active torsions:
REMARK  status: ('A' for Active; 'I' for Inactive)
REMARK    1  A    between atoms: O_1  and  C_2
REMARK    2  A    between atoms: O_1  and  C_10
REMARK    3  A    between atoms: C_2  and  C_3
REMARK    4  A    between atoms: C_3  and  C_4
REMARK    5  A    between atoms: C_3  and  C_6
REMARK    6  A    between atoms: C_6  and  C_7
REMARK    7  A    between atoms: C_7  and  C_8
REMARK    8  A    between atoms: C_10  and  C_11
REMARK    9  A    between atoms: C_11  and  O_12
REMARK   10  A    between atoms: C_11  and  C_14
REMARK   11  A    between atoms: C_14  and  O_15
REMARK                            x       y       z     vdW  Elec       q    Type
REMARK                         _______ _______ _______ _____ _____    ______ ____
ROOT
ATOM      1  O   UNL     1      36.224 -24.323 -15.849  0.00  0.00    -0.351 OA
ENDROOT
BRANCH   1   2
ATOM      2  C   UNL     1      35.380 -23.183 -15.919  0.00  0.00    +0.142 C 
BRANCH   2   3
ATOM      3  C   UNL     1      33.993 -23.579 -16.451  0.00  0.00    +0.030 C 
BRANCH   3   4
ATOM      4  C   UNL     1      32.865 -23.293 -15.433  0.00  0.00    +0.002 C 
ATOM      5  C   UNL     1      31.475 -23.140 -16.034  0.00  0.00    +0.000 C 
ENDBRANCH   3   4
BRANCH   3   6
ATOM      6  C   UNL     1      33.784 -22.923 -17.831  0.00  0.00    +0.002 C 
BRANCH   6   7
ATOM      7  C   UNL     1      35.031 -22.211 -18.367  0.00  0.00    +0.000 C 
BRANCH   7   8
ATOM      8  C   UNL     1      34.757 -21.380 -19.624  0.00  0.00    +0.000 C 
ATOM      9  C   UNL     1      33.302 -20.958 -19.766  0.00  0.00    +0.000 C 
ENDBRANCH   7   8
ENDBRANCH   6   7
ENDBRANCH   3   6
ENDBRANCH   2   3
ENDBRANCH   1   2
BRANCH   1  10
ATOM     10  C   UNL     1      35.815 -25.214 -14.820  0.00  0.00    +0.174 C 
BRANCH  10  11
ATOM     11  C   UNL     1      36.704 -26.452 -14.823  0.00  0.00    +0.169 C 
BRANCH  11  12
ATOM     12  O   UNL     1      36.751 -26.978 -16.152  0.00  0.00    -0.379 OA
ATOM     13  H   UNL     1      36.885 -26.253 -16.782  0.00  0.00    +0.211 HD
ENDBRANCH  11  12
BRANCH  11  14
ATOM     14  C   UNL     1      38.129 -26.116 -14.402  0.00  0.00    +0.169 C 
BRANCH  14  15
ATOM     15  O   UNL     1      38.888 -25.785 -15.559  0.00  0.00    -0.379 OA
ATOM     16  H   UNL     1      39.831 -25.923 -15.378  0.00  0.00    +0.211 HD
ENDBRANCH  14  15
ENDBRANCH  11  14
ENDBRANCH  10  11
ENDBRANCH   1  10
TORSDOF 11
ENDMDL
MODEL 3
REMARK VINA RESULT:      -5.7      1.379      2.470
REMARK  Name = 9859093
REMARK  11 active torsions:
REMARK  status: ('A' for Active; 'I' for Inactive)
REMARK    1  A    between atoms: O_1  and  C_2
REMARK    2  A    between atoms: O_1  and  C_10
REMARK    3  A    between atoms: C_2  and  C_3
REMARK    4  A    between atoms: C_3  and  C_4
REMARK    5  A    between atoms: C_3  and  C_6
REMARK    6  A    between atoms: C_6  and  C_7
REMARK    7  A    between atoms: C_7  and  C_8
REMARK    8  A    between atoms: C_10  and  C_11
REMARK    9  A    between atoms: C_11  and  O_12
REMARK   10  A    between atoms: C_11  and  C_14
REMARK   11  A    between atoms: C_14  and  O_15
REMARK                            x       y       z     vdW  Elec       q    Type
REMARK                         _______ _______ _______ _____ _____    ______ ____
ROOT
ATOM      1  O   UNL     1      33.765 -15.845 -23.308  0.00  0.00    -0.351 OA
ENDROOT
BRANCH   1   2
ATOM      2  C   UNL     1      34.733 -16.394 -22.425  0.00  0.00    +0.142 C 
BRANCH   2   3
ATOM      3  C   UNL     1      34.664 -17.930 -22.448  0.00  0.00    +0.030 C 
BRANCH   3   4
ATOM      4  C   UNL     1      35.409 -18.538 -23.659  0.00  0.00    +0.002 C 
ATOM      5  C   UNL     1      34.513 -19.124 -24.741  0.00  0.00    +0.000 C 
ENDBRANCH   3   4
BRANCH   3   6
ATOM      6  C   UNL     1      35.131 -18.469 -21.079  0.00  0.00    +0.002 C 
BRANCH   6   7
ATOM      7  C   UNL     1      34.878 -19.968 -20.892  0.00  0.00    +0.000 C 
BRANCH   7   8
ATOM      8  C   UNL     1      33.465 -20.283 -20.393  0.00  0.00    +0.000 C 
ATOM      9  C   UNL     1      33.407 -21.477 -19.452  0.00  0.00    +0.000 C 
ENDBRANCH   7   8
ENDBRANCH   6   7
ENDBRANCH   3   6
ENDBRANCH   2   3
ENDBRANCH   1   2
BRANCH   1  10
ATOM     10  C   UNL     1      34.224 -14.636 -23.899  0.00  0.00    +0.174 C 
BRANCH  10  11
ATOM     11  C   UNL     1      33.155 -14.078 -24.831  0.00  0.00    +0.169 C 
BRANCH  11  12
ATOM     12  O   UNL     1      33.501 -12.733 -25.170  0.00  0.00    -0.379 OA
ATOM     13  H   UNL     1      32.758 -12.314 -25.631  0.00  0.00    +0.211 HD
ENDBRANCH  11  12
BRANCH  11  14
ATOM     14  C   UNL     1      33.069 -14.880 -26.123  0.00  0.00    +0.169 C 
BRANCH  14  15
ATOM     15  O   UNL     1      34.032 -15.927 -26.082  0.00  0.00    -0.379 OA
ATOM     16  H   UNL     1      34.039 -16.326 -25.198  0.00  0.00    +0.211 HD
ENDBRANCH  14  15
ENDBRANCH  11  14
ENDBRANCH  10  11
ENDBRANCH   1  10
TORSDOF 11
ENDMDL
MODEL 4
REMARK VINA RESULT:      -5.6      3.668      6.379
REMARK  Name = 9859093
REMARK  11 active torsions:
REMARK  status: ('A' for Active; 'I' for Inactive)
REMARK    1  A    between atoms: O_1  and  C_2
REMARK    2  A    between atoms: O_1  and  C_10
REMARK    3  A    between atoms: C_2  and  C_3
REMARK    4  A    between atoms: C_3  and  C_4
REMARK    5  A    between atoms: C_3  and  C_6
REMARK    6  A    between atoms: C_6  and  C_7
REMARK    7  A    between atoms: C_7  and  C_8
REMARK    8  A    between atoms: C_10  and  C_11
REMARK    9  A    between atoms: C_11  and  O_12
REMARK   10  A    between atoms: C_11  and  C_14
REMARK   11  A    between atoms: C_14  and  O_15
REMARK                            x       y       z     vdW  Elec       q    Type
REMARK                         _______ _______ _______ _____ _____    ______ ____
ROOT
ATOM      1  O   UNL     1      33.693 -20.561 -20.728  0.00  0.00    -0.351 OA
ENDROOT
BRANCH   1   2
ATOM      2  C   UNL     1      33.239 -19.215 -20.761  0.00  0.00    +0.142 C 
BRANCH   2   3
ATOM      3  C   UNL     1      34.106 -18.383 -21.720  0.00  0.00    +0.030 C 
BRANCH   3   4
ATOM      4  C   UNL     1      35.095 -17.459 -20.973  0.00  0.00    +0.002 C 
ATOM      5  C   UNL     1      34.716 -15.985 -20.959  0.00  0.00    +0.000 C 
ENDBRANCH   3   4
BRANCH   3   6
ATOM      6  C   UNL     1      34.771 -19.333 -22.739  0.00  0.00    +0.002 C 
BRANCH   6   7
ATOM      7  C   UNL     1      35.438 -18.606 -23.911  0.00  0.00    +0.000 C 
BRANCH   7   8
ATOM      8  C   UNL     1      34.443 -18.153 -24.984  0.00  0.00    +0.000 C 
ATOM      9  C   UNL     1      34.405 -16.644 -25.176  0.00  0.00    +0.000 C 
ENDBRANCH   7   8
ENDBRANCH   6   7
ENDBRANCH   3   6
ENDBRANCH   2   3
ENDBRANCH   1   2
BRANCH   1  10
ATOM     10  C   UNL     1      33.341 -21.201 -19.509  0.00  0.00    +0.174 C 
BRANCH  10  11
ATOM     11  C   UNL     1      34.455 -22.148 -19.081  0.00  0.00    +0.169 C 
BRANCH  11  12
ATOM     12  O   UNL     1      34.084 -23.482 -19.438  0.00  0.00    -0.379 OA
ATOM     13  H   UNL     1      33.239 -23.705 -19.019  0.00  0.00    +0.211 HD
ENDBRANCH  11  12
BRANCH  11  14
ATOM     14  C   UNL     1      35.765 -21.822 -19.785  0.00  0.00    +0.169 C 
BRANCH  14  15
ATOM     15  O   UNL     1      36.204 -20.532 -19.371  0.00  0.00    -0.379 OA
ATOM     16  H   UNL     1      36.822 -20.624 -18.629  0.00  0.00    +0.211 HD
ENDBRANCH  14  15
ENDBRANCH  11  14
ENDBRANCH  10  11
ENDBRANCH   1  10
TORSDOF 11
ENDMDL
MODEL 5
REMARK VINA RESULT:      -5.6      1.666      2.783
REMARK  Name = 9859093
REMARK  11 active torsions:
REMARK  status: ('A' for Active; 'I' for Inactive)
REMARK    1  A    between atoms: O_1  and  C_2
REMARK    2  A    between atoms: O_1  and  C_10
REMARK    3  A    between atoms: C_2  and  C_3
REMARK    4  A    between atoms: C_3  and  C_4
REMARK    5  A    between atoms: C_3  and  C_6
REMARK    6  A    between atoms: C_6  and  C_7
REMARK    7  A    between atoms: C_7  and  C_8
REMARK    8  A    between atoms: C_10  and  C_11
REMARK    9  A    between atoms: C_11  and  O_12
REMARK   10  A    between atoms: C_11  and  C_14
REMARK   11  A    between atoms: C_14  and  O_15
REMARK                            x       y       z     vdW  Elec       q    Type
REMARK                         _______ _______ _______ _____ _____    ______ ____
ROOT
ATOM      1  O   UNL     1      33.846 -16.121 -21.720  0.00  0.00    -0.351 OA
ENDROOT
BRANCH   1   2
ATOM      2  C   UNL     1      34.832 -17.089 -21.390  0.00  0.00    +0.142 C 
BRANCH   2   3
ATOM      3  C   UNL     1      34.473 -18.448 -22.013  0.00  0.00    +0.030 C 
BRANCH   3   4
ATOM      4  C   UNL     1      35.309 -18.759 -23.276  0.00  0.00    +0.002 C 
ATOM      5  C   UNL     1      34.516 -18.829 -24.574  0.00  0.00    +0.000 C 
ENDBRANCH   3   4
BRANCH   3   6
ATOM      6  C   UNL     1      34.550 -19.533 -20.918  0.00  0.00    +0.002 C 
BRANCH   6   7
ATOM      7  C   UNL     1      33.206 -20.208 -20.628  0.00  0.00    +0.000 C 
BRANCH   7   8
ATOM      8  C   UNL     1      33.284 -21.251 -19.509  0.00  0.00    +0.000 C 
ATOM      9  C   UNL     1      34.668 -21.861 -19.346  0.00  0.00    +0.000 C 
ENDBRANCH   7   8
ENDBRANCH   6   7
ENDBRANCH   3   6
ENDBRANCH   2   3
ENDBRANCH   1   2
BRANCH   1  10
ATOM     10  C   UNL     1      34.420 -14.834 -21.906  0.00  0.00    +0.174 C 
BRANCH  10  11
ATOM     11  C   UNL     1      33.984 -14.262 -23.250  0.00  0.00    +0.169 C 
BRANCH  11  12
ATOM     12  O   UNL     1      33.606 -15.343 -24.106  0.00  0.00    -0.379 OA
ATOM     13  H   UNL     1      33.240 -16.065 -23.572  0.00  0.00    +0.211 HD
ENDBRANCH  11  12
BRANCH  11  14
ATOM     14  C   UNL     1      32.781 -13.340 -23.099  0.00  0.00    +0.169 C 
BRANCH  14  15
ATOM     15  O   UNL     1      31.894 -13.893 -22.134  0.00  0.00    -0.379 OA
ATOM     16  H   UNL     1      31.341 -13.188 -21.760  0.00  0.00    +0.211 HD
ENDBRANCH  14  15
ENDBRANCH  11  14
ENDBRANCH  10  11
ENDBRANCH   1  10
TORSDOF 11
ENDMDL
MODEL 6
REMARK VINA RESULT:      -5.6      1.659      3.069
REMARK  Name = 9859093
REMARK  11 active torsions:
REMARK  status: ('A' for Active; 'I' for Inactive)
REMARK    1  A    between atoms: O_1  and  C_2
REMARK    2  A    between atoms: O_1  and  C_10
REMARK    3  A    between atoms: C_2  and  C_3
REMARK    4  A    between atoms: C_3  and  C_4
REMARK    5  A    between atoms: C_3  and  C_6
REMARK    6  A    between atoms: C_6  and  C_7
REMARK    7  A    between atoms: C_7  and  C_8
REMARK    8  A    between atoms: C_10  and  C_11
REMARK    9  A    between atoms: C_11  and  O_12
REMARK   10  A    between atoms: C_11  and  C_14
REMARK   11  A    between atoms: C_14  and  O_15
REMARK                            x       y       z     vdW  Elec       q    Type
REMARK                         _______ _______ _______ _____ _____    ______ ____
ROOT
ATOM      1  O   UNL     1      34.601 -15.984 -21.655  0.00  0.00    -0.351 OA
ENDROOT
BRANCH   1   2
ATOM      2  C   UNL     1      34.964 -17.232 -21.082  0.00  0.00    +0.142 C 
BRANCH   2   3
ATOM      3  C   UNL     1      34.539 -18.385 -22.006  0.00  0.00    +0.030 C 
BRANCH   3   4
ATOM      4  C   UNL     1      35.348 -18.416 -23.323  0.00  0.00    +0.002 C 
ATOM      5  C   UNL     1      34.572 -18.886 -24.546  0.00  0.00    +0.000 C 
ENDBRANCH   3   4
BRANCH   3   6
ATOM      6  C   UNL     1      34.579 -19.704 -21.205  0.00  0.00    +0.002 C 
BRANCH   6   7
ATOM      7  C   UNL     1      33.226 -20.097 -20.603  0.00  0.00    +0.000 C 
BRANCH   7   8
ATOM      8  C   UNL     1      33.328 -21.233 -19.581  0.00  0.00    +0.000 C 
ATOM      9  C   UNL     1      34.750 -21.728 -19.367  0.00  0.00    +0.000 C 
ENDBRANCH   7   8
ENDBRANCH   6   7
ENDBRANCH   3   6
ENDBRANCH   2   3
ENDBRANCH   1   2
BRANCH   1  10
ATOM     10  C   UNL     1      33.364 -15.512 -21.139  0.00  0.00    +0.174 C 
BRANCH  10  11
ATOM     11  C   UNL     1      32.682 -14.615 -22.167  0.00  0.00    +0.169 C 
BRANCH  11  12
ATOM     12  O   UNL     1      32.340 -13.378 -21.539  0.00  0.00    -0.379 OA
ATOM     13  H   UNL     1      32.937 -12.680 -21.851  0.00  0.00    +0.211 HD
ENDBRANCH  11  12
BRANCH  11  14
ATOM     14  C   UNL     1      33.607 -14.308 -23.337  0.00  0.00    +0.169 C 
BRANCH  14  15
ATOM     15  O   UNL     1      33.566 -15.393 -24.256  0.00  0.00    -0.379 OA
ATOM     16  H   UNL     1      33.874 -15.093 -25.127  0.00  0.00    +0.211 HD
ENDBRANCH  14  15
ENDBRANCH  11  14
ENDBRANCH  10  11
ENDBRANCH   1  10
TORSDOF 11
ENDMDL
MODEL 7
REMARK VINA RESULT:      -5.6      5.382      8.295
REMARK  Name = 9859093
REMARK  11 active torsions:
REMARK  status: ('A' for Active; 'I' for Inactive)
REMARK    1  A    between atoms: O_1  and  C_2
REMARK    2  A    between atoms: O_1  and  C_10
REMARK    3  A    between atoms: C_2  and  C_3
REMARK    4  A    between atoms: C_3  and  C_4
REMARK    5  A    between atoms: C_3  and  C_6
REMARK    6  A    between atoms: C_6  and  C_7
REMARK    7  A    between atoms: C_7  and  C_8
REMARK    8  A    between atoms: C_10  and  C_11
REMARK    9  A    between atoms: C_11  and  O_12
REMARK   10  A    between atoms: C_11  and  C_14
REMARK   11  A    between atoms: C_14  and  O_15
REMARK                            x       y       z     vdW  Elec       q    Type
REMARK                         _______ _______ _______ _____ _____    ______ ____
ROOT
ATOM      1  O   UNL     1      35.905 -21.604 -18.584  0.00  0.00    -0.351 OA
ENDROOT
BRANCH   1   2
ATOM      2  C   UNL     1      36.429 -20.779 -19.615  0.00  0.00    +0.142 C 
BRANCH   2   3
ATOM      3  C   UNL     1      35.313 -20.369 -20.590  0.00  0.00    +0.030 C 
BRANCH   3   4
ATOM      4  C   UNL     1      33.913 -20.811 -20.105  0.00  0.00    +0.002 C 
ATOM      5  C   UNL     1      32.760 -19.939 -20.581  0.00  0.00    +0.000 C 
ENDBRANCH   3   4
BRANCH   3   6
ATOM      6  C   UNL     1      35.438 -18.859 -20.881  0.00  0.00    +0.002 C 
BRANCH   6   7
ATOM      7  C   UNL     1      36.227 -18.544 -22.156  0.00  0.00    +0.000 C 
BRANCH   7   8
ATOM      8  C   UNL     1      35.339 -18.087 -23.317  0.00  0.00    +0.000 C 
ATOM      9  C   UNL     1      34.778 -19.237 -24.139  0.00  0.00    +0.000 C 
ENDBRANCH   7   8
ENDBRANCH   6   7
ENDBRANCH   3   6
ENDBRANCH   2   3
ENDBRANCH   1   2
BRANCH   1  10
ATOM     10  C   UNL     1      36.882 -21.883 -17.591  0.00  0.00    +0.174 C 
BRANCH  10  11
ATOM     11  C   UNL     1      36.198 -22.333 -16.305  0.00  0.00    +0.169 C 
BRANCH  11  12
ATOM     12  O   UNL     1      35.258 -23.361 -16.622  0.00  0.00    -0.379 OA
ATOM     13  H   UNL     1      34.581 -23.008 -17.220  0.00  0.00    +0.211 HD
ENDBRANCH  11  12
BRANCH  11  14
ATOM     14  C   UNL     1      37.201 -22.904 -15.311  0.00  0.00    +0.169 C 
BRANCH  14  15
ATOM     15  O   UNL     1      38.371 -23.306 -16.015  0.00  0.00    -0.379 OA
ATOM     16  H   UNL     1      38.379 -24.273 -16.105  0.00  0.00    +0.211 HD
ENDBRANCH  14  15
ENDBRANCH  11  14
ENDBRANCH  10  11
ENDBRANCH   1  10
TORSDOF 11
ENDMDL
MODEL 8
REMARK VINA RESULT:      -5.6      1.067      1.732
REMARK  Name = 9859093
REMARK  11 active torsions:
REMARK  status: ('A' for Active; 'I' for Inactive)
REMARK    1  A    between atoms: O_1  and  C_2
REMARK    2  A    between atoms: O_1  and  C_10
REMARK    3  A    between atoms: C_2  and  C_3
REMARK    4  A    between atoms: C_3  and  C_4
REMARK    5  A    between atoms: C_3  and  C_6
REMARK    6  A    between atoms: C_6  and  C_7
REMARK    7  A    between atoms: C_7  and  C_8
REMARK    8  A    between atoms: C_10  and  C_11
REMARK    9  A    between atoms: C_11  and  O_12
REMARK   10  A    between atoms: C_11  and  C_14
REMARK   11  A    between atoms: C_14  and  O_15
REMARK                            x       y       z     vdW  Elec       q    Type
REMARK                         _______ _______ _______ _____ _____    ______ ____
ROOT
ATOM      1  O   UNL     1      34.645 -15.207 -23.294  0.00  0.00    -0.351 OA
ENDROOT
BRANCH   1   2
ATOM      2  C   UNL     1      35.239 -16.425 -22.870  0.00  0.00    +0.142 C 
BRANCH   2   3
ATOM      3  C   UNL     1      34.887 -16.706 -21.400  0.00  0.00    +0.030 C 
BRANCH   3   4
ATOM      4  C   UNL     1      34.136 -15.529 -20.736  0.00  0.00    +0.002 C 
ATOM      5  C   UNL     1      32.622 -15.677 -20.682  0.00  0.00    +0.000 C 
ENDBRANCH   3   4
BRANCH   3   6
ATOM      6  C   UNL     1      34.149 -18.059 -21.315  0.00  0.00    +0.002 C 
BRANCH   6   7
ATOM      7  C   UNL     1      35.079 -19.249 -21.058  0.00  0.00    +0.000 C 
BRANCH   7   8
ATOM      8  C   UNL     1      34.383 -20.414 -20.346  0.00  0.00    +0.000 C 
ATOM      9  C   UNL     1      32.873 -20.251 -20.252  0.00  0.00    +0.000 C 
ENDBRANCH   7   8
ENDBRANCH   6   7
ENDBRANCH   3   6
ENDBRANCH   2   3
ENDBRANCH   1   2
BRANCH   1  10
ATOM     10  C   UNL     1      33.772 -15.408 -24.398  0.00  0.00    +0.174 C 
BRANCH  10  11
ATOM     11  C   UNL     1      33.073 -14.100 -24.750  0.00  0.00    +0.169 C 
BRANCH  11  12
ATOM     12  O   UNL     1      33.843 -13.015 -24.227  0.00  0.00    -0.379 OA
ATOM     13  H   UNL     1      34.499 -12.737 -24.884  0.00  0.00    +0.211 HD
ENDBRANCH  11  12
BRANCH  11  14
ATOM     14  C   UNL     1      32.966 -13.915 -26.258  0.00  0.00    +0.169 C 
BRANCH  14  15
ATOM     15  O   UNL     1      33.576 -15.026 -26.905  0.00  0.00    -0.379 OA
ATOM     16  H   UNL     1      34.542 -14.930 -26.872  0.00  0.00    +0.211 HD
ENDBRANCH  14  15
ENDBRANCH  11  14
ENDBRANCH  10  11
ENDBRANCH   1  10
TORSDOF 11
ENDMDL
MODEL 9
REMARK VINA RESULT:      -5.6      3.120      5.836
REMARK  Name = 9859093
REMARK  11 active torsions:
REMARK  status: ('A' for Active; 'I' for Inactive)
REMARK    1  A    between atoms: O_1  and  C_2
REMARK    2  A    between atoms: O_1  and  C_10
REMARK    3  A    between atoms: C_2  and  C_3
REMARK    4  A    between atoms: C_3  and  C_4
REMARK    5  A    between atoms: C_3  and  C_6
REMARK    6  A    between atoms: C_6  and  C_7
REMARK    7  A    between atoms: C_7  and  C_8
REMARK    8  A    between atoms: C_10  and  C_11
REMARK    9  A    between atoms: C_11  and  O_12
REMARK   10  A    between atoms: C_11  and  C_14
REMARK   11  A    between atoms: C_14  and  O_15
REMARK                            x       y       z     vdW  Elec       q    Type
REMARK                         _______ _______ _______ _____ _____    ______ ____
ROOT
ATOM      1  O   UNL     1      34.430 -18.871 -21.002  0.00  0.00    -0.351 OA
ENDROOT
BRANCH   1   2
ATOM      2  C   UNL     1      34.877 -18.542 -22.310  0.00  0.00    +0.142 C 
BRANCH   2   3
ATOM      3  C   UNL     1      35.275 -17.059 -22.380  0.00  0.00    +0.030 C 
BRANCH   3   4
ATOM      4  C   UNL     1      34.729 -16.359 -23.645  0.00  0.00    +0.002 C 
ATOM      5  C   UNL     1      34.677 -17.229 -24.893  0.00  0.00    +0.000 C 
ENDBRANCH   3   4
BRANCH   3   6
ATOM      6  C   UNL     1      34.878 -16.375 -21.054  0.00  0.00    +0.002 C 
BRANCH   6   7
ATOM      7  C   UNL     1      34.415 -14.925 -21.227  0.00  0.00    +0.000 C 
BRANCH   7   8
ATOM      8  C   UNL     1      33.022 -14.664 -20.645  0.00  0.00    +0.000 C 
ATOM      9  C   UNL     1      32.133 -15.898 -20.626  0.00  0.00    +0.000 C 
ENDBRANCH   7   8
ENDBRANCH   6   7
ENDBRANCH   3   6
ENDBRANCH   2   3
ENDBRANCH   1   2
BRANCH   1  10
ATOM     10  C   UNL     1      33.521 -19.963 -21.020  0.00  0.00    +0.174 C 
BRANCH  10  11
ATOM     11  C   UNL     1      33.775 -20.868 -19.821  0.00  0.00    +0.169 C 
BRANCH  11  12
ATOM     12  O   UNL     1      32.826 -21.936 -19.844  0.00  0.00    -0.379 OA
ATOM     13  H   UNL     1      31.984 -21.614 -20.203  0.00  0.00    +0.211 HD
ENDBRANCH  11  12
BRANCH  11  14
ATOM     14  C   UNL     1      35.170 -21.479 -19.869  0.00  0.00    +0.169 C 
BRANCH  14  15
ATOM     15  O   UNL     1      36.119 -20.494 -19.476  0.00  0.00    -0.379 OA
ATOM     16  H   UNL     1      35.722 -19.908 -18.812  0.00  0.00    +0.211 HD
ENDBRANCH  14  15
ENDBRANCH  11  14
ENDBRANCH  10  11
ENDBRANCH   1  10
TORSDOF 11
ENDMDL
