MODEL 1
REMARK VINA RESULT:      -8.9      0.000      0.000
REMARK  Name = 4942
REMARK  8 active torsions:
REMARK  status: ('A' for Active; 'I' for Inactive)
REMARK    1  A    between atoms: C_1  and  C_2
REMARK    2  A    between atoms: C_1  and  C_8
REMARK    3  A    between atoms: C_1  and  C_15
REMARK    4  A    between atoms: C_1  and  O_25
REMARK    5  A    between atoms: C_15  and  O_16
REMARK    6  A    between atoms: O_16  and  C_18
REMARK    7  A    between atoms: O_25  and  C_26
REMARK    8  A    between atoms: C_26  and  C_27
REMARK                            x       y       z     vdW  Elec       q    Type
REMARK                         _______ _______ _______ _____ _____    ______ ____
ROOT
ATOM      1  C   UNL     1      35.078 -23.580 -15.321  0.00  0.00    +0.219 C 
ENDROOT
BRANCH   1   2
ATOM      2  C   UNL     1      33.564 -23.363 -15.308  0.00  0.00    +0.016 C 
ATOM      3  C   UNL     1      32.856 -23.588 -16.467  0.00  0.00    -0.001 C 
ATOM      4  C   UNL     1      32.968 -22.949 -14.139  0.00  0.00    -0.001 C 
ATOM      5  C   UNL     1      31.476 -23.390 -16.456  0.00  0.00    -0.000 C 
ATOM      6  C   UNL     1      31.587 -22.752 -14.128  0.00  0.00    -0.000 C 
ATOM      7  C   UNL     1      30.841 -22.972 -15.287  0.00  0.00    -0.000 C 
ENDBRANCH   1   2
BRANCH   1   8
ATOM      8  C   UNL     1      35.635 -23.634 -13.897  0.00  0.00    +0.016 C 
ATOM      9  C   UNL     1      36.882 -23.105 -13.657  0.00  0.00    -0.001 C 
ATOM     10  C   UNL     1      34.866 -24.209 -12.911  0.00  0.00    -0.001 C 
ATOM     11  C   UNL     1      37.390 -23.154 -12.358  0.00  0.00    -0.000 C 
ATOM     12  C   UNL     1      35.374 -24.257 -11.612  0.00  0.00    -0.000 C 
ATOM     13  C   UNL     1      36.635 -23.729 -11.336  0.00  0.00    -0.000 C 
ENDBRANCH   1   8
BRANCH   1  15
ATOM     14  O   UNL     1      36.642 -21.763 -15.816  0.00  0.00    -0.247 OA
ATOM     15  C   UNL     1      35.841 -22.600 -16.217  0.00  0.00    +0.349 C 
BRANCH  15  16
ATOM     16  O   UNL     1      35.536 -22.810 -17.540  0.00  0.00    -0.450 OA
BRANCH  16  18
ATOM     17  N   UNL     1      35.092 -20.523 -21.018  0.00  0.00    +0.386 N 
ATOM     18  C   UNL     1      35.352 -21.643 -18.331  0.00  0.00    +0.165 C 
ATOM     19  C   UNL     1      36.555 -21.439 -19.248  0.00  0.00    +0.021 C 
ATOM     20  C   UNL     1      34.079 -21.797 -19.157  0.00  0.00    +0.021 C 
ATOM     21  C   UNL     1      36.315 -20.296 -20.234  0.00  0.00    -0.074 C 
ATOM     22  C   UNL     1      33.915 -20.643 -20.146  0.00  0.00    -0.074 C 
ATOM     23  C   UNL     1      34.901 -19.447 -21.990  0.00  0.00    -0.101 C 
ATOM     24  H   UNL     1      35.201 -21.403 -21.521  0.00  0.00    -0.080 HD
ENDBRANCH  16  18
ENDBRANCH  15  16
ENDBRANCH   1  15
BRANCH   1  25
ATOM     25  O   UNL     1      35.401 -24.804 -16.014  0.00  0.00    -0.340 OA
BRANCH  25  26
ATOM     26  C   UNL     1      35.532 -25.876 -15.102  0.00  0.00    +0.144 C 
BRANCH  26  27
ATOM     27  C   UNL     1      36.866 -26.566 -15.345  0.00  0.00    +0.032 C 
ATOM     28  C   UNL     1      37.655 -26.739 -14.058  0.00  0.00    +0.003 C 
ENDBRANCH  26  27
ENDBRANCH  25  26
ENDBRANCH   1  25
TORSDOF 8
ENDMDL
MODEL 2
REMARK VINA RESULT:      -8.7      2.457      5.437
REMARK  Name = 4942
REMARK  8 active torsions:
REMARK  status: ('A' for Active; 'I' for Inactive)
REMARK    1  A    between atoms: C_1  and  C_2
REMARK    2  A    between atoms: C_1  and  C_8
REMARK    3  A    between atoms: C_1  and  C_15
REMARK    4  A    between atoms: C_1  and  O_25
REMARK    5  A    between atoms: C_15  and  O_16
REMARK    6  A    between atoms: O_16  and  C_18
REMARK    7  A    between atoms: O_25  and  C_26
REMARK    8  A    between atoms: C_26  and  C_27
REMARK                            x       y       z     vdW  Elec       q    Type
REMARK                         _______ _______ _______ _____ _____    ______ ____
ROOT
ATOM      1  C   UNL     1      36.419 -23.895 -14.819  0.00  0.00    +0.219 C 
ENDROOT
BRANCH   1   2
ATOM      2  C   UNL     1      36.458 -22.933 -16.008  0.00  0.00    +0.016 C 
ATOM      3  C   UNL     1      37.446 -21.976 -16.048  0.00  0.00    -0.001 C 
ATOM      4  C   UNL     1      35.504 -23.061 -16.991  0.00  0.00    -0.001 C 
ATOM      5  C   UNL     1      37.482 -21.098 -17.131  0.00  0.00    -0.000 C 
ATOM      6  C   UNL     1      35.540 -22.184 -18.075  0.00  0.00    -0.000 C 
ATOM      7  C   UNL     1      36.529 -21.202 -18.145  0.00  0.00    -0.000 C 
ENDBRANCH   1   2
BRANCH   1   8
ATOM      8  C   UNL     1      37.776 -24.573 -14.620  0.00  0.00    +0.016 C 
ATOM      9  C   UNL     1      37.909 -25.498 -13.609  0.00  0.00    -0.001 C 
ATOM     10  C   UNL     1      38.812 -24.233 -15.460  0.00  0.00    -0.001 C 
ATOM     11  C   UNL     1      39.146 -26.115 -13.428  0.00  0.00    -0.000 C 
ATOM     12  C   UNL     1      40.049 -24.852 -15.279  0.00  0.00    -0.000 C 
ATOM     13  C   UNL     1      40.216 -25.793 -14.263  0.00  0.00    -0.000 C 
ENDBRANCH   1   8
BRANCH   1  15
ATOM     14  O   UNL     1      35.295 -25.982 -15.427  0.00  0.00    -0.247 OA
ATOM     15  C   UNL     1      35.260 -24.895 -14.863  0.00  0.00    +0.349 C 
BRANCH  15  16
ATOM     16  O   UNL     1      34.182 -24.424 -14.153  0.00  0.00    -0.450 OA
BRANCH  16  18
ATOM     17  N   UNL     1      30.119 -23.696 -14.844  0.00  0.00    +0.386 N 
ATOM     18  C   UNL     1      32.917 -24.539 -14.789  0.00  0.00    +0.165 C 
ATOM     19  C   UNL     1      31.884 -25.079 -13.803  0.00  0.00    +0.021 C 
ATOM     20  C   UNL     1      32.491 -23.167 -15.300  0.00  0.00    +0.021 C 
ATOM     21  C   UNL     1      30.477 -25.051 -14.401  0.00  0.00    -0.074 C 
ATOM     22  C   UNL     1      31.065 -23.197 -15.851  0.00  0.00    -0.074 C 
ATOM     23  C   UNL     1      28.753 -23.673 -15.368  0.00  0.00    -0.101 C 
ATOM     24  H   UNL     1      30.169 -23.078 -14.033  0.00  0.00    -0.080 HD
ENDBRANCH  16  18
ENDBRANCH  15  16
ENDBRANCH   1  15
BRANCH   1  25
ATOM     25  O   UNL     1      36.050 -23.188 -13.617  0.00  0.00    -0.340 OA
BRANCH  25  26
ATOM     26  C   UNL     1      37.171 -23.014 -12.773  0.00  0.00    +0.144 C 
BRANCH  26  27
ATOM     27  C   UNL     1      36.706 -23.052 -11.325  0.00  0.00    +0.032 C 
ATOM     28  C   UNL     1      35.793 -24.235 -11.057  0.00  0.00    +0.003 C 
ENDBRANCH  26  27
ENDBRANCH  25  26
ENDBRANCH   1  25
TORSDOF 8
ENDMDL
MODEL 3
REMARK VINA RESULT:      -7.8     12.890     16.209
REMARK  Name = 4942
REMARK  8 active torsions:
REMARK  status: ('A' for Active; 'I' for Inactive)
REMARK    1  A    between atoms: C_1  and  C_2
REMARK    2  A    between atoms: C_1  and  C_8
REMARK    3  A    between atoms: C_1  and  C_15
REMARK    4  A    between atoms: C_1  and  O_25
REMARK    5  A    between atoms: C_15  and  O_16
REMARK    6  A    between atoms: O_16  and  C_18
REMARK    7  A    between atoms: O_25  and  C_26
REMARK    8  A    between atoms: C_26  and  C_27
REMARK                            x       y       z     vdW  Elec       q    Type
REMARK                         _______ _______ _______ _____ _____    ______ ____
ROOT
ATOM      1  C   UNL     1      32.536  -8.628 -22.392  0.00  0.00    +0.219 C 
ENDROOT
BRANCH   1   2
ATOM      2  C   UNL     1      32.007  -9.479 -21.237  0.00  0.00    +0.016 C 
ATOM      3  C   UNL     1      31.088 -10.466 -21.513  0.00  0.00    -0.001 C 
ATOM      4  C   UNL     1      32.469  -9.226 -19.966  0.00  0.00    -0.001 C 
ATOM      5  C   UNL     1      30.605 -11.243 -20.461  0.00  0.00    -0.000 C 
ATOM      6  C   UNL     1      31.986 -10.004 -18.913  0.00  0.00    -0.000 C 
ATOM      7  C   UNL     1      31.054 -11.012 -19.160  0.00  0.00    -0.000 C 
ENDBRANCH   1   2
BRANCH   1   8
ATOM      8  C   UNL     1      31.826  -7.273 -22.442  0.00  0.00    +0.016 C 
ATOM      9  C   UNL     1      31.416  -6.788 -23.663  0.00  0.00    -0.001 C 
ATOM     10  C   UNL     1      31.624  -6.591 -21.263  0.00  0.00    -0.001 C 
ATOM     11  C   UNL     1      30.769  -5.553 -23.708  0.00  0.00    -0.000 C 
ATOM     12  C   UNL     1      30.977  -5.356 -21.309  0.00  0.00    -0.000 C 
ATOM     13  C   UNL     1      30.549  -4.838 -22.531  0.00  0.00    -0.000 C 
ENDBRANCH   1   8
BRANCH   1  15
ATOM     14  O   UNL     1      31.832  -9.038 -24.700  0.00  0.00    -0.247 OA
ATOM     15  C   UNL     1      32.537  -9.344 -23.745  0.00  0.00    +0.349 C 
BRANCH  15  16
ATOM     16  O   UNL     1      33.466 -10.356 -23.760  0.00  0.00    -0.450 OA
BRANCH  16  18
ATOM     17  N   UNL     1      33.771 -14.292 -25.151  0.00  0.00    +0.386 N 
ATOM     18  C   UNL     1      33.030 -11.595 -24.304  0.00  0.00    +0.165 C 
ATOM     19  C   UNL     1      33.745 -11.866 -25.625  0.00  0.00    +0.021 C 
ATOM     20  C   UNL     1      33.327 -12.708 -23.305  0.00  0.00    +0.021 C 
ATOM     21  C   UNL     1      33.432 -13.267 -26.149  0.00  0.00    -0.074 C 
ATOM     22  C   UNL     1      33.028 -14.084 -23.900  0.00  0.00    -0.074 C 
ATOM     23  C   UNL     1      33.512 -15.630 -25.684  0.00  0.00    -0.101 C 
ATOM     24  H   UNL     1      34.766 -14.209 -24.943  0.00  0.00    -0.080 HD
ENDBRANCH  16  18
ENDBRANCH  15  16
ENDBRANCH   1  15
BRANCH   1  25
ATOM     25  O   UNL     1      33.957  -8.425 -22.252  0.00  0.00    -0.340 OA
BRANCH  25  26
ATOM     26  C   UNL     1      34.337  -7.166 -22.772  0.00  0.00    +0.144 C 
BRANCH  26  27
ATOM     27  C   UNL     1      35.084  -7.382 -24.080  0.00  0.00    +0.032 C 
ATOM     28  C   UNL     1      34.576  -6.462 -25.178  0.00  0.00    +0.003 C 
ENDBRANCH  26  27
ENDBRANCH  25  26
ENDBRANCH   1  25
TORSDOF 8
ENDMDL
MODEL 4
REMARK VINA RESULT:      -7.5     14.299     17.666
REMARK  Name = 4942
REMARK  8 active torsions:
REMARK  status: ('A' for Active; 'I' for Inactive)
REMARK    1  A    between atoms: C_1  and  C_2
REMARK    2  A    between atoms: C_1  and  C_8
REMARK    3  A    between atoms: C_1  and  C_15
REMARK    4  A    between atoms: C_1  and  O_25
REMARK    5  A    between atoms: C_15  and  O_16
REMARK    6  A    between atoms: O_16  and  C_18
REMARK    7  A    between atoms: O_25  and  C_26
REMARK    8  A    between atoms: C_26  and  C_27
REMARK                            x       y       z     vdW  Elec       q    Type
REMARK                         _______ _______ _______ _____ _____    ______ ____
ROOT
ATOM      1  C   UNL     1      32.407  -8.572 -22.808  0.00  0.00    +0.219 C 
ENDROOT
BRANCH   1   2
ATOM      2  C   UNL     1      33.411  -9.302 -23.702  0.00  0.00    +0.016 C 
ATOM      3  C   UNL     1      33.100 -10.568 -24.144  0.00  0.00    -0.001 C 
ATOM      4  C   UNL     1      34.586  -8.666 -24.029  0.00  0.00    -0.001 C 
ATOM      5  C   UNL     1      34.014 -11.234 -24.959  0.00  0.00    -0.000 C 
ATOM      6  C   UNL     1      35.501  -9.332 -24.845  0.00  0.00    -0.000 C 
ATOM      7  C   UNL     1      35.215 -10.617 -25.310  0.00  0.00    -0.000 C 
ENDBRANCH   1   2
BRANCH   1   8
ATOM      8  C   UNL     1      31.929  -9.477 -21.671  0.00  0.00    +0.016 C 
ATOM      9  C   UNL     1      32.354  -9.207 -20.390  0.00  0.00    -0.001 C 
ATOM     10  C   UNL     1      31.092 -10.528 -21.972  0.00  0.00    -0.001 C 
ATOM     11  C   UNL     1      31.918 -10.033 -19.354  0.00  0.00    -0.000 C 
ATOM     12  C   UNL     1      30.657 -11.353 -20.935  0.00  0.00    -0.000 C 
ATOM     13  C   UNL     1      31.069 -11.104 -19.626  0.00  0.00    -0.000 C 
ENDBRANCH   1   8
BRANCH   1  15
ATOM     14  O   UNL     1      30.091  -7.869 -23.174  0.00  0.00    -0.247 OA
ATOM     15  C   UNL     1      31.250  -7.922 -23.571  0.00  0.00    +0.349 C 
BRANCH  15  16
ATOM     16  O   UNL     1      31.692  -7.369 -24.749  0.00  0.00    -0.450 OA
BRANCH  16  18
ATOM     17  N   UNL     1      31.920  -3.409 -26.086  0.00  0.00    +0.386 N 
ATOM     18  C   UNL     1      32.011  -5.985 -24.707  0.00  0.00    +0.165 C 
ATOM     19  C   UNL     1      32.968  -5.635 -25.844  0.00  0.00    +0.021 C 
ATOM     20  C   UNL     1      30.725  -5.174 -24.833  0.00  0.00    +0.021 C 
ATOM     21  C   UNL     1      33.194  -4.126 -25.935  0.00  0.00    -0.074 C 
ATOM     22  C   UNL     1      31.020  -3.679 -24.956  0.00  0.00    -0.074 C 
ATOM     23  C   UNL     1      32.154  -1.972 -26.222  0.00  0.00    -0.101 C 
ATOM     24  H   UNL     1      31.468  -3.749 -26.936  0.00  0.00    -0.080 HD
ENDBRANCH  16  18
ENDBRANCH  15  16
ENDBRANCH   1  15
BRANCH   1  25
ATOM     25  O   UNL     1      33.004  -7.379 -22.259  0.00  0.00    -0.340 OA
BRANCH  25  26
ATOM     26  C   UNL     1      32.257  -6.908 -21.155  0.00  0.00    +0.144 C 
BRANCH  26  27
ATOM     27  C   UNL     1      31.967  -5.428 -21.354  0.00  0.00    +0.032 C 
ATOM     28  C   UNL     1      30.477  -5.136 -21.321  0.00  0.00    +0.003 C 
ENDBRANCH  26  27
ENDBRANCH  25  26
ENDBRANCH   1  25
TORSDOF 8
ENDMDL
MODEL 5
REMARK VINA RESULT:      -7.4     13.980     17.086
REMARK  Name = 4942
REMARK  8 active torsions:
REMARK  status: ('A' for Active; 'I' for Inactive)
REMARK    1  A    between atoms: C_1  and  C_2
REMARK    2  A    between atoms: C_1  and  C_8
REMARK    3  A    between atoms: C_1  and  C_15
REMARK    4  A    between atoms: C_1  and  O_25
REMARK    5  A    between atoms: C_15  and  O_16
REMARK    6  A    between atoms: O_16  and  C_18
REMARK    7  A    between atoms: O_25  and  C_26
REMARK    8  A    between atoms: C_26  and  C_27
REMARK                            x       y       z     vdW  Elec       q    Type
REMARK                         _______ _______ _______ _____ _____    ______ ____
ROOT
ATOM      1  C   UNL     1      32.416  -9.264 -22.813  0.00  0.00    +0.219 C 
ENDROOT
BRANCH   1   2
ATOM      2  C   UNL     1      32.976 -10.432 -23.627  0.00  0.00    +0.016 C 
ATOM      3  C   UNL     1      33.057 -11.671 -23.032  0.00  0.00    -0.001 C 
ATOM      4  C   UNL     1      33.379 -10.200 -24.922  0.00  0.00    -0.001 C 
ATOM      5  C   UNL     1      33.568 -12.736 -23.773  0.00  0.00    -0.000 C 
ATOM      6  C   UNL     1      33.889 -11.266 -25.664  0.00  0.00    -0.000 C 
ATOM      7  C   UNL     1      33.984 -12.534 -25.089  0.00  0.00    -0.000 C 
ENDBRANCH   1   2
BRANCH   1   8
ATOM      8  C   UNL     1      31.936  -9.736 -21.439  0.00  0.00    +0.016 C 
ATOM      9  C   UNL     1      31.120 -10.842 -21.370  0.00  0.00    -0.001 C 
ATOM     10  C   UNL     1      32.339  -9.037 -20.324  0.00  0.00    -0.001 C 
ATOM     11  C   UNL     1      30.682 -11.272 -20.118  0.00  0.00    -0.000 C 
ATOM     12  C   UNL     1      31.901  -9.467 -19.072  0.00  0.00    -0.000 C 
ATOM     13  C   UNL     1      31.073 -10.585 -18.969  0.00  0.00    -0.000 C 
ENDBRANCH   1   8
BRANCH   1  15
ATOM     14  O   UNL     1      30.196  -8.773 -23.717  0.00  0.00    -0.247 OA
ATOM     15  C   UNL     1      31.363  -8.436 -23.554  0.00  0.00    +0.349 C 
BRANCH  15  16
ATOM     16  O   UNL     1      31.893  -7.243 -23.982  0.00  0.00    -0.450 OA
BRANCH  16  18
ATOM     17  N   UNL     1      30.981  -3.314 -22.866  0.00  0.00    +0.386 N 
ATOM     18  C   UNL     1      31.089  -6.091 -23.770  0.00  0.00    +0.165 C 
ATOM     19  C   UNL     1      31.094  -5.716 -22.290  0.00  0.00    +0.021 C 
ATOM     20  C   UNL     1      31.637  -4.941 -24.608  0.00  0.00    +0.021 C 
ATOM     21  C   UNL     1      30.384  -4.383 -22.053  0.00  0.00    -0.074 C 
ATOM     22  C   UNL     1      30.910  -3.632 -24.299  0.00  0.00    -0.074 C 
ATOM     23  C   UNL     1      30.324  -2.036 -22.592  0.00  0.00    -0.101 C 
ATOM     24  H   UNL     1      31.965  -3.238 -22.609  0.00  0.00    -0.080 HD
ENDBRANCH  16  18
ENDBRANCH  15  16
ENDBRANCH   1  15
BRANCH   1  25
ATOM     25  O   UNL     1      33.421  -8.243 -22.650  0.00  0.00    -0.340 OA
BRANCH  25  26
ATOM     26  C   UNL     1      34.561  -8.532 -23.435  0.00  0.00    +0.144 C 
BRANCH  26  27
ATOM     27  C   UNL     1      35.259  -7.226 -23.786  0.00  0.00    +0.032 C 
ATOM     28  C   UNL     1      34.770  -6.664 -25.110  0.00  0.00    +0.003 C 
ENDBRANCH  26  27
ENDBRANCH  25  26
ENDBRANCH   1  25
TORSDOF 8
ENDMDL
MODEL 6
REMARK VINA RESULT:      -7.4     11.771     15.795
REMARK  Name = 4942
REMARK  8 active torsions:
REMARK  status: ('A' for Active; 'I' for Inactive)
REMARK    1  A    between atoms: C_1  and  C_2
REMARK    2  A    between atoms: C_1  and  C_8
REMARK    3  A    between atoms: C_1  and  C_15
REMARK    4  A    between atoms: C_1  and  O_25
REMARK    5  A    between atoms: C_15  and  O_16
REMARK    6  A    between atoms: O_16  and  C_18
REMARK    7  A    between atoms: O_25  and  C_26
REMARK    8  A    between atoms: C_26  and  C_27
REMARK                            x       y       z     vdW  Elec       q    Type
REMARK                         _______ _______ _______ _____ _____    ______ ____
ROOT
ATOM      1  C   UNL     1      32.705  -9.235 -22.630  0.00  0.00    +0.219 C 
ENDROOT
BRANCH   1   2
ATOM      2  C   UNL     1      32.093  -9.754 -21.327  0.00  0.00    +0.016 C 
ATOM      3  C   UNL     1      31.088 -10.691 -21.400  0.00  0.00    -0.001 C 
ATOM      4  C   UNL     1      32.570  -9.264 -20.134  0.00  0.00    -0.001 C 
ATOM      5  C   UNL     1      30.530 -11.165 -20.213  0.00  0.00    -0.000 C 
ATOM      6  C   UNL     1      32.012  -9.738 -18.946  0.00  0.00    -0.000 C 
ATOM      7  C   UNL     1      30.991 -10.688 -18.986  0.00  0.00    -0.000 C 
ENDBRANCH   1   2
BRANCH   1   8
ATOM      8  C   UNL     1      31.977  -7.980 -23.114  0.00  0.00    +0.016 C 
ATOM      9  C   UNL     1      31.255  -8.046 -24.284  0.00  0.00    -0.001 C 
ATOM     10  C   UNL     1      32.070  -6.832 -22.360  0.00  0.00    -0.001 C 
ATOM     11  C   UNL     1      30.592  -6.901 -24.725  0.00  0.00    -0.000 C 
ATOM     12  C   UNL     1      31.406  -5.687 -22.801  0.00  0.00    -0.000 C 
ATOM     13  C   UNL     1      30.666  -5.723 -23.983  0.00  0.00    -0.000 C 
ENDBRANCH   1   8
BRANCH   1  15
ATOM     14  O   UNL     1      33.129 -10.068 -24.892  0.00  0.00    -0.247 OA
ATOM     15  C   UNL     1      32.839 -10.299 -23.723  0.00  0.00    +0.349 C 
BRANCH  15  16
ATOM     16  O   UNL     1      32.628 -11.555 -23.210  0.00  0.00    -0.450 OA
BRANCH  16  18
ATOM     17  N   UNL     1      33.694 -15.469 -24.244  0.00  0.00    +0.386 N 
ATOM     18  C   UNL     1      33.415 -12.598 -23.768  0.00  0.00    +0.165 C 
ATOM     19  C   UNL     1      33.853 -13.566 -22.672  0.00  0.00    +0.021 C 
ATOM     20  C   UNL     1      32.593 -13.332 -24.823  0.00  0.00    +0.021 C 
ATOM     21  C   UNL     1      34.552 -14.792 -23.260  0.00  0.00    -0.074 C 
ATOM     22  C   UNL     1      33.330 -14.565 -25.344  0.00  0.00    -0.074 C 
ATOM     23  C   UNL     1      34.355 -16.666 -24.762  0.00  0.00    -0.101 C 
ATOM     24  H   UNL     1      32.835 -15.748 -23.770  0.00  0.00    -0.080 HD
ENDBRANCH  16  18
ENDBRANCH  15  16
ENDBRANCH   1  15
BRANCH   1  25
ATOM     25  O   UNL     1      34.105  -8.940 -22.441  0.00  0.00    -0.340 OA
BRANCH  25  26
ATOM     26  C   UNL     1      34.738  -8.699 -23.681  0.00  0.00    +0.144 C 
BRANCH  26  27
ATOM     27  C   UNL     1      35.096  -7.223 -23.771  0.00  0.00    +0.032 C 
ATOM     28  C   UNL     1      34.625  -6.607 -25.077  0.00  0.00    +0.003 C 
ENDBRANCH  26  27
ENDBRANCH  25  26
ENDBRANCH   1  25
TORSDOF 8
ENDMDL
MODEL 7
REMARK VINA RESULT:      -7.2     10.212     15.341
REMARK  Name = 4942
REMARK  8 active torsions:
REMARK  status: ('A' for Active; 'I' for Inactive)
REMARK    1  A    between atoms: C_1  and  C_2
REMARK    2  A    between atoms: C_1  and  C_8
REMARK    3  A    between atoms: C_1  and  C_15
REMARK    4  A    between atoms: C_1  and  O_25
REMARK    5  A    between atoms: C_15  and  O_16
REMARK    6  A    between atoms: O_16  and  C_18
REMARK    7  A    between atoms: O_25  and  C_26
REMARK    8  A    between atoms: C_26  and  C_27
REMARK                            x       y       z     vdW  Elec       q    Type
REMARK                         _______ _______ _______ _____ _____    ______ ____
ROOT
ATOM      1  C   UNL     1      32.064  -9.961 -22.699  0.00  0.00    +0.219 C 
ENDROOT
BRANCH   1   2
ATOM      2  C   UNL     1      33.242 -10.049 -23.672  0.00  0.00    +0.016 C 
ATOM      3  C   UNL     1      33.295 -11.109 -24.547  0.00  0.00    -0.001 C 
ATOM      4  C   UNL     1      34.203  -9.065 -23.633  0.00  0.00    -0.001 C 
ATOM      5  C   UNL     1      34.368 -11.190 -25.434  0.00  0.00    -0.000 C 
ATOM      6  C   UNL     1      35.276  -9.145 -24.521  0.00  0.00    -0.000 C 
ATOM      7  C   UNL     1      35.359 -10.208 -25.421  0.00  0.00    -0.000 C 
ENDBRANCH   1   2
BRANCH   1   8
ATOM      8  C   UNL     1      32.338  -8.930 -21.602  0.00  0.00    +0.016 C 
ATOM      9  C   UNL     1      33.026  -7.785 -21.930  0.00  0.00    -0.001 C 
ATOM     10  C   UNL     1      31.884  -9.188 -20.328  0.00  0.00    -0.001 C 
ATOM     11  C   UNL     1      33.276  -6.846 -20.929  0.00  0.00    -0.000 C 
ATOM     12  C   UNL     1      32.134  -8.248 -19.328  0.00  0.00    -0.000 C 
ATOM     13  C   UNL     1      32.829  -7.077 -19.629  0.00  0.00    -0.000 C 
ENDBRANCH   1   8
BRANCH   1  15
ATOM     14  O   UNL     1      30.458 -11.716 -22.125  0.00  0.00    -0.247 OA
ATOM     15  C   UNL     1      31.616 -11.314 -22.139  0.00  0.00    +0.349 C 
BRANCH  15  16
ATOM     16  O   UNL     1      32.693 -12.037 -21.688  0.00  0.00    -0.450 OA
BRANCH  16  18
ATOM     17  N   UNL     1      33.875 -16.043 -21.407  0.00  0.00    +0.386 N 
ATOM     18  C   UNL     1      32.630 -13.443 -21.889  0.00  0.00    +0.165 C 
ATOM     19  C   UNL     1      33.855 -13.915 -22.667  0.00  0.00    +0.021 C 
ATOM     20  C   UNL     1      32.567 -14.136 -20.532  0.00  0.00    +0.021 C 
ATOM     21  C   UNL     1      33.908 -15.441 -22.748  0.00  0.00    -0.074 C 
ATOM     22  C   UNL     1      32.659 -15.655 -20.679  0.00  0.00    -0.074 C 
ATOM     23  C   UNL     1      33.975 -17.499 -21.498  0.00  0.00    -0.101 C 
ATOM     24  H   UNL     1      34.679 -15.691 -20.887  0.00  0.00    -0.080 HD
ENDBRANCH  16  18
ENDBRANCH  15  16
ENDBRANCH   1  15
BRANCH   1  25
ATOM     25  O   UNL     1      30.858  -9.608 -23.406  0.00  0.00    -0.340 OA
BRANCH  25  26
ATOM     26  C   UNL     1      30.566  -8.234 -23.242  0.00  0.00    +0.144 C 
BRANCH  26  27
ATOM     27  C   UNL     1      30.800  -7.521 -24.565  0.00  0.00    +0.032 C 
ATOM     28  C   UNL     1      31.138  -6.054 -24.363  0.00  0.00    +0.003 C 
ENDBRANCH  26  27
ENDBRANCH  25  26
ENDBRANCH   1  25
TORSDOF 8
ENDMDL
MODEL 8
REMARK VINA RESULT:      -7.1      7.765     13.509
REMARK  Name = 4942
REMARK  8 active torsions:
REMARK  status: ('A' for Active; 'I' for Inactive)
REMARK    1  A    between atoms: C_1  and  C_2
REMARK    2  A    between atoms: C_1  and  C_8
REMARK    3  A    between atoms: C_1  and  C_15
REMARK    4  A    between atoms: C_1  and  O_25
REMARK    5  A    between atoms: C_15  and  O_16
REMARK    6  A    between atoms: O_16  and  C_18
REMARK    7  A    between atoms: O_25  and  C_26
REMARK    8  A    between atoms: C_26  and  C_27
REMARK                            x       y       z     vdW  Elec       q    Type
REMARK                         _______ _______ _______ _____ _____    ______ ____
ROOT
ATOM      1  C   UNL     1      33.246 -12.715 -23.622  0.00  0.00    +0.219 C 
ENDROOT
BRANCH   1   2
ATOM      2  C   UNL     1      33.184 -13.295 -25.036  0.00  0.00    +0.016 C 
ATOM      3  C   UNL     1      33.515 -12.483 -26.096  0.00  0.00    -0.001 C 
ATOM      4  C   UNL     1      32.798 -14.606 -25.194  0.00  0.00    -0.001 C 
ATOM      5  C   UNL     1      33.458 -13.011 -27.386  0.00  0.00    -0.000 C 
ATOM      6  C   UNL     1      32.742 -15.135 -26.483  0.00  0.00    -0.000 C 
ATOM      7  C   UNL     1      33.072 -14.337 -27.580  0.00  0.00    -0.000 C 
ENDBRANCH   1   2
BRANCH   1   8
ATOM      8  C   UNL     1      33.545 -11.215 -23.660  0.00  0.00    +0.016 C 
ATOM      9  C   UNL     1      32.599 -10.341 -23.175  0.00  0.00    -0.001 C 
ATOM     10  C   UNL     1      34.750 -10.796 -24.177  0.00  0.00    -0.001 C 
ATOM     11  C   UNL     1      32.872  -8.974 -23.210  0.00  0.00    -0.000 C 
ATOM     12  C   UNL     1      35.023  -9.429 -24.211  0.00  0.00    -0.000 C 
ATOM     13  C   UNL     1      34.084  -8.518 -23.727  0.00  0.00    -0.000 C 
ENDBRANCH   1   8
BRANCH   1  15
ATOM     14  O   UNL     1      34.417 -13.153 -21.518  0.00  0.00    -0.247 OA
ATOM     15  C   UNL     1      34.175 -13.479 -22.675  0.00  0.00    +0.349 C 
BRANCH  15  16
ATOM     16  O   UNL     1      34.674 -14.605 -23.284  0.00  0.00    -0.450 OA
BRANCH  16  18
ATOM     17  N   UNL     1      34.342 -18.526 -21.859  0.00  0.00    +0.386 N 
ATOM     18  C   UNL     1      34.915 -15.719 -22.435  0.00  0.00    +0.165 C 
ATOM     19  C   UNL     1      33.612 -16.165 -21.777  0.00  0.00    +0.021 C 
ATOM     20  C   UNL     1      35.505 -16.856 -23.263  0.00  0.00    +0.021 C 
ATOM     21  C   UNL     1      33.801 -17.466 -20.996  0.00  0.00    -0.074 C 
ATOM     22  C   UNL     1      35.635 -18.135 -22.436  0.00  0.00    -0.074 C 
ATOM     23  C   UNL     1      34.472 -19.777 -21.112  0.00  0.00    -0.101 C 
ATOM     24  H   UNL     1      33.685 -18.670 -22.626  0.00  0.00    -0.080 HD
ENDBRANCH  16  18
ENDBRANCH  15  16
ENDBRANCH   1  15
BRANCH   1  25
ATOM     25  O   UNL     1      31.999 -12.943 -22.934  0.00  0.00    -0.340 OA
BRANCH  25  26
ATOM     26  C   UNL     1      32.185 -12.904 -21.533  0.00  0.00    +0.144 C 
BRANCH  26  27
ATOM     27  C   UNL     1      31.128 -11.997 -20.922  0.00  0.00    +0.032 C 
ATOM     28  C   UNL     1      31.620 -11.336 -19.646  0.00  0.00    +0.003 C 
ENDBRANCH  26  27
ENDBRANCH  25  26
ENDBRANCH   1  25
TORSDOF 8
ENDMDL
MODEL 9
REMARK VINA RESULT:      -7.1      6.193      9.400
REMARK  Name = 4942
REMARK  8 active torsions:
REMARK  status: ('A' for Active; 'I' for Inactive)
REMARK    1  A    between atoms: C_1  and  C_2
REMARK    2  A    between atoms: C_1  and  C_8
REMARK    3  A    between atoms: C_1  and  C_15
REMARK    4  A    between atoms: C_1  and  O_25
REMARK    5  A    between atoms: C_15  and  O_16
REMARK    6  A    between atoms: O_16  and  C_18
REMARK    7  A    between atoms: O_25  and  C_26
REMARK    8  A    between atoms: C_26  and  C_27
REMARK                            x       y       z     vdW  Elec       q    Type
REMARK                         _______ _______ _______ _____ _____    ______ ____
ROOT
ATOM      1  C   UNL     1      34.818 -17.758 -21.530  0.00  0.00    +0.219 C 
ENDROOT
BRANCH   1   2
ATOM      2  C   UNL     1      34.670 -17.759 -23.053  0.00  0.00    +0.016 C 
ATOM      3  C   UNL     1      34.337 -18.936 -23.682  0.00  0.00    -0.001 C 
ATOM      4  C   UNL     1      34.875 -16.582 -23.735  0.00  0.00    -0.001 C 
ATOM      5  C   UNL     1      34.202 -18.938 -25.070  0.00  0.00    -0.000 C 
ATOM      6  C   UNL     1      34.739 -16.582 -25.124  0.00  0.00    -0.000 C 
ATOM      7  C   UNL     1      34.403 -17.761 -25.791  0.00  0.00    -0.000 C 
ENDBRANCH   1   2
BRANCH   1   8
ATOM      8  C   UNL     1      34.129 -18.977 -20.914  0.00  0.00    +0.016 C 
ATOM      9  C   UNL     1      34.907 -20.022 -20.473  0.00  0.00    -0.001 C 
ATOM     10  C   UNL     1      32.755 -18.981 -20.823  0.00  0.00    -0.001 C 
ATOM     11  C   UNL     1      34.278 -21.134 -19.912  0.00  0.00    -0.000 C 
ATOM     12  C   UNL     1      32.127 -20.093 -20.262  0.00  0.00    -0.000 C 
ATOM     13  C   UNL     1      32.888 -21.168 -19.805  0.00  0.00    -0.000 C 
ENDBRANCH   1   8
BRANCH   1  15
ATOM     14  O   UNL     1      35.014 -15.897 -19.953  0.00  0.00    -0.247 OA
ATOM     15  C   UNL     1      34.402 -16.444 -20.864  0.00  0.00    +0.349 C 
BRANCH  15  16
ATOM     16  O   UNL     1      33.267 -15.938 -21.449  0.00  0.00    -0.450 OA
BRANCH  16  18
ATOM     17  N   UNL     1      31.437 -12.193 -21.834  0.00  0.00    +0.386 N 
ATOM     18  C   UNL     1      33.174 -14.521 -21.509  0.00  0.00    +0.165 C 
ATOM     19  C   UNL     1      32.638 -14.090 -22.871  0.00  0.00    +0.021 C 
ATOM     20  C   UNL     1      32.247 -14.036 -20.399  0.00  0.00    +0.021 C 
ATOM     21  C   UNL     1      32.360 -12.587 -22.909  0.00  0.00    -0.074 C 
ATOM     22  C   UNL     1      31.981 -12.536 -20.513  0.00  0.00    -0.074 C 
ATOM     23  C   UNL     1      31.142 -10.763 -21.912  0.00  0.00    -0.101 C 
ATOM     24  H   UNL     1      30.569 -12.714 -21.961  0.00  0.00    -0.080 HD
ENDBRANCH  16  18
ENDBRANCH  15  16
ENDBRANCH   1  15
BRANCH   1  25
ATOM     25  O   UNL     1      36.214 -17.755 -21.165  0.00  0.00    -0.340 OA
BRANCH  25  26
ATOM     26  C   UNL     1      37.012 -18.228 -22.232  0.00  0.00    +0.144 C 
BRANCH  26  27
ATOM     27  C   UNL     1      38.119 -19.104 -21.665  0.00  0.00    +0.032 C 
ATOM     28  C   UNL     1      37.650 -19.897 -20.458  0.00  0.00    +0.003 C 
ENDBRANCH  26  27
ENDBRANCH  25  26
ENDBRANCH   1  25
TORSDOF 8
ENDMDL
