MODEL 1
REMARK VINA RESULT:      -7.6      0.000      0.000
REMARK  Name = 19161
REMARK  9 active torsions:
REMARK  status: ('A' for Active; 'I' for Inactive)
REMARK    1  A    between atoms: N_2  and  C_4
REMARK    2  A    between atoms: N_2  and  N_10
REMARK    3  A    between atoms: C_3  and  C_18
REMARK    4  A    between atoms: N_10  and  C_12
REMARK    5  A    between atoms: C_18  and  C_20
REMARK    6  A    between atoms: C_18  and  C_23
REMARK    7  A    between atoms: C_20  and  O_21
REMARK    8  A    between atoms: C_23  and  C_24
REMARK    9  A    between atoms: C_24  and  C_25
REMARK                            x       y       z     vdW  Elec       q    Type
REMARK                         _______ _______ _______ _____ _____    ______ ____
ROOT
ATOM      1  O   UNL     1      33.082 -25.643 -13.937  0.00  0.00    -0.272 OA
ATOM      2  N   UNL     1      34.663 -24.052 -14.586  0.00  0.00    -0.188 N 
ATOM      3  C   UNL     1      33.365 -24.494 -14.283  0.00  0.00    +0.255 C 
ENDROOT
BRANCH   2   4
ATOM      4  C   UNL     1      35.796 -24.927 -14.454  0.00  0.00    +0.073 C 
ATOM      5  C   UNL     1      36.652 -24.736 -13.396  0.00  0.00    +0.017 C 
ATOM      6  C   UNL     1      35.970 -25.918 -15.390  0.00  0.00    +0.017 C 
ATOM      7  C   UNL     1      37.751 -25.585 -13.267  0.00  0.00    +0.001 C 
ATOM      8  C   UNL     1      37.069 -26.768 -15.262  0.00  0.00    +0.001 C 
ATOM      9  C   UNL     1      37.959 -26.602 -14.200  0.00  0.00    +0.000 C 
ENDBRANCH   2   4
BRANCH   2  10
ATOM     10  N   UNL     1      34.815 -22.743 -15.017  0.00  0.00    -0.256 N 
ATOM     11  H   UNL     1      34.670 -22.004 -14.384  0.00  0.00    +0.171 HD
BRANCH  10  12
ATOM     12  C   UNL     1      35.173 -22.457 -16.346  0.00  0.00    +0.062 C 
ATOM     13  C   UNL     1      34.266 -22.690 -17.383  0.00  0.00    +0.016 C 
ATOM     14  C   UNL     1      36.438 -21.939 -16.637  0.00  0.00    +0.016 C 
ATOM     15  C   UNL     1      34.622 -22.406 -18.703  0.00  0.00    +0.001 C 
ATOM     16  C   UNL     1      36.793 -21.656 -17.956  0.00  0.00    +0.001 C 
ATOM     17  C   UNL     1      35.885 -21.889 -18.989  0.00  0.00    +0.000 C 
ENDBRANCH  10  12
ENDBRANCH   2  10
BRANCH   3  18
ATOM     18  C   UNL     1      32.225 -23.464 -14.462  0.00  0.00    +0.177 C 
BRANCH  18  20
ATOM     19  O   UNL     1      30.368 -23.858 -12.943  0.00  0.00    -0.250 OA
ATOM     20  C   UNL     1      31.434 -23.301 -13.173  0.00  0.00    +0.322 C 
BRANCH  20  21
ATOM     21  O   UNL     1      32.042 -22.472 -12.288  0.00  0.00    -0.480 OA
ATOM     22  H   UNL     1      32.570 -21.763 -12.596  0.00  0.00    +0.295 HD
ENDBRANCH  20  21
ENDBRANCH  18  20
BRANCH  18  23
ATOM     23  C   UNL     1      31.274 -23.910 -15.592  0.00  0.00    +0.020 C 
BRANCH  23  24
ATOM     24  C   UNL     1      30.704 -22.737 -16.397  0.00  0.00    +0.001 C 
BRANCH  24  25
ATOM     25  C   UNL     1      29.175 -22.721 -16.346  0.00  0.00    +0.000 C 
ATOM     26  C   UNL     1      28.613 -24.106 -16.072  0.00  0.00    +0.000 C 
ENDBRANCH  24  25
ENDBRANCH  23  24
ENDBRANCH  18  23
ENDBRANCH   3  18
TORSDOF 9
ENDMDL
MODEL 2
REMARK VINA RESULT:      -7.4     10.000     12.911
REMARK  Name = 19161
REMARK  9 active torsions:
REMARK  status: ('A' for Active; 'I' for Inactive)
REMARK    1  A    between atoms: N_2  and  C_4
REMARK    2  A    between atoms: N_2  and  N_10
REMARK    3  A    between atoms: C_3  and  C_18
REMARK    4  A    between atoms: N_10  and  C_12
REMARK    5  A    between atoms: C_18  and  C_20
REMARK    6  A    between atoms: C_18  and  C_23
REMARK    7  A    between atoms: C_20  and  O_21
REMARK    8  A    between atoms: C_23  and  C_24
REMARK    9  A    between atoms: C_24  and  C_25
REMARK                            x       y       z     vdW  Elec       q    Type
REMARK                         _______ _______ _______ _____ _____    ______ ____
ROOT
ATOM      1  O   UNL     1      35.245 -15.874 -23.857  0.00  0.00    -0.272 OA
ATOM      2  N   UNL     1      33.359 -14.604 -23.323  0.00  0.00    -0.188 N 
ATOM      3  C   UNL     1      34.295 -15.629 -23.110  0.00  0.00    +0.255 C 
ENDROOT
BRANCH   2   4
ATOM      4  C   UNL     1      33.485 -13.704 -24.437  0.00  0.00    +0.073 C 
ATOM      5  C   UNL     1      34.050 -12.470 -24.222  0.00  0.00    +0.017 C 
ATOM      6  C   UNL     1      33.035 -14.119 -25.668  0.00  0.00    +0.017 C 
ATOM      7  C   UNL     1      34.172 -11.597 -25.303  0.00  0.00    +0.001 C 
ATOM      8  C   UNL     1      33.158 -13.246 -26.749  0.00  0.00    +0.001 C 
ATOM      9  C   UNL     1      33.726 -11.985 -26.567  0.00  0.00    +0.000 C 
ENDBRANCH   2   4
BRANCH   2  10
ATOM     10  N   UNL     1      32.310 -14.489 -22.424  0.00  0.00    -0.256 N 
ATOM     11  H   UNL     1      31.762 -15.280 -22.215  0.00  0.00    +0.171 HD
BRANCH  10  12
ATOM     12  C   UNL     1      32.019 -13.261 -21.807  0.00  0.00    +0.062 C 
ATOM     13  C   UNL     1      31.536 -12.191 -22.565  0.00  0.00    +0.016 C 
ATOM     14  C   UNL     1      32.210 -13.102 -20.431  0.00  0.00    +0.016 C 
ATOM     15  C   UNL     1      31.247 -10.971 -21.952  0.00  0.00    +0.001 C 
ATOM     16  C   UNL     1      31.922 -11.883 -19.819  0.00  0.00    +0.001 C 
ATOM     17  C   UNL     1      31.440 -10.817 -20.579  0.00  0.00    +0.000 C 
ENDBRANCH  10  12
ENDBRANCH   2  10
BRANCH   3  18
ATOM     18  C   UNL     1      34.058 -16.535 -21.879  0.00  0.00    +0.177 C 
BRANCH  18  20
ATOM     19  O   UNL     1      34.833 -14.931 -20.224  0.00  0.00    -0.250 OA
ATOM     20  C   UNL     1      34.881 -16.062 -20.691  0.00  0.00    +0.322 C 
BRANCH  20  21
ATOM     21  O   UNL     1      35.679 -17.037 -20.185  0.00  0.00    -0.480 OA
ATOM     22  H   UNL     1      36.281 -16.838 -19.497  0.00  0.00    +0.295 HD
ENDBRANCH  20  21
ENDBRANCH  18  20
BRANCH  18  23
ATOM     23  C   UNL     1      34.431 -17.995 -22.210  0.00  0.00    +0.020 C 
BRANCH  23  24
ATOM     24  C   UNL     1      33.488 -19.018 -21.566  0.00  0.00    +0.001 C 
BRANCH  24  25
ATOM     25  C   UNL     1      34.267 -20.057 -20.757  0.00  0.00    +0.000 C 
ATOM     26  C   UNL     1      33.347 -20.870 -19.862  0.00  0.00    +0.000 C 
ENDBRANCH  24  25
ENDBRANCH  23  24
ENDBRANCH  18  23
ENDBRANCH   3  18
TORSDOF 9
ENDMDL
MODEL 3
REMARK VINA RESULT:      -7.4      1.985      5.434
REMARK  Name = 19161
REMARK  9 active torsions:
REMARK  status: ('A' for Active; 'I' for Inactive)
REMARK    1  A    between atoms: N_2  and  C_4
REMARK    2  A    between atoms: N_2  and  N_10
REMARK    3  A    between atoms: C_3  and  C_18
REMARK    4  A    between atoms: N_10  and  C_12
REMARK    5  A    between atoms: C_18  and  C_20
REMARK    6  A    between atoms: C_18  and  C_23
REMARK    7  A    between atoms: C_20  and  O_21
REMARK    8  A    between atoms: C_23  and  C_24
REMARK    9  A    between atoms: C_24  and  C_25
REMARK                            x       y       z     vdW  Elec       q    Type
REMARK                         _______ _______ _______ _____ _____    ______ ____
ROOT
ATOM      1  O   UNL     1      34.196 -23.982 -12.099  0.00  0.00    -0.272 OA
ATOM      2  N   UNL     1      33.960 -24.288 -14.403  0.00  0.00    -0.188 N 
ATOM      3  C   UNL     1      34.681 -24.264 -13.198  0.00  0.00    +0.255 C 
ENDROOT
BRANCH   2   4
ATOM      4  C   UNL     1      32.545 -24.031 -14.427  0.00  0.00    +0.073 C 
ATOM      5  C   UNL     1      32.118 -22.738 -14.602  0.00  0.00    +0.017 C 
ATOM      6  C   UNL     1      31.685 -25.092 -14.275  0.00  0.00    +0.017 C 
ATOM      7  C   UNL     1      30.745 -22.488 -14.626  0.00  0.00    +0.001 C 
ATOM      8  C   UNL     1      30.312 -24.843 -14.299  0.00  0.00    +0.001 C 
ATOM      9  C   UNL     1      29.843 -23.541 -14.475  0.00  0.00    +0.000 C 
ENDBRANCH   2   4
BRANCH   2  10
ATOM     10  N   UNL     1      34.657 -24.568 -15.567  0.00  0.00    -0.256 N 
ATOM     11  H   UNL     1      35.157 -25.413 -15.642  0.00  0.00    +0.171 HD
BRANCH  10  12
ATOM     12  C   UNL     1      34.663 -23.662 -16.641  0.00  0.00    +0.062 C 
ATOM     13  C   UNL     1      33.595 -23.632 -17.541  0.00  0.00    +0.016 C 
ATOM     14  C   UNL     1      35.738 -22.786 -16.816  0.00  0.00    +0.016 C 
ATOM     15  C   UNL     1      33.601 -22.732 -18.608  0.00  0.00    +0.001 C 
ATOM     16  C   UNL     1      35.744 -21.888 -17.883  0.00  0.00    +0.001 C 
ATOM     17  C   UNL     1      34.676 -21.860 -18.779  0.00  0.00    +0.000 C 
ENDBRANCH  10  12
ENDBRANCH   2  10
BRANCH   3  18
ATOM     18  C   UNL     1      36.196 -24.556 -13.294  0.00  0.00    +0.177 C 
BRANCH  18  20
ATOM     19  O   UNL     1      36.943 -26.394 -11.887  0.00  0.00    -0.250 OA
ATOM     20  C   UNL     1      36.707 -25.198 -12.013  0.00  0.00    +0.322 C 
BRANCH  20  21
ATOM     21  O   UNL     1      36.887 -24.300 -11.012  0.00  0.00    -0.480 OA
ATOM     22  H   UNL     1      37.470 -23.577 -11.131  0.00  0.00    +0.295 HD
ENDBRANCH  20  21
ENDBRANCH  18  20
BRANCH  18  23
ATOM     23  C   UNL     1      36.977 -23.252 -13.558  0.00  0.00    +0.020 C 
BRANCH  23  24
ATOM     24  C   UNL     1      38.094 -23.419 -14.595  0.00  0.00    +0.001 C 
BRANCH  24  25
ATOM     25  C   UNL     1      38.312 -24.893 -14.942  0.00  0.00    +0.000 C 
ATOM     26  C   UNL     1      39.657 -25.390 -14.440  0.00  0.00    +0.000 C 
ENDBRANCH  24  25
ENDBRANCH  23  24
ENDBRANCH  18  23
ENDBRANCH   3  18
TORSDOF 9
ENDMDL
MODEL 4
REMARK VINA RESULT:      -7.3      1.898      5.711
REMARK  Name = 19161
REMARK  9 active torsions:
REMARK  status: ('A' for Active; 'I' for Inactive)
REMARK    1  A    between atoms: N_2  and  C_4
REMARK    2  A    between atoms: N_2  and  N_10
REMARK    3  A    between atoms: C_3  and  C_18
REMARK    4  A    between atoms: N_10  and  C_12
REMARK    5  A    between atoms: C_18  and  C_20
REMARK    6  A    between atoms: C_18  and  C_23
REMARK    7  A    between atoms: C_20  and  O_21
REMARK    8  A    between atoms: C_23  and  C_24
REMARK    9  A    between atoms: C_24  and  C_25
REMARK                            x       y       z     vdW  Elec       q    Type
REMARK                         _______ _______ _______ _____ _____    ______ ____
ROOT
ATOM      1  O   UNL     1      32.985 -23.414 -14.109  0.00  0.00    -0.272 OA
ATOM      2  N   UNL     1      32.485 -23.731 -16.368  0.00  0.00    -0.188 N 
ATOM      3  C   UNL     1      33.350 -23.637 -15.266  0.00  0.00    +0.255 C 
ENDROOT
BRANCH   2   4
ATOM      4  C   UNL     1      31.060 -23.628 -16.205  0.00  0.00    +0.073 C 
ATOM      5  C   UNL     1      30.455 -22.426 -16.481  0.00  0.00    +0.017 C 
ATOM      6  C   UNL     1      30.368 -24.737 -15.782  0.00  0.00    +0.017 C 
ATOM      7  C   UNL     1      29.073 -22.325 -16.324  0.00  0.00    +0.001 C 
ATOM      8  C   UNL     1      28.986 -24.637 -15.624  0.00  0.00    +0.001 C 
ATOM      9  C   UNL     1      28.338 -23.432 -15.895  0.00  0.00    +0.000 C 
ENDBRANCH   2   4
BRANCH   2  10
ATOM     10  N   UNL     1      33.051 -23.927 -17.618  0.00  0.00    -0.256 N 
ATOM     11  H   UNL     1      33.170 -24.843 -17.959  0.00  0.00    +0.171 HD
BRANCH  10  12
ATOM     12  C   UNL     1      33.459 -22.837 -18.405  0.00  0.00    +0.062 C 
ATOM     13  C   UNL     1      34.796 -22.710 -18.792  0.00  0.00    +0.016 C 
ATOM     14  C   UNL     1      32.530 -21.872 -18.805  0.00  0.00    +0.016 C 
ATOM     15  C   UNL     1      35.201 -21.627 -19.574  0.00  0.00    +0.001 C 
ATOM     16  C   UNL     1      32.935 -20.790 -19.586  0.00  0.00    +0.001 C 
ATOM     17  C   UNL     1      34.270 -20.667 -19.970  0.00  0.00    +0.000 C 
ENDBRANCH  10  12
ENDBRANCH   2  10
BRANCH   3  18
ATOM     18  C   UNL     1      34.863 -23.763 -15.561  0.00  0.00    +0.177 C 
BRANCH  18  20
ATOM     19  O   UNL     1      35.980 -25.915 -15.740  0.00  0.00    -0.250 OA
ATOM     20  C   UNL     1      35.408 -25.085 -15.044  0.00  0.00    +0.322 C 
BRANCH  20  21
ATOM     21  O   UNL     1      35.203 -25.251 -13.713  0.00  0.00    -0.480 OA
ATOM     22  H   UNL     1      34.832 -26.048 -13.392  0.00  0.00    +0.295 HD
ENDBRANCH  20  21
ENDBRANCH  18  20
BRANCH  18  23
ATOM     23  C   UNL     1      35.635 -22.599 -14.905  0.00  0.00    +0.020 C 
BRANCH  23  24
ATOM     24  C   UNL     1      37.157 -22.766 -14.986  0.00  0.00    +0.001 C 
BRANCH  24  25
ATOM     25  C   UNL     1      37.669 -22.505 -16.403  0.00  0.00    +0.000 C 
ATOM     26  C   UNL     1      37.391 -21.076 -16.841  0.00  0.00    +0.000 C 
ENDBRANCH  24  25
ENDBRANCH  23  24
ENDBRANCH  18  23
ENDBRANCH   3  18
TORSDOF 9
ENDMDL
MODEL 5
REMARK VINA RESULT:      -7.1      1.785      5.567
REMARK  Name = 19161
REMARK  9 active torsions:
REMARK  status: ('A' for Active; 'I' for Inactive)
REMARK    1  A    between atoms: N_2  and  C_4
REMARK    2  A    between atoms: N_2  and  N_10
REMARK    3  A    between atoms: C_3  and  C_18
REMARK    4  A    between atoms: N_10  and  C_12
REMARK    5  A    between atoms: C_18  and  C_20
REMARK    6  A    between atoms: C_18  and  C_23
REMARK    7  A    between atoms: C_20  and  O_21
REMARK    8  A    between atoms: C_23  and  C_24
REMARK    9  A    between atoms: C_24  and  C_25
REMARK                            x       y       z     vdW  Elec       q    Type
REMARK                         _______ _______ _______ _____ _____    ______ ____
ROOT
ATOM      1  O   UNL     1      34.594 -26.008 -14.621  0.00  0.00    -0.272 OA
ATOM      2  N   UNL     1      34.673 -23.752 -15.221  0.00  0.00    -0.188 N 
ATOM      3  C   UNL     1      35.236 -25.013 -14.967  0.00  0.00    +0.255 C 
ENDROOT
BRANCH   2   4
ATOM      4  C   UNL     1      33.252 -23.545 -15.148  0.00  0.00    +0.073 C 
ATOM      5  C   UNL     1      32.532 -23.525 -16.318  0.00  0.00    +0.017 C 
ATOM      6  C   UNL     1      32.678 -23.378 -13.911  0.00  0.00    +0.017 C 
ATOM      7  C   UNL     1      31.153 -23.324 -16.248  0.00  0.00    +0.001 C 
ATOM      8  C   UNL     1      31.299 -23.178 -13.839  0.00  0.00    +0.001 C 
ATOM      9  C   UNL     1      30.537 -23.151 -15.008  0.00  0.00    +0.000 C 
ENDBRANCH   2   4
BRANCH   2  10
ATOM     10  N   UNL     1      35.533 -22.715 -15.545  0.00  0.00    -0.256 N 
ATOM     11  H   UNL     1      36.036 -22.261 -14.831  0.00  0.00    +0.171 HD
BRANCH  10  12
ATOM     12  C   UNL     1      35.696 -22.301 -16.877  0.00  0.00    +0.062 C 
ATOM     13  C   UNL     1      36.855 -21.625 -17.267  0.00  0.00    +0.016 C 
ATOM     14  C   UNL     1      34.698 -22.562 -17.822  0.00  0.00    +0.016 C 
ATOM     15  C   UNL     1      37.016 -21.214 -18.591  0.00  0.00    +0.001 C 
ATOM     16  C   UNL     1      34.860 -22.150 -19.144  0.00  0.00    +0.001 C 
ATOM     17  C   UNL     1      36.018 -21.476 -19.529  0.00  0.00    +0.000 C 
ENDBRANCH  10  12
ENDBRANCH   2  10
BRANCH   3  18
ATOM     18  C   UNL     1      36.775 -25.118 -15.075  0.00  0.00    +0.177 C 
BRANCH  18  20
ATOM     19  O   UNL     1      38.051 -27.150 -14.682  0.00  0.00    -0.250 OA
ATOM     20  C   UNL     1      37.204 -26.553 -15.336  0.00  0.00    +0.322 C 
BRANCH  20  21
ATOM     21  O   UNL     1      36.539 -27.118 -16.374  0.00  0.00    -0.480 OA
ATOM     22  H   UNL     1      35.714 -26.770 -16.648  0.00  0.00    +0.295 HD
ENDBRANCH  20  21
ENDBRANCH  18  20
BRANCH  18  23
ATOM     23  C   UNL     1      37.439 -24.613 -13.777  0.00  0.00    +0.020 C 
BRANCH  23  24
ATOM     24  C   UNL     1      36.712 -25.077 -12.510  0.00  0.00    +0.001 C 
BRANCH  24  25
ATOM     25  C   UNL     1      36.577 -23.937 -11.500  0.00  0.00    +0.000 C 
ATOM     26  C   UNL     1      37.487 -22.771 -11.851  0.00  0.00    +0.000 C 
ENDBRANCH  24  25
ENDBRANCH  23  24
ENDBRANCH  18  23
ENDBRANCH   3  18
TORSDOF 9
ENDMDL
MODEL 6
REMARK VINA RESULT:      -7.0     12.030     14.525
REMARK  Name = 19161
REMARK  9 active torsions:
REMARK  status: ('A' for Active; 'I' for Inactive)
REMARK    1  A    between atoms: N_2  and  C_4
REMARK    2  A    between atoms: N_2  and  N_10
REMARK    3  A    between atoms: C_3  and  C_18
REMARK    4  A    between atoms: N_10  and  C_12
REMARK    5  A    between atoms: C_18  and  C_20
REMARK    6  A    between atoms: C_18  and  C_23
REMARK    7  A    between atoms: C_20  and  O_21
REMARK    8  A    between atoms: C_23  and  C_24
REMARK    9  A    between atoms: C_24  and  C_25
REMARK                            x       y       z     vdW  Elec       q    Type
REMARK                         _______ _______ _______ _____ _____    ______ ____
ROOT
ATOM      1  O   UNL     1      34.519 -14.327 -24.517  0.00  0.00    -0.272 OA
ATOM      2  N   UNL     1      32.836 -13.535 -23.104  0.00  0.00    -0.188 N 
ATOM      3  C   UNL     1      33.543 -13.601 -24.316  0.00  0.00    +0.255 C 
ENDROOT
BRANCH   2   4
ATOM      4  C   UNL     1      33.182 -14.383 -21.996  0.00  0.00    +0.073 C 
ATOM      5  C   UNL     1      34.449 -14.293 -21.473  0.00  0.00    +0.017 C 
ATOM      6  C   UNL     1      32.229 -15.244 -21.508  0.00  0.00    +0.017 C 
ATOM      7  C   UNL     1      34.785 -15.116 -20.397  0.00  0.00    +0.001 C 
ATOM      8  C   UNL     1      32.564 -16.067 -20.433  0.00  0.00    +0.001 C 
ATOM      9  C   UNL     1      33.842 -16.003 -19.877  0.00  0.00    +0.000 C 
ENDBRANCH   2   4
BRANCH   2  10
ATOM     10  N   UNL     1      31.795 -12.625 -23.013  0.00  0.00    -0.256 N 
ATOM     11  H   UNL     1      31.049 -12.675 -23.654  0.00  0.00    +0.171 HD
BRANCH  10  12
ATOM     12  C   UNL     1      31.788 -11.632 -22.019  0.00  0.00    +0.062 C 
ATOM     13  C   UNL     1      31.552 -11.974 -20.685  0.00  0.00    +0.016 C 
ATOM     14  C   UNL     1      32.019 -10.296 -22.359  0.00  0.00    +0.016 C 
ATOM     15  C   UNL     1      31.545 -10.987 -19.698  0.00  0.00    +0.001 C 
ATOM     16  C   UNL     1      32.012  -9.310 -21.372  0.00  0.00    +0.001 C 
ATOM     17  C   UNL     1      31.775  -9.655 -20.042  0.00  0.00    +0.000 C 
ENDBRANCH  10  12
ENDBRANCH   2  10
BRANCH   3  18
ATOM     18  C   UNL     1      33.081 -12.642 -25.438  0.00  0.00    +0.177 C 
BRANCH  18  20
ATOM     19  O   UNL     1      33.078 -12.994 -27.844  0.00  0.00    -0.250 OA
ATOM     20  C   UNL     1      32.801 -13.404 -26.723  0.00  0.00    +0.322 C 
BRANCH  20  21
ATOM     21  O   UNL     1      32.213 -14.607 -26.501  0.00  0.00    -0.480 OA
ATOM     22  H   UNL     1      31.429 -14.658 -25.991  0.00  0.00    +0.295 HD
ENDBRANCH  20  21
ENDBRANCH  18  20
BRANCH  18  23
ATOM     23  C   UNL     1      34.160 -11.571 -25.704  0.00  0.00    +0.020 C 
BRANCH  23  24
ATOM     24  C   UNL     1      34.502 -10.740 -24.462  0.00  0.00    +0.001 C 
BRANCH  24  25
ATOM     25  C   UNL     1      35.086  -9.380 -24.849  0.00  0.00    +0.000 C 
ATOM     26  C   UNL     1      34.760  -8.319 -23.812  0.00  0.00    +0.000 C 
ENDBRANCH  24  25
ENDBRANCH  23  24
ENDBRANCH  18  23
ENDBRANCH   3  18
TORSDOF 9
ENDMDL
MODEL 7
REMARK VINA RESULT:      -6.8     12.854     15.747
REMARK  Name = 19161
REMARK  9 active torsions:
REMARK  status: ('A' for Active; 'I' for Inactive)
REMARK    1  A    between atoms: N_2  and  C_4
REMARK    2  A    between atoms: N_2  and  N_10
REMARK    3  A    between atoms: C_3  and  C_18
REMARK    4  A    between atoms: N_10  and  C_12
REMARK    5  A    between atoms: C_18  and  C_20
REMARK    6  A    between atoms: C_18  and  C_23
REMARK    7  A    between atoms: C_20  and  O_21
REMARK    8  A    between atoms: C_23  and  C_24
REMARK    9  A    between atoms: C_24  and  C_25
REMARK                            x       y       z     vdW  Elec       q    Type
REMARK                         _______ _______ _______ _____ _____    ______ ____
ROOT
ATOM      1  O   UNL     1      34.395 -11.525 -25.152  0.00  0.00    -0.272 OA
ATOM      2  N   UNL     1      32.789 -10.763 -23.637  0.00  0.00    -0.188 N 
ATOM      3  C   UNL     1      33.481 -11.751 -24.355  0.00  0.00    +0.255 C 
ENDROOT
BRANCH   2   4
ATOM      4  C   UNL     1      33.152  -9.376 -23.745  0.00  0.00    +0.073 C 
ATOM      5  C   UNL     1      34.468  -9.027 -23.561  0.00  0.00    +0.017 C 
ATOM      6  C   UNL     1      32.166  -8.461 -24.028  0.00  0.00    +0.017 C 
ATOM      7  C   UNL     1      34.821  -7.682 -23.666  0.00  0.00    +0.001 C 
ATOM      8  C   UNL     1      32.518  -7.115 -24.133  0.00  0.00    +0.001 C 
ATOM      9  C   UNL     1      33.845  -6.726 -23.952  0.00  0.00    +0.000 C 
ENDBRANCH   2   4
BRANCH   2  10
ATOM     10  N   UNL     1      31.744 -11.169 -22.822  0.00  0.00    -0.256 N 
ATOM     11  H   UNL     1      31.013 -11.707 -23.202  0.00  0.00    +0.171 HD
BRANCH  10  12
ATOM     12  C   UNL     1      31.714 -10.823 -21.460  0.00  0.00    +0.062 C 
ATOM     13  C   UNL     1      31.889  -9.494 -21.068  0.00  0.00    +0.016 C 
ATOM     14  C   UNL     1      31.510 -11.808 -20.489  0.00  0.00    +0.016 C 
ATOM     15  C   UNL     1      31.860  -9.151 -19.716  0.00  0.00    +0.001 C 
ATOM     16  C   UNL     1      31.482 -11.465 -19.138  0.00  0.00    +0.001 C 
ATOM     17  C   UNL     1      31.656 -10.136 -18.751  0.00  0.00    +0.000 C 
ENDBRANCH  10  12
ENDBRANCH   2  10
BRANCH   3  18
ATOM     18  C   UNL     1      33.003 -13.209 -24.161  0.00  0.00    +0.177 C 
BRANCH  18  20
ATOM     19  O   UNL     1      32.883 -14.272 -21.978  0.00  0.00    -0.250 OA
ATOM     20  C   UNL     1      33.566 -13.798 -22.877  0.00  0.00    +0.322 C 
BRANCH  20  21
ATOM     21  O   UNL     1      34.921 -13.754 -22.831  0.00  0.00    -0.480 OA
ATOM     22  H   UNL     1      35.355 -12.976 -22.543  0.00  0.00    +0.295 HD
ENDBRANCH  20  21
ENDBRANCH  18  20
BRANCH  18  23
ATOM     23  C   UNL     1      33.439 -14.080 -25.358  0.00  0.00    +0.020 C 
BRANCH  23  24
ATOM     24  C   UNL     1      33.287 -15.582 -25.096  0.00  0.00    +0.001 C 
BRANCH  24  25
ATOM     25  C   UNL     1      34.595 -16.327 -25.367  0.00  0.00    +0.000 C 
ATOM     26  C   UNL     1      34.594 -17.705 -24.726  0.00  0.00    +0.000 C 
ENDBRANCH  24  25
ENDBRANCH  23  24
ENDBRANCH  18  23
ENDBRANCH   3  18
TORSDOF 9
ENDMDL
MODEL 8
REMARK VINA RESULT:      -6.8      2.705      5.473
REMARK  Name = 19161
REMARK  9 active torsions:
REMARK  status: ('A' for Active; 'I' for Inactive)
REMARK    1  A    between atoms: N_2  and  C_4
REMARK    2  A    between atoms: N_2  and  N_10
REMARK    3  A    between atoms: C_3  and  C_18
REMARK    4  A    between atoms: N_10  and  C_12
REMARK    5  A    between atoms: C_18  and  C_20
REMARK    6  A    between atoms: C_18  and  C_23
REMARK    7  A    between atoms: C_20  and  O_21
REMARK    8  A    between atoms: C_23  and  C_24
REMARK    9  A    between atoms: C_24  and  C_25
REMARK                            x       y       z     vdW  Elec       q    Type
REMARK                         _______ _______ _______ _____ _____    ______ ____
ROOT
ATOM      1  O   UNL     1      36.862 -22.400 -17.131  0.00  0.00    -0.272 OA
ATOM      2  N   UNL     1      34.859 -23.249 -16.280  0.00  0.00    -0.188 N 
ATOM      3  C   UNL     1      35.638 -22.535 -17.205  0.00  0.00    +0.255 C 
ENDROOT
BRANCH   2   4
ATOM      4  C   UNL     1      35.467 -23.942 -15.177  0.00  0.00    +0.073 C 
ATOM      5  C   UNL     1      35.614 -23.275 -13.985  0.00  0.00    +0.017 C 
ATOM      6  C   UNL     1      35.871 -25.242 -15.364  0.00  0.00    +0.017 C 
ATOM      7  C   UNL     1      36.203 -23.948 -12.914  0.00  0.00    +0.001 C 
ATOM      8  C   UNL     1      36.459 -25.916 -14.293  0.00  0.00    +0.001 C 
ATOM      9  C   UNL     1      36.625 -25.269 -13.069  0.00  0.00    +0.000 C 
ENDBRANCH   2   4
BRANCH   2  10
ATOM     10  N   UNL     1      33.486 -23.262 -16.467  0.00  0.00    -0.256 N 
ATOM     11  H   UNL     1      33.116 -23.080 -17.361  0.00  0.00    +0.171 HD
BRANCH  10  12
ATOM     12  C   UNL     1      32.615 -23.531 -15.398  0.00  0.00    +0.062 C 
ATOM     13  C   UNL     1      32.449 -24.840 -14.938  0.00  0.00    +0.016 C 
ATOM     14  C   UNL     1      31.907 -22.490 -14.789  0.00  0.00    +0.016 C 
ATOM     15  C   UNL     1      31.583 -25.107 -13.877  0.00  0.00    +0.001 C 
ATOM     16  C   UNL     1      31.041 -22.758 -13.729  0.00  0.00    +0.001 C 
ATOM     17  C   UNL     1      30.879 -24.065 -13.273  0.00  0.00    +0.000 C 
ENDBRANCH  10  12
ENDBRANCH   2  10
BRANCH   3  18
ATOM     18  C   UNL     1      34.877 -21.829 -18.351  0.00  0.00    +0.177 C 
BRANCH  18  20
ATOM     19  O   UNL     1      34.099 -23.851 -19.455  0.00  0.00    -0.250 OA
ATOM     20  C   UNL     1      33.842 -22.757 -18.968  0.00  0.00    +0.322 C 
BRANCH  20  21
ATOM     21  O   UNL     1      32.585 -22.248 -18.915  0.00  0.00    -0.480 OA
ATOM     22  H   UNL     1      31.979 -22.561 -18.274  0.00  0.00    +0.295 HD
ENDBRANCH  20  21
ENDBRANCH  18  20
BRANCH  18  23
ATOM     23  C   UNL     1      35.863 -21.365 -19.444  0.00  0.00    +0.020 C 
BRANCH  23  24
ATOM     24  C   UNL     1      35.223 -20.428 -20.474  0.00  0.00    +0.001 C 
BRANCH  24  25
ATOM     25  C   UNL     1      36.165 -19.281 -20.841  0.00  0.00    +0.000 C 
ATOM     26  C   UNL     1      35.398 -18.002 -21.133  0.00  0.00    +0.000 C 
ENDBRANCH  24  25
ENDBRANCH  23  24
ENDBRANCH  18  23
ENDBRANCH   3  18
TORSDOF 9
ENDMDL
MODEL 9
REMARK VINA RESULT:      -6.8     10.362     13.270
REMARK  Name = 19161
REMARK  9 active torsions:
REMARK  status: ('A' for Active; 'I' for Inactive)
REMARK    1  A    between atoms: N_2  and  C_4
REMARK    2  A    between atoms: N_2  and  N_10
REMARK    3  A    between atoms: C_3  and  C_18
REMARK    4  A    between atoms: N_10  and  C_12
REMARK    5  A    between atoms: C_18  and  C_20
REMARK    6  A    between atoms: C_18  and  C_23
REMARK    7  A    between atoms: C_20  and  O_21
REMARK    8  A    between atoms: C_23  and  C_24
REMARK    9  A    between atoms: C_24  and  C_25
REMARK                            x       y       z     vdW  Elec       q    Type
REMARK                         _______ _______ _______ _____ _____    ______ ____
ROOT
ATOM      1  O   UNL     1      33.927 -14.452 -20.351  0.00  0.00    -0.272 OA
ATOM      2  N   UNL     1      32.558 -13.764 -22.114  0.00  0.00    -0.188 N 
ATOM      3  C   UNL     1      33.431 -14.651 -21.462  0.00  0.00    +0.255 C 
ENDROOT
BRANCH   2   4
ATOM      4  C   UNL     1      32.126 -12.548 -21.481  0.00  0.00    +0.073 C 
ATOM      5  C   UNL     1      31.988 -12.534 -20.115  0.00  0.00    +0.017 C 
ATOM      6  C   UNL     1      31.873 -11.453 -22.272  0.00  0.00    +0.017 C 
ATOM      7  C   UNL     1      31.569 -11.354 -19.500  0.00  0.00    +0.001 C 
ATOM      8  C   UNL     1      31.454 -10.272 -21.658  0.00  0.00    +0.001 C 
ATOM      9  C   UNL     1      31.303 -10.223 -20.272  0.00  0.00    +0.000 C 
ENDBRANCH   2   4
BRANCH   2  10
ATOM     10  N   UNL     1      32.129 -14.101 -23.388  0.00  0.00    -0.256 N 
ATOM     11  H   UNL     1      31.371 -14.721 -23.496  0.00  0.00    +0.171 HD
BRANCH  10  12
ATOM     12  C   UNL     1      32.760 -13.573 -24.527  0.00  0.00    +0.062 C 
ATOM     13  C   UNL     1      33.524 -12.407 -24.430  0.00  0.00    +0.016 C 
ATOM     14  C   UNL     1      32.626 -14.210 -25.764  0.00  0.00    +0.016 C 
ATOM     15  C   UNL     1      34.150 -11.883 -25.561  0.00  0.00    +0.001 C 
ATOM     16  C   UNL     1      33.252 -13.685 -26.894  0.00  0.00    +0.001 C 
ATOM     17  C   UNL     1      34.014 -12.522 -26.793  0.00  0.00    +0.000 C 
ENDBRANCH  10  12
ENDBRANCH   2  10
BRANCH   3  18
ATOM     18  C   UNL     1      33.827 -15.928 -22.240  0.00  0.00    +0.177 C 
BRANCH  18  20
ATOM     19  O   UNL     1      33.579 -18.109 -21.195  0.00  0.00    -0.250 OA
ATOM     20  C   UNL     1      34.193 -17.053 -21.285  0.00  0.00    +0.322 C 
BRANCH  20  21
ATOM     21  O   UNL     1      35.290 -16.770 -20.538  0.00  0.00    -0.480 OA
ATOM     22  H   UNL     1      35.945 -16.189 -20.869  0.00  0.00    +0.295 HD
ENDBRANCH  20  21
ENDBRANCH  18  20
BRANCH  18  23
ATOM     23  C   UNL     1      35.022 -15.638 -23.171  0.00  0.00    +0.020 C 
BRANCH  23  24
ATOM     24  C   UNL     1      35.511 -16.879 -23.927  0.00  0.00    +0.001 C 
BRANCH  24  25
ATOM     25  C   UNL     1      34.521 -17.289 -25.018  0.00  0.00    +0.000 C 
ATOM     26  C   UNL     1      34.227 -18.779 -24.973  0.00  0.00    +0.000 C 
ENDBRANCH  24  25
ENDBRANCH  23  24
ENDBRANCH  18  23
ENDBRANCH   3  18
TORSDOF 9
ENDMDL
