MODEL 1
REMARK VINA RESULT:      -7.5      0.000      0.000
REMARK  Name = 8271
REMARK  2 active torsions:
REMARK  status: ('A' for Active; 'I' for Inactive)
REMARK    1  A    between atoms: C_6  and  C_12
REMARK    2  A    between atoms: C_6  and  C_18
REMARK                            x       y       z     vdW  Elec       q    Type
REMARK                         _______ _______ _______ _____ _____    ______ ____
ROOT
ATOM      1  O   UNL     1      38.294 -23.821 -13.508  0.00  0.00    -0.274 OA
ATOM      2  O   UNL     1      33.869 -24.888 -14.347  0.00  0.00    -0.274 OA
ATOM      3  O   UNL     1      37.158 -27.690 -15.821  0.00  0.00    -0.252 OA
ATOM      4  N   UNL     1      37.807 -25.703 -14.784  0.00  0.00    -0.212 N 
ATOM      5  N   UNL     1      35.538 -26.218 -15.173  0.00  0.00    -0.239 N 
ATOM      6  C   UNL     1      36.098 -23.920 -14.527  0.00  0.00    +0.157 C 
ATOM      7  C   UNL     1      37.496 -24.466 -14.194  0.00  0.00    +0.244 C 
ATOM      8  C   UNL     1      35.055 -25.035 -14.643  0.00  0.00    +0.241 C 
ATOM      9  C   UNL     1      36.867 -26.604 -15.313  0.00  0.00    +0.316 C 
ATOM     10  C   UNL     1      39.197 -26.141 -14.740  0.00  0.00    +0.124 C 
ATOM     11  H   UNL     1      34.862 -26.863 -15.486  0.00  0.00    +0.159 HD
ENDROOT
BRANCH   6  12
ATOM     12  C   UNL     1      36.099 -23.092 -15.831  0.00  0.00    -0.006 C 
ATOM     13  C   UNL     1      37.208 -22.321 -16.153  0.00  0.00    -0.003 C 
ATOM     14  C   UNL     1      34.990 -23.126 -16.667  0.00  0.00    -0.003 C 
ATOM     15  C   UNL     1      37.210 -21.572 -17.330  0.00  0.00    -0.000 C 
ATOM     16  C   UNL     1      34.991 -22.379 -17.844  0.00  0.00    -0.000 C 
ATOM     17  C   UNL     1      36.101 -21.602 -18.176  0.00  0.00    -0.000 C 
ENDBRANCH   6  12
BRANCH   6  18
ATOM     18  C   UNL     1      35.686 -22.995 -13.355  0.00  0.00    +0.022 C 
ATOM     19  C   UNL     1      35.582 -23.769 -12.059  0.00  0.00    +0.001 C 
ENDBRANCH   6  18
TORSDOF 2
ENDMDL
MODEL 2
REMARK VINA RESULT:      -7.2      1.521      2.449
REMARK  Name = 8271
REMARK  2 active torsions:
REMARK  status: ('A' for Active; 'I' for Inactive)
REMARK    1  A    between atoms: C_6  and  C_12
REMARK    2  A    between atoms: C_6  and  C_18
REMARK                            x       y       z     vdW  Elec       q    Type
REMARK                         _______ _______ _______ _____ _____    ______ ____
ROOT
ATOM      1  O   UNL     1      35.671 -23.424 -12.453  0.00  0.00    -0.274 OA
ATOM      2  O   UNL     1      35.718 -26.579 -15.839  0.00  0.00    -0.274 OA
ATOM      3  O   UNL     1      39.543 -25.782 -13.479  0.00  0.00    -0.252 OA
ATOM      4  N   UNL     1      37.676 -24.469 -12.997  0.00  0.00    -0.212 N 
ATOM      5  N   UNL     1      37.650 -26.083 -14.718  0.00  0.00    -0.239 N 
ATOM      6  C   UNL     1      35.813 -24.461 -14.638  0.00  0.00    +0.157 C 
ATOM      7  C   UNL     1      36.350 -24.079 -13.249  0.00  0.00    +0.244 C 
ATOM      8  C   UNL     1      36.353 -25.812 -15.115  0.00  0.00    +0.241 C 
ATOM      9  C   UNL     1      38.381 -25.448 -13.719  0.00  0.00    +0.316 C 
ATOM     10  C   UNL     1      38.334 -23.904 -11.824  0.00  0.00    +0.124 C 
ATOM     11  H   UNL     1      38.109 -26.811 -15.197  0.00  0.00    +0.159 HD
ENDROOT
BRANCH   6  12
ATOM     12  C   UNL     1      36.139 -23.385 -15.697  0.00  0.00    -0.006 C 
ATOM     13  C   UNL     1      35.289 -23.211 -16.783  0.00  0.00    -0.003 C 
ATOM     14  C   UNL     1      37.277 -22.602 -15.553  0.00  0.00    -0.003 C 
ATOM     15  C   UNL     1      35.583 -22.239 -17.739  0.00  0.00    -0.000 C 
ATOM     16  C   UNL     1      37.570 -21.630 -16.509  0.00  0.00    -0.000 C 
ATOM     17  C   UNL     1      36.723 -21.449 -17.602  0.00  0.00    -0.000 C 
ENDBRANCH   6  12
BRANCH   6  18
ATOM     18  C   UNL     1      34.273 -24.575 -14.508  0.00  0.00    +0.022 C 
ATOM     19  C   UNL     1      33.613 -23.222 -14.650  0.00  0.00    +0.001 C 
ENDBRANCH   6  18
TORSDOF 2
ENDMDL
MODEL 3
REMARK VINA RESULT:      -6.9      2.066      2.830
REMARK  Name = 8271
REMARK  2 active torsions:
REMARK  status: ('A' for Active; 'I' for Inactive)
REMARK    1  A    between atoms: C_6  and  C_12
REMARK    2  A    between atoms: C_6  and  C_18
REMARK                            x       y       z     vdW  Elec       q    Type
REMARK                         _______ _______ _______ _____ _____    ______ ____
ROOT
ATOM      1  O   UNL     1      38.058 -22.792 -14.279  0.00  0.00    -0.274 OA
ATOM      2  O   UNL     1      35.819 -25.489 -11.258  0.00  0.00    -0.274 OA
ATOM      3  O   UNL     1      38.147 -27.423 -14.675  0.00  0.00    -0.252 OA
ATOM      4  N   UNL     1      38.038 -25.093 -14.616  0.00  0.00    -0.212 N 
ATOM      5  N   UNL     1      36.898 -26.431 -13.042  0.00  0.00    -0.239 N 
ATOM      6  C   UNL     1      36.317 -24.052 -13.160  0.00  0.00    +0.157 C 
ATOM      7  C   UNL     1      37.564 -23.899 -14.047  0.00  0.00    +0.244 C 
ATOM      8  C   UNL     1      36.326 -25.364 -12.373  0.00  0.00    +0.241 C 
ATOM      9  C   UNL     1      37.714 -26.385 -14.167  0.00  0.00    +0.316 C 
ATOM     10  C   UNL     1      39.034 -24.986 -15.676  0.00  0.00    +0.124 C 
ATOM     11  H   UNL     1      36.707 -27.326 -12.678  0.00  0.00    +0.159 HD
ENDROOT
BRANCH   6  12
ATOM     12  C   UNL     1      35.012 -23.965 -13.983  0.00  0.00    -0.006 C 
ATOM     13  C   UNL     1      33.800 -24.283 -13.382  0.00  0.00    -0.003 C 
ATOM     14  C   UNL     1      35.063 -23.570 -15.313  0.00  0.00    -0.003 C 
ATOM     15  C   UNL     1      32.621 -24.205 -14.123  0.00  0.00    -0.000 C 
ATOM     16  C   UNL     1      33.885 -23.492 -16.055  0.00  0.00    -0.000 C 
ATOM     17  C   UNL     1      32.664 -23.809 -15.460  0.00  0.00    -0.000 C 
ENDBRANCH   6  12
BRANCH   6  18
ATOM     18  C   UNL     1      36.341 -22.880 -12.147  0.00  0.00    +0.022 C 
ATOM     19  C   UNL     1      37.656 -22.829 -11.403  0.00  0.00    +0.001 C 
ENDBRANCH   6  18
TORSDOF 2
ENDMDL
MODEL 4
REMARK VINA RESULT:      -6.7      1.780      4.345
REMARK  Name = 8271
REMARK  2 active torsions:
REMARK  status: ('A' for Active; 'I' for Inactive)
REMARK    1  A    between atoms: C_6  and  C_12
REMARK    2  A    between atoms: C_6  and  C_18
REMARK                            x       y       z     vdW  Elec       q    Type
REMARK                         _______ _______ _______ _____ _____    ______ ____
ROOT
ATOM      1  O   UNL     1      38.740 -23.194 -15.671  0.00  0.00    -0.274 OA
ATOM      2  O   UNL     1      35.807 -26.724 -15.078  0.00  0.00    -0.274 OA
ATOM      3  O   UNL     1      34.255 -22.803 -16.826  0.00  0.00    -0.252 OA
ATOM      4  N   UNL     1      36.486 -22.882 -16.148  0.00  0.00    -0.212 N 
ATOM      5  N   UNL     1      35.029 -24.714 -15.847  0.00  0.00    -0.239 N 
ATOM      6  C   UNL     1      37.180 -24.753 -14.670  0.00  0.00    +0.157 C 
ATOM      7  C   UNL     1      37.567 -23.556 -15.554  0.00  0.00    +0.244 C 
ATOM      8  C   UNL     1      35.970 -25.512 -15.221  0.00  0.00    +0.241 C 
ATOM      9  C   UNL     1      35.190 -23.407 -16.295  0.00  0.00    +0.316 C 
ATOM     10  C   UNL     1      36.755 -21.589 -16.765  0.00  0.00    +0.124 C 
ATOM     11  H   UNL     1      34.143 -25.119 -15.994  0.00  0.00    +0.159 HD
ENDROOT
BRANCH   6  12
ATOM     12  C   UNL     1      36.885 -24.323 -13.215  0.00  0.00    -0.006 C 
ATOM     13  C   UNL     1      37.463 -23.164 -12.713  0.00  0.00    -0.003 C 
ATOM     14  C   UNL     1      36.047 -25.099 -12.426  0.00  0.00    -0.003 C 
ATOM     15  C   UNL     1      37.198 -22.774 -11.400  0.00  0.00    -0.000 C 
ATOM     16  C   UNL     1      35.781 -24.710 -11.114  0.00  0.00    -0.000 C 
ATOM     17  C   UNL     1      36.356 -23.548 -10.601  0.00  0.00    -0.000 C 
ENDBRANCH   6  12
BRANCH   6  18
ATOM     18  C   UNL     1      38.393 -25.717 -14.663  0.00  0.00    +0.022 C 
ATOM     19  C   UNL     1      39.193 -25.576 -13.387  0.00  0.00    +0.001 C 
ENDBRANCH   6  18
TORSDOF 2
ENDMDL
MODEL 5
REMARK VINA RESULT:      -6.7      1.727      3.470
REMARK  Name = 8271
REMARK  2 active torsions:
REMARK  status: ('A' for Active; 'I' for Inactive)
REMARK    1  A    between atoms: C_6  and  C_12
REMARK    2  A    between atoms: C_6  and  C_18
REMARK                            x       y       z     vdW  Elec       q    Type
REMARK                         _______ _______ _______ _____ _____    ______ ____
ROOT
ATOM      1  O   UNL     1      35.100 -25.025 -12.902  0.00  0.00    -0.274 OA
ATOM      2  O   UNL     1      39.065 -25.971 -15.092  0.00  0.00    -0.274 OA
ATOM      3  O   UNL     1      39.124 -23.189 -11.474  0.00  0.00    -0.252 OA
ATOM      4  N   UNL     1      37.052 -23.967 -12.213  0.00  0.00    -0.212 N 
ATOM      5  N   UNL     1      39.054 -24.493 -13.346  0.00  0.00    -0.239 N 
ATOM      6  C   UNL     1      36.933 -24.962 -14.484  0.00  0.00    +0.157 C 
ATOM      7  C   UNL     1      36.264 -24.686 -13.128  0.00  0.00    +0.244 C 
ATOM      8  C   UNL     1      38.435 -25.221 -14.346  0.00  0.00    +0.241 C 
ATOM      9  C   UNL     1      38.448 -23.818 -12.291  0.00  0.00    +0.316 C 
ATOM     10  C   UNL     1      36.392 -23.435 -11.026  0.00  0.00    +0.124 C 
ATOM     11  H   UNL     1      40.037 -24.447 -13.385  0.00  0.00    +0.159 HD
ENDROOT
BRANCH   6  12
ATOM     12  C   UNL     1      36.711 -23.803 -15.482  0.00  0.00    -0.006 C 
ATOM     13  C   UNL     1      37.772 -22.970 -15.813  0.00  0.00    -0.003 C 
ATOM     14  C   UNL     1      35.453 -23.606 -16.037  0.00  0.00    -0.003 C 
ATOM     15  C   UNL     1      37.572 -21.923 -16.713  0.00  0.00    -0.000 C 
ATOM     16  C   UNL     1      35.253 -22.561 -16.937  0.00  0.00    -0.000 C 
ATOM     17  C   UNL     1      36.312 -21.719 -17.276  0.00  0.00    -0.000 C 
ENDBRANCH   6  12
BRANCH   6  18
ATOM     18  C   UNL     1      36.273 -26.240 -15.059  0.00  0.00    +0.022 C 
ATOM     19  C   UNL     1      36.825 -27.483 -14.397  0.00  0.00    +0.001 C 
ENDBRANCH   6  18
TORSDOF 2
ENDMDL
MODEL 6
REMARK VINA RESULT:      -6.6      6.779      9.227
REMARK  Name = 8271
REMARK  2 active torsions:
REMARK  status: ('A' for Active; 'I' for Inactive)
REMARK    1  A    between atoms: C_6  and  C_12
REMARK    2  A    between atoms: C_6  and  C_18
REMARK                            x       y       z     vdW  Elec       q    Type
REMARK                         _______ _______ _______ _____ _____    ______ ____
ROOT
ATOM      1  O   UNL     1      32.777 -20.192 -21.867  0.00  0.00    -0.274 OA
ATOM      2  O   UNL     1      36.815 -18.131 -22.798  0.00  0.00    -0.274 OA
ATOM      3  O   UNL     1      36.371 -20.529 -18.939  0.00  0.00    -0.252 OA
ATOM      4  N   UNL     1      34.487 -20.294 -20.295  0.00  0.00    -0.212 N 
ATOM      5  N   UNL     1      36.534 -19.244 -20.818  0.00  0.00    -0.239 N 
ATOM      6  C   UNL     1      34.533 -18.533 -22.045  0.00  0.00    +0.157 C 
ATOM      7  C   UNL     1      33.845 -19.761 -21.426  0.00  0.00    +0.244 C 
ATOM      8  C   UNL     1      36.059 -18.620 -21.958  0.00  0.00    +0.241 C 
ATOM      9  C   UNL     1      35.822 -20.045 -19.932  0.00  0.00    +0.316 C 
ATOM     10  C   UNL     1      33.753 -21.273 -19.502  0.00  0.00    +0.124 C 
ATOM     11  H   UNL     1      37.487 -19.105 -20.611  0.00  0.00    +0.159 HD
ENDROOT
BRANCH   6  12
ATOM     12  C   UNL     1      34.065 -17.217 -21.384  0.00  0.00    -0.006 C 
ATOM     13  C   UNL     1      34.993 -16.223 -21.101  0.00  0.00    -0.003 C 
ATOM     14  C   UNL     1      32.721 -17.041 -21.080  0.00  0.00    -0.003 C 
ATOM     15  C   UNL     1      34.571 -15.035 -20.504  0.00  0.00    -0.000 C 
ATOM     16  C   UNL     1      32.298 -15.854 -20.484  0.00  0.00    -0.000 C 
ATOM     17  C   UNL     1      33.223 -14.851 -20.196  0.00  0.00    -0.000 C 
ENDBRANCH   6  12
BRANCH   6  18
ATOM     18  C   UNL     1      34.135 -18.502 -23.541  0.00  0.00    +0.022 C 
ATOM     19  C   UNL     1      34.831 -19.601 -24.313  0.00  0.00    +0.001 C 
ENDBRANCH   6  18
TORSDOF 2
ENDMDL
MODEL 7
REMARK VINA RESULT:      -6.5      6.893      9.105
REMARK  Name = 8271
REMARK  2 active torsions:
REMARK  status: ('A' for Active; 'I' for Inactive)
REMARK    1  A    between atoms: C_6  and  C_12
REMARK    2  A    between atoms: C_6  and  C_18
REMARK                            x       y       z     vdW  Elec       q    Type
REMARK                         _______ _______ _______ _____ _____    ______ ____
ROOT
ATOM      1  O   UNL     1      36.580 -18.949 -20.393  0.00  0.00    -0.274 OA
ATOM      2  O   UNL     1      32.392 -17.003 -20.686  0.00  0.00    -0.274 OA
ATOM      3  O   UNL     1      32.719 -21.533 -20.237  0.00  0.00    -0.252 OA
ATOM      4  N   UNL     1      34.699 -20.315 -20.440  0.00  0.00    -0.212 N 
ATOM      5  N   UNL     1      32.583 -19.280 -20.573  0.00  0.00    -0.239 N 
ATOM      6  C   UNL     1      34.542 -17.983 -21.277  0.00  0.00    +0.157 C 
ATOM      7  C   UNL     1      35.381 -19.104 -20.642  0.00  0.00    +0.244 C 
ATOM      8  C   UNL     1      33.087 -18.012 -20.804  0.00  0.00    +0.241 C 
ATOM      9  C   UNL     1      33.301 -20.462 -20.423  0.00  0.00    +0.316 C 
ATOM     10  C   UNL     1      35.496 -21.490 -20.105  0.00  0.00    +0.124 C 
ATOM     11  H   UNL     1      31.603 -19.354 -20.507  0.00  0.00    +0.159 HD
ENDROOT
BRANCH   6  12
ATOM     12  C   UNL     1      34.571 -18.046 -22.821  0.00  0.00    -0.006 C 
ATOM     13  C   UNL     1      34.652 -19.279 -23.455  0.00  0.00    -0.003 C 
ATOM     14  C   UNL     1      34.517 -16.870 -23.558  0.00  0.00    -0.003 C 
ATOM     15  C   UNL     1      34.679 -19.338 -24.849  0.00  0.00    -0.000 C 
ATOM     16  C   UNL     1      34.543 -16.928 -24.950  0.00  0.00    -0.000 C 
ATOM     17  C   UNL     1      34.624 -18.161 -25.596  0.00  0.00    -0.000 C 
ENDBRANCH   6  12
BRANCH   6  18
ATOM     18  C   UNL     1      35.170 -16.641 -20.827  0.00  0.00    +0.022 C 
ATOM     19  C   UNL     1      34.113 -15.569 -20.673  0.00  0.00    +0.001 C 
ENDBRANCH   6  18
TORSDOF 2
ENDMDL
MODEL 8
REMARK VINA RESULT:      -6.4     15.933     18.141
REMARK  Name = 8271
REMARK  2 active torsions:
REMARK  status: ('A' for Active; 'I' for Inactive)
REMARK    1  A    between atoms: C_6  and  C_12
REMARK    2  A    between atoms: C_6  and  C_18
REMARK                            x       y       z     vdW  Elec       q    Type
REMARK                         _______ _______ _______ _____ _____    ______ ____
ROOT
ATOM      1  O   UNL     1      33.830 -10.014 -23.622  0.00  0.00    -0.274 OA
ATOM      2  O   UNL     1      33.209  -7.302 -19.924  0.00  0.00    -0.274 OA
ATOM      3  O   UNL     1      30.518 -10.944 -20.496  0.00  0.00    -0.252 OA
ATOM      4  N   UNL     1      32.070 -10.466 -22.171  0.00  0.00    -0.212 N 
ATOM      5  N   UNL     1      31.801  -9.068 -20.290  0.00  0.00    -0.239 N 
ATOM      6  C   UNL     1      33.100  -8.207 -22.183  0.00  0.00    +0.157 C 
ATOM      7  C   UNL     1      33.068  -9.646 -22.724  0.00  0.00    +0.244 C 
ATOM      8  C   UNL     1      32.744  -8.141 -20.696  0.00  0.00    +0.241 C 
ATOM      9  C   UNL     1      31.387 -10.208 -20.970  0.00  0.00    +0.316 C 
ATOM     10  C   UNL     1      31.804 -11.740 -22.828  0.00  0.00    +0.124 C 
ATOM     11  H   UNL     1      31.374  -8.901 -19.418  0.00  0.00    +0.159 HD
ENDROOT
BRANCH   6  12
ATOM     12  C   UNL     1      32.152  -7.274 -22.970  0.00  0.00    -0.006 C 
ATOM     13  C   UNL     1      32.082  -5.928 -22.637  0.00  0.00    -0.003 C 
ATOM     14  C   UNL     1      31.381  -7.792 -24.003  0.00  0.00    -0.003 C 
ATOM     15  C   UNL     1      31.227  -5.085 -23.348  0.00  0.00    -0.000 C 
ATOM     16  C   UNL     1      30.526  -6.950 -24.714  0.00  0.00    -0.000 C 
ATOM     17  C   UNL     1      30.449  -5.597 -24.386  0.00  0.00    -0.000 C 
ENDBRANCH   6  12
BRANCH   6  18
ATOM     18  C   UNL     1      34.552  -7.694 -22.356  0.00  0.00    +0.022 C 
ATOM     19  C   UNL     1      34.822  -7.298 -23.790  0.00  0.00    +0.001 C 
ENDBRANCH   6  18
TORSDOF 2
ENDMDL
MODEL 9
REMARK VINA RESULT:      -6.4     16.099     17.642
REMARK  Name = 8271
REMARK  2 active torsions:
REMARK  status: ('A' for Active; 'I' for Inactive)
REMARK    1  A    between atoms: C_6  and  C_12
REMARK    2  A    between atoms: C_6  and  C_18
REMARK                            x       y       z     vdW  Elec       q    Type
REMARK                         _______ _______ _______ _____ _____    ______ ____
ROOT
ATOM      1  O   UNL     1      31.587  -6.536 -21.989  0.00  0.00    -0.274 OA
ATOM      2  O   UNL     1      30.375 -10.964 -22.575  0.00  0.00    -0.274 OA
ATOM      3  O   UNL     1      32.527  -9.728 -18.744  0.00  0.00    -0.252 OA
ATOM      4  N   UNL     1      32.206  -8.100 -20.384  0.00  0.00    -0.212 N 
ATOM      5  N   UNL     1      31.553 -10.343 -20.714  0.00  0.00    -0.239 N 
ATOM      6  C   UNL     1      31.602  -8.862 -22.668  0.00  0.00    +0.157 C 
ATOM      7  C   UNL     1      31.769  -7.712 -21.661  0.00  0.00    +0.244 C 
ATOM      8  C   UNL     1      31.092 -10.142 -22.003  0.00  0.00    +0.241 C 
ATOM      9  C   UNL     1      32.145  -9.408 -19.872  0.00  0.00    +0.316 C 
ATOM     10  C   UNL     1      32.648  -7.049 -19.474  0.00  0.00    +0.124 C 
ATOM     11  H   UNL     1      31.449 -11.252 -20.351  0.00  0.00    +0.159 HD
ENDROOT
BRANCH   6  12
ATOM     12  C   UNL     1      32.920  -9.171 -23.413  0.00  0.00    -0.006 C 
ATOM     13  C   UNL     1      33.086 -10.403 -24.031  0.00  0.00    -0.003 C 
ATOM     14  C   UNL     1      33.925  -8.212 -23.457  0.00  0.00    -0.003 C 
ATOM     15  C   UNL     1      34.276 -10.683 -24.704  0.00  0.00    -0.000 C 
ATOM     16  C   UNL     1      35.114  -8.491 -24.129  0.00  0.00    -0.000 C 
ATOM     17  C   UNL     1      35.289  -9.726 -24.753  0.00  0.00    -0.000 C 
ENDBRANCH   6  12
BRANCH   6  18
ATOM     18  C   UNL     1      30.546  -8.402 -23.704  0.00  0.00    +0.022 C 
ATOM     19  C   UNL     1      31.066  -7.250 -24.536  0.00  0.00    +0.001 C 
ENDBRANCH   6  18
TORSDOF 2
ENDMDL
