MODEL 1
REMARK VINA RESULT:     -10.5      0.000      0.000
REMARK  Name = 11256720
REMARK  3 active torsions:
REMARK  status: ('A' for Active; 'I' for Inactive)
REMARK    1  A    between atoms: C_2  and  N_11
REMARK    2  A    between atoms: C_6  and  S_19
REMARK    3  A    between atoms: S_19  and  C_22
REMARK                            x       y       z     vdW  Elec       q    Type
REMARK                         _______ _______ _______ _____ _____    ______ ____
ROOT
ATOM      1  N   UNL     1      34.652 -15.715 -23.630  0.00  0.00    -0.245 NA
ATOM      2  C   UNL     1      33.323 -13.894 -22.889  0.00  0.00    +0.120 C 
ATOM      3  C   UNL     1      33.932 -15.125 -22.658  0.00  0.00    +0.074 C 
ATOM      4  C   UNL     1      33.768 -15.718 -21.388  0.00  0.00    -0.001 C 
ATOM      5  C   UNL     1      32.569 -13.253 -21.903  0.00  0.00    -0.009 C 
ATOM      6  C   UNL     1      35.123 -17.567 -22.154  0.00  0.00    +0.129 C 
ATOM      7  C   UNL     1      34.381 -16.957 -21.155  0.00  0.00    +0.018 C 
ATOM      8  C   UNL     1      33.009 -15.073 -20.396  0.00  0.00    +0.053 C 
ATOM      9  C   UNL     1      32.411 -13.844 -20.655  0.00  0.00    -0.024 C 
ATOM     10  C   UNL     1      35.227 -16.911 -23.364  0.00  0.00    +0.117 C 
ENDROOT
BRANCH   2  11
ATOM     11  N   UNL     1      33.456 -13.266 -24.132  0.00  0.00    -0.270 NA
ATOM     12  N   UNL     1      33.478 -11.928 -26.654  0.00  0.00    +0.386 N 
ATOM     13  C   UNL     1      32.740 -13.842 -25.278  0.00  0.00    +0.049 C 
ATOM     14  C   UNL     1      33.696 -11.820 -24.194  0.00  0.00    +0.049 C 
ATOM     15  C   UNL     1      33.375 -13.385 -26.591  0.00  0.00    -0.064 C 
ATOM     16  C   UNL     1      34.296 -11.434 -25.546  0.00  0.00    -0.064 C 
ATOM     17  H   UNL     1      32.545 -11.521 -26.593  0.00  0.00    -0.084 HD
ATOM     18  H   UNL     1      33.916 -11.662 -27.536  0.00  0.00    -0.084 HD
ENDBRANCH   2  11
BRANCH   6  19
ATOM     19  S   UNL     1      35.897 -19.104 -21.893  0.00  0.00    +0.029 S 
ATOM     20  O   UNL     1      37.136 -18.900 -21.150  0.00  0.00    -0.164 OA
ATOM     21  O   UNL     1      35.937 -19.775 -23.187  0.00  0.00    -0.164 OA
BRANCH  19  22
ATOM     22  C   UNL     1      34.877 -20.078 -20.816  0.00  0.00    +0.110 C 
ATOM     23  C   UNL     1      35.474 -21.017 -19.999  0.00  0.00    +0.019 C 
ATOM     24  C   UNL     1      33.511 -19.872 -20.822  0.00  0.00    +0.019 C 
ATOM     25  C   UNL     1      34.672 -21.783 -19.153  0.00  0.00    +0.001 C 
ATOM     26  C   UNL     1      32.710 -20.639 -19.974  0.00  0.00    +0.001 C 
ATOM     27  C   UNL     1      33.290 -21.594 -19.140  0.00  0.00    +0.000 C 
ENDBRANCH  19  22
ENDBRANCH   6  19
TORSDOF 3
ENDMDL
MODEL 2
REMARK VINA RESULT:      -9.8      4.118      8.167
REMARK  Name = 11256720
REMARK  3 active torsions:
REMARK  status: ('A' for Active; 'I' for Inactive)
REMARK    1  A    between atoms: C_2  and  N_11
REMARK    2  A    between atoms: C_6  and  S_19
REMARK    3  A    between atoms: S_19  and  C_22
REMARK                            x       y       z     vdW  Elec       q    Type
REMARK                         _______ _______ _______ _____ _____    ______ ____
ROOT
ATOM      1  N   UNL     1      33.268 -14.879 -21.718  0.00  0.00    -0.245 NA
ATOM      2  C   UNL     1      33.915 -15.926 -23.747  0.00  0.00    +0.120 C 
ATOM      3  C   UNL     1      33.320 -14.868 -23.063  0.00  0.00    +0.074 C 
ATOM      4  C   UNL     1      32.784 -13.807 -23.822  0.00  0.00    -0.001 C 
ATOM      5  C   UNL     1      33.987 -15.949 -25.142  0.00  0.00    -0.009 C 
ATOM      6  C   UNL     1      32.129 -12.749 -21.749  0.00  0.00    +0.129 C 
ATOM      7  C   UNL     1      32.184 -12.742 -23.135  0.00  0.00    +0.018 C 
ATOM      8  C   UNL     1      32.856 -13.830 -25.225  0.00  0.00    +0.053 C 
ATOM      9  C   UNL     1      33.457 -14.900 -25.882  0.00  0.00    -0.024 C 
ATOM     10  C   UNL     1      32.680 -13.832 -21.094  0.00  0.00    +0.117 C 
ENDROOT
BRANCH   2  11
ATOM     11  N   UNL     1      34.461 -17.003 -23.039  0.00  0.00    -0.270 NA
ATOM     12  N   UNL     1      35.784 -19.175 -21.743  0.00  0.00    +0.386 N 
ATOM     13  C   UNL     1      34.699 -18.258 -23.764  0.00  0.00    +0.049 C 
ATOM     14  C   UNL     1      35.352 -16.747 -21.901  0.00  0.00    +0.049 C 
ATOM     15  C   UNL     1      34.793 -19.430 -22.788  0.00  0.00    -0.064 C 
ATOM     16  C   UNL     1      35.425 -17.973 -20.992  0.00  0.00    -0.064 C 
ATOM     17  H   UNL     1      36.700 -19.044 -22.172  0.00  0.00    -0.084 HD
ATOM     18  H   UNL     1      35.810 -19.972 -21.107  0.00  0.00    -0.084 HD
ENDBRANCH   2  11
BRANCH   6  19
ATOM     19  S   UNL     1      31.393 -11.442 -20.869  0.00  0.00    +0.029 S 
ATOM     20  O   UNL     1      31.745 -11.553 -19.457  0.00  0.00    -0.164 OA
ATOM     21  O   UNL     1      29.989 -11.415 -21.259  0.00  0.00    -0.164 OA
BRANCH  19  22
ATOM     22  C   UNL     1      32.126  -9.915 -21.400  0.00  0.00    +0.110 C 
ATOM     23  C   UNL     1      32.290  -8.897 -20.481  0.00  0.00    +0.019 C 
ATOM     24  C   UNL     1      32.515  -9.783 -22.718  0.00  0.00    +0.019 C 
ATOM     25  C   UNL     1      32.865  -7.697 -20.899  0.00  0.00    +0.001 C 
ATOM     26  C   UNL     1      33.091  -8.583 -23.135  0.00  0.00    +0.001 C 
ATOM     27  C   UNL     1      33.266  -7.539 -22.226  0.00  0.00    +0.000 C 
ENDBRANCH  19  22
ENDBRANCH   6  19
TORSDOF 3
ENDMDL
MODEL 3
REMARK VINA RESULT:      -9.6      6.654     11.327
REMARK  Name = 11256720
REMARK  3 active torsions:
REMARK  status: ('A' for Active; 'I' for Inactive)
REMARK    1  A    between atoms: C_2  and  N_11
REMARK    2  A    between atoms: C_6  and  S_19
REMARK    3  A    between atoms: S_19  and  C_22
REMARK                            x       y       z     vdW  Elec       q    Type
REMARK                         _______ _______ _______ _____ _____    ______ ____
ROOT
ATOM      1  N   UNL     1      35.525 -23.315 -15.904  0.00  0.00    -0.245 NA
ATOM      2  C   UNL     1      34.653 -23.888 -13.773  0.00  0.00    +0.120 C 
ATOM      3  C   UNL     1      34.464 -23.569 -15.116  0.00  0.00    +0.074 C 
ATOM      4  C   UNL     1      33.142 -23.524 -15.607  0.00  0.00    -0.001 C 
ATOM      5  C   UNL     1      33.575 -24.157 -12.926  0.00  0.00    -0.009 C 
ATOM      6  C   UNL     1      34.043 -22.941 -17.774  0.00  0.00    +0.129 C 
ATOM      7  C   UNL     1      32.952 -23.203 -16.958  0.00  0.00    +0.018 C 
ATOM      8  C   UNL     1      32.058 -23.795 -14.755  0.00  0.00    +0.053 C 
ATOM      9  C   UNL     1      32.276 -24.111 -13.417  0.00  0.00    -0.024 C 
ATOM     10  C   UNL     1      35.297 -23.009 -17.202  0.00  0.00    +0.117 C 
ENDROOT
BRANCH   2  11
ATOM     11  N   UNL     1      35.945 -23.945 -13.239  0.00  0.00    -0.270 NA
ATOM     12  N   UNL     1      38.479 -24.182 -11.946  0.00  0.00    +0.386 N 
ATOM     13  C   UNL     1      36.221 -23.182 -12.014  0.00  0.00    +0.049 C 
ATOM     14  C   UNL     1      36.760 -25.149 -13.435  0.00  0.00    +0.049 C 
ATOM     15  C   UNL     1      37.722 -22.933 -11.865  0.00  0.00    -0.064 C 
ATOM     16  C   UNL     1      38.241 -24.832 -13.234  0.00  0.00    -0.064 C 
ATOM     17  H   UNL     1      38.183 -24.805 -11.194  0.00  0.00    -0.084 HD
ATOM     18  H   UNL     1      39.473 -23.976 -11.854  0.00  0.00    -0.084 HD
ENDBRANCH   2  11
BRANCH   6  19
ATOM     19  S   UNL     1      33.837 -22.542 -19.454  0.00  0.00    +0.029 S 
ATOM     20  O   UNL     1      32.525 -21.935 -19.649  0.00  0.00    -0.164 OA
ATOM     21  O   UNL     1      34.196 -23.735 -20.212  0.00  0.00    -0.164 OA
BRANCH  19  22
ATOM     22  C   UNL     1      34.995 -21.267 -19.882  0.00  0.00    +0.110 C 
ATOM     23  C   UNL     1      34.546 -20.162 -20.577  0.00  0.00    +0.019 C 
ATOM     24  C   UNL     1      36.317 -21.411 -19.508  0.00  0.00    +0.019 C 
ATOM     25  C   UNL     1      35.457 -19.160 -20.914  0.00  0.00    +0.001 C 
ATOM     26  C   UNL     1      37.227 -20.408 -19.844  0.00  0.00    +0.001 C 
ATOM     27  C   UNL     1      36.797 -19.283 -20.547  0.00  0.00    +0.000 C 
ENDBRANCH  19  22
ENDBRANCH   6  19
TORSDOF 3
ENDMDL
MODEL 4
REMARK VINA RESULT:      -9.6      1.513      3.057
REMARK  Name = 11256720
REMARK  3 active torsions:
REMARK  status: ('A' for Active; 'I' for Inactive)
REMARK    1  A    between atoms: C_2  and  N_11
REMARK    2  A    between atoms: C_6  and  S_19
REMARK    3  A    between atoms: S_19  and  C_22
REMARK                            x       y       z     vdW  Elec       q    Type
REMARK                         _______ _______ _______ _____ _____    ______ ____
ROOT
ATOM      1  N   UNL     1      33.905 -15.226 -22.126  0.00  0.00    -0.245 NA
ATOM      2  C   UNL     1      32.894 -13.740 -23.676  0.00  0.00    +0.120 C 
ATOM      3  C   UNL     1      33.581 -14.920 -23.395  0.00  0.00    +0.074 C 
ATOM      4  C   UNL     1      33.916 -15.764 -24.475  0.00  0.00    -0.001 C 
ATOM      5  C   UNL     1      32.541 -13.391 -24.981  0.00  0.00    -0.009 C 
ATOM      6  C   UNL     1      34.942 -17.270 -22.886  0.00  0.00    +0.129 C 
ATOM      7  C   UNL     1      34.607 -16.951 -24.194  0.00  0.00    +0.018 C 
ATOM      8  C   UNL     1      33.561 -15.412 -25.788  0.00  0.00    +0.053 C 
ATOM      9  C   UNL     1      32.876 -14.227 -26.039  0.00  0.00    -0.024 C 
ATOM     10  C   UNL     1      34.572 -16.381 -21.897  0.00  0.00    +0.117 C 
ENDROOT
BRANCH   2  11
ATOM     11  N   UNL     1      32.539 -12.870 -22.639  0.00  0.00    -0.270 NA
ATOM     12  N   UNL     1      31.576 -11.094 -20.622  0.00  0.00    +0.386 N 
ATOM     13  C   UNL     1      32.148 -11.499 -22.991  0.00  0.00    +0.049 C 
ATOM     14  C   UNL     1      31.939 -13.407 -21.412  0.00  0.00    +0.049 C 
ATOM     15  C   UNL     1      32.295 -10.573 -21.784  0.00  0.00    -0.064 C 
ATOM     16  C   UNL     1      32.093 -12.414 -20.261  0.00  0.00    -0.064 C 
ATOM     17  H   UNL     1      30.584 -11.170 -20.846  0.00  0.00    -0.084 HD
ATOM     18  H   UNL     1      31.707 -10.458 -19.836  0.00  0.00    -0.084 HD
ENDBRANCH   2  11
BRANCH   6  19
ATOM     19  S   UNL     1      35.798 -18.736 -22.506  0.00  0.00    +0.029 S 
ATOM     20  O   UNL     1      37.030 -18.406 -21.797  0.00  0.00    -0.164 OA
ATOM     21  O   UNL     1      35.865 -19.510 -23.739  0.00  0.00    -0.164 OA
BRANCH  19  22
ATOM     22  C   UNL     1      34.839 -19.668 -21.339  0.00  0.00    +0.110 C 
ATOM     23  C   UNL     1      35.483 -20.560 -20.505  0.00  0.00    +0.019 C 
ATOM     24  C   UNL     1      33.472 -19.478 -21.294  0.00  0.00    +0.019 C 
ATOM     25  C   UNL     1      34.729 -21.293 -19.589  0.00  0.00    +0.001 C 
ATOM     26  C   UNL     1      32.718 -20.211 -20.376  0.00  0.00    +0.001 C 
ATOM     27  C   UNL     1      33.347 -21.119 -19.524  0.00  0.00    +0.000 C 
ENDBRANCH  19  22
ENDBRANCH   6  19
TORSDOF 3
ENDMDL
MODEL 5
REMARK VINA RESULT:      -9.4      5.540     10.037
REMARK  Name = 11256720
REMARK  3 active torsions:
REMARK  status: ('A' for Active; 'I' for Inactive)
REMARK    1  A    between atoms: C_2  and  N_11
REMARK    2  A    between atoms: C_6  and  S_19
REMARK    3  A    between atoms: S_19  and  C_22
REMARK                            x       y       z     vdW  Elec       q    Type
REMARK                         _______ _______ _______ _____ _____    ______ ____
ROOT
ATOM      1  N   UNL     1      32.341 -22.717 -17.554  0.00  0.00    -0.245 NA
ATOM      2  C   UNL     1      31.891 -23.532 -15.371  0.00  0.00    +0.120 C 
ATOM      3  C   UNL     1      32.792 -23.141 -16.359  0.00  0.00    +0.074 C 
ATOM      4  C   UNL     1      34.170 -23.206 -16.063  0.00  0.00    -0.001 C 
ATOM      5  C   UNL     1      32.324 -23.977 -14.120  0.00  0.00    -0.009 C 
ATOM      6  C   UNL     1      34.616 -22.375 -18.289  0.00  0.00    +0.129 C 
ATOM      7  C   UNL     1      35.077 -22.813 -17.056  0.00  0.00    +0.018 C 
ATOM      8  C   UNL     1      34.605 -23.654 -14.804  0.00  0.00    +0.053 C 
ATOM      9  C   UNL     1      33.682 -24.039 -13.836  0.00  0.00    -0.024 C 
ATOM     10  C   UNL     1      33.251 -22.347 -18.485  0.00  0.00    +0.117 C 
ENDROOT
BRANCH   2  11
ATOM     11  N   UNL     1      30.514 -23.485 -15.617  0.00  0.00    -0.270 NA
ATOM     12  N   UNL     1      27.674 -23.525 -15.903  0.00  0.00    +0.386 N 
ATOM     13  C   UNL     1      29.822 -24.745 -15.916  0.00  0.00    +0.049 C 
ATOM     14  C   UNL     1      29.697 -22.446 -14.980  0.00  0.00    +0.049 C 
ATOM     15  C   UNL     1      28.505 -24.474 -16.643  0.00  0.00    -0.064 C 
ATOM     16  C   UNL     1      28.384 -22.257 -15.739  0.00  0.00    -0.064 C 
ATOM     17  H   UNL     1      27.457 -23.911 -14.985  0.00  0.00    -0.084 HD
ATOM     18  H   UNL     1      26.812 -23.360 -16.423  0.00  0.00    -0.084 HD
ENDBRANCH   2  11
BRANCH   6  19
ATOM     19  S   UNL     1      35.718 -21.880 -19.540  0.00  0.00    +0.029 S 
ATOM     20  O   UNL     1      35.695 -22.862 -20.619  0.00  0.00    -0.164 OA
ATOM     21  O   UNL     1      36.980 -21.564 -18.883  0.00  0.00    -0.164 OA
BRANCH  19  22
ATOM     22  C   UNL     1      35.108 -20.384 -20.276  0.00  0.00    +0.110 C 
ATOM     23  C   UNL     1      33.746 -20.228 -20.441  0.00  0.00    +0.019 C 
ATOM     24  C   UNL     1      36.011 -19.414 -20.664  0.00  0.00    +0.019 C 
ATOM     25  C   UNL     1      33.267 -19.052 -21.020  0.00  0.00    +0.001 C 
ATOM     26  C   UNL     1      35.531 -18.238 -21.242  0.00  0.00    +0.001 C 
ATOM     27  C   UNL     1      34.159 -18.058 -21.420  0.00  0.00    +0.000 C 
ENDBRANCH  19  22
ENDBRANCH   6  19
TORSDOF 3
ENDMDL
MODEL 6
REMARK VINA RESULT:      -9.4      6.033     10.975
REMARK  Name = 11256720
REMARK  3 active torsions:
REMARK  status: ('A' for Active; 'I' for Inactive)
REMARK    1  A    between atoms: C_2  and  N_11
REMARK    2  A    between atoms: C_6  and  S_19
REMARK    3  A    between atoms: S_19  and  C_22
REMARK                            x       y       z     vdW  Elec       q    Type
REMARK                         _______ _______ _______ _____ _____    ______ ____
ROOT
ATOM      1  N   UNL     1      36.779 -22.715 -15.997  0.00  0.00    -0.245 NA
ATOM      2  C   UNL     1      35.262 -23.777 -14.513  0.00  0.00    +0.120 C 
ATOM      3  C   UNL     1      35.534 -23.147 -15.726  0.00  0.00    +0.074 C 
ATOM      4  C   UNL     1      34.472 -22.982 -16.640  0.00  0.00    -0.001 C 
ATOM      5  C   UNL     1      33.981 -24.237 -14.198  0.00  0.00    -0.009 C 
ATOM      6  C   UNL     1      36.028 -21.903 -18.143  0.00  0.00    +0.129 C 
ATOM      7  C   UNL     1      34.745 -22.348 -17.860  0.00  0.00    +0.018 C 
ATOM      8  C   UNL     1      33.184 -23.445 -16.323  0.00  0.00    +0.053 C 
ATOM      9  C   UNL     1      32.941 -24.071 -15.104  0.00  0.00    -0.024 C 
ATOM     10  C   UNL     1      37.000 -22.108 -17.186  0.00  0.00    +0.117 C 
ENDROOT
BRANCH   2  11
ATOM     11  N   UNL     1      36.282 -23.964 -13.573  0.00  0.00    -0.270 NA
ATOM     12  N   UNL     1      38.185 -24.450 -11.502  0.00  0.00    +0.386 N 
ATOM     13  C   UNL     1      36.206 -23.214 -12.313  0.00  0.00    +0.049 C 
ATOM     14  C   UNL     1      36.981 -25.252 -13.506  0.00  0.00    +0.049 C 
ATOM     15  C   UNL     1      37.584 -23.126 -11.658  0.00  0.00    -0.064 C 
ATOM     16  C   UNL     1      38.331 -25.093 -12.808  0.00  0.00    -0.064 C 
ATOM     17  H   UNL     1      37.587 -25.024 -10.909  0.00  0.00    -0.084 HD
ATOM     18  H   UNL     1      39.105 -24.350 -11.074  0.00  0.00    -0.084 HD
ENDBRANCH   2  11
BRANCH   6  19
ATOM     19  S   UNL     1      36.397 -21.114 -19.649  0.00  0.00    +0.029 S 
ATOM     20  O   UNL     1      36.682 -22.123 -20.664  0.00  0.00    -0.164 OA
ATOM     21  O   UNL     1      37.394 -20.093 -19.351  0.00  0.00    -0.164 OA
BRANCH  19  22
ATOM     22  C   UNL     1      34.938 -20.286 -20.230  0.00  0.00    +0.110 C 
ATOM     23  C   UNL     1      35.076 -19.115 -20.948  0.00  0.00    +0.019 C 
ATOM     24  C   UNL     1      33.702 -20.834 -19.949  0.00  0.00    +0.019 C 
ATOM     25  C   UNL     1      33.929 -18.463 -21.403  0.00  0.00    +0.001 C 
ATOM     26  C   UNL     1      32.556 -20.182 -20.406  0.00  0.00    +0.001 C 
ATOM     27  C   UNL     1      32.670 -18.997 -21.133  0.00  0.00    +0.000 C 
ENDBRANCH  19  22
ENDBRANCH   6  19
TORSDOF 3
ENDMDL
MODEL 7
REMARK VINA RESULT:      -9.0      3.536      5.158
REMARK  Name = 11256720
REMARK  3 active torsions:
REMARK  status: ('A' for Active; 'I' for Inactive)
REMARK    1  A    between atoms: C_2  and  N_11
REMARK    2  A    between atoms: C_6  and  S_19
REMARK    3  A    between atoms: S_19  and  C_22
REMARK                            x       y       z     vdW  Elec       q    Type
REMARK                         _______ _______ _______ _____ _____    ______ ____
ROOT
ATOM      1  N   UNL     1      33.079 -11.251 -24.470  0.00  0.00    -0.245 NA
ATOM      2  C   UNL     1      32.276 -10.293 -22.453  0.00  0.00    +0.120 C 
ATOM      3  C   UNL     1      32.588 -11.409 -23.227  0.00  0.00    +0.074 C 
ATOM      4  C   UNL     1      32.371 -12.686 -22.668  0.00  0.00    -0.001 C 
ATOM      5  C   UNL     1      31.765 -10.420 -21.159  0.00  0.00    -0.009 C 
ATOM      6  C   UNL     1      33.190 -13.649 -24.728  0.00  0.00    +0.129 C 
ATOM      7  C   UNL     1      32.683 -13.808 -23.447  0.00  0.00    +0.018 C 
ATOM      8  C   UNL     1      31.856 -12.812 -21.367  0.00  0.00    +0.053 C 
ATOM      9  C   UNL     1      31.553 -11.680 -20.615  0.00  0.00    -0.024 C 
ATOM     10  C   UNL     1      33.368 -12.361 -25.189  0.00  0.00    +0.117 C 
ENDROOT
BRANCH   2  11
ATOM     11  N   UNL     1      32.474  -9.005 -22.963  0.00  0.00    -0.270 NA
ATOM     12  N   UNL     1      32.781  -6.288 -23.783  0.00  0.00    +0.386 N 
ATOM     13  C   UNL     1      31.290  -8.179 -23.233  0.00  0.00    +0.049 C 
ATOM     14  C   UNL     1      33.699  -8.271 -22.627  0.00  0.00    +0.049 C 
ATOM     15  C   UNL     1      31.627  -7.069 -24.227  0.00  0.00    -0.064 C 
ATOM     16  C   UNL     1      33.950  -7.156 -23.642  0.00  0.00    -0.064 C 
ATOM     17  H   UNL     1      32.571  -5.857 -22.884  0.00  0.00    -0.084 HD
ATOM     18  H   UNL     1      32.982  -5.567 -24.476  0.00  0.00    -0.084 HD
ENDBRANCH   2  11
BRANCH   6  19
ATOM     19  S   UNL     1      33.589 -15.023 -25.717  0.00  0.00    +0.029 S 
ATOM     20  O   UNL     1      34.661 -14.660 -26.639  0.00  0.00    -0.164 OA
ATOM     21  O   UNL     1      32.330 -15.535 -26.245  0.00  0.00    -0.164 OA
BRANCH  19  22
ATOM     22  C   UNL     1      34.288 -16.285 -24.683  0.00  0.00    +0.110 C 
ATOM     23  C   UNL     1      34.230 -17.600 -25.100  0.00  0.00    +0.019 C 
ATOM     24  C   UNL     1      34.874 -15.920 -23.487  0.00  0.00    +0.019 C 
ATOM     25  C   UNL     1      34.779 -18.592 -24.287  0.00  0.00    +0.001 C 
ATOM     26  C   UNL     1      35.424 -16.913 -22.674  0.00  0.00    +0.001 C 
ATOM     27  C   UNL     1      35.376 -18.248 -23.074  0.00  0.00    +0.000 C 
ENDBRANCH  19  22
ENDBRANCH   6  19
TORSDOF 3
ENDMDL
MODEL 8
REMARK VINA RESULT:      -8.8      1.664      3.092
REMARK  Name = 11256720
REMARK  3 active torsions:
REMARK  status: ('A' for Active; 'I' for Inactive)
REMARK    1  A    between atoms: C_2  and  N_11
REMARK    2  A    between atoms: C_6  and  S_19
REMARK    3  A    between atoms: S_19  and  C_22
REMARK                            x       y       z     vdW  Elec       q    Type
REMARK                         _______ _______ _______ _____ _____    ______ ____
ROOT
ATOM      1  N   UNL     1      34.575 -16.303 -21.723  0.00  0.00    -0.245 NA
ATOM      2  C   UNL     1      33.787 -15.506 -23.815  0.00  0.00    +0.120 C 
ATOM      3  C   UNL     1      34.406 -16.489 -23.045  0.00  0.00    +0.074 C 
ATOM      4  C   UNL     1      34.840 -17.663 -23.695  0.00  0.00    -0.001 C 
ATOM      5  C   UNL     1      33.595 -15.664 -25.189  0.00  0.00    -0.009 C 
ATOM      6  C   UNL     1      35.638 -18.465 -21.559  0.00  0.00    +0.129 C 
ATOM      7  C   UNL     1      35.463 -18.653 -22.922  0.00  0.00    +0.018 C 
ATOM      8  C   UNL     1      34.646 -17.823 -25.078  0.00  0.00    +0.053 C 
ATOM      9  C   UNL     1      34.025 -16.824 -25.822  0.00  0.00    -0.024 C 
ATOM     10  C   UNL     1      35.181 -17.283 -21.013  0.00  0.00    +0.117 C 
ENDROOT
BRANCH   2  11
ATOM     11  N   UNL     1      33.339 -14.323 -23.216  0.00  0.00    -0.270 NA
ATOM     12  N   UNL     1      32.222 -11.921 -22.152  0.00  0.00    +0.386 N 
ATOM     13  C   UNL     1      33.275 -13.111 -24.043  0.00  0.00    +0.049 C 
ATOM     14  C   UNL     1      32.381 -14.387 -22.107  0.00  0.00    +0.049 C 
ATOM     15  C   UNL     1      33.276 -11.861 -23.164  0.00  0.00    -0.064 C 
ATOM     16  C   UNL     1      32.412 -13.092 -21.296  0.00  0.00    -0.064 C 
ATOM     17  H   UNL     1      31.315 -11.985 -22.614  0.00  0.00    -0.084 HD
ATOM     18  H   UNL     1      32.261 -11.079 -21.579  0.00  0.00    -0.084 HD
ENDBRANCH   2  11
BRANCH   6  19
ATOM     19  S   UNL     1      36.406 -19.675 -20.573  0.00  0.00    +0.029 S 
ATOM     20  O   UNL     1      37.064 -19.030 -19.442  0.00  0.00    -0.164 OA
ATOM     21  O   UNL     1      37.186 -20.514 -21.475  0.00  0.00    -0.164 OA
BRANCH  19  22
ATOM     22  C   UNL     1      35.150 -20.696 -19.845  0.00  0.00    +0.110 C 
ATOM     23  C   UNL     1      33.828 -20.460 -20.165  0.00  0.00    +0.019 C 
ATOM     24  C   UNL     1      35.526 -21.702 -18.976  0.00  0.00    +0.019 C 
ATOM     25  C   UNL     1      32.841 -21.262 -19.591  0.00  0.00    +0.001 C 
ATOM     26  C   UNL     1      34.539 -22.504 -18.404  0.00  0.00    +0.001 C 
ATOM     27  C   UNL     1      33.196 -22.284 -18.711  0.00  0.00    +0.000 C 
ENDBRANCH  19  22
ENDBRANCH   6  19
TORSDOF 3
ENDMDL
MODEL 9
REMARK VINA RESULT:      -8.8      7.192      9.896
REMARK  Name = 11256720
REMARK  3 active torsions:
REMARK  status: ('A' for Active; 'I' for Inactive)
REMARK    1  A    between atoms: C_2  and  N_11
REMARK    2  A    between atoms: C_6  and  S_19
REMARK    3  A    between atoms: S_19  and  C_22
REMARK                            x       y       z     vdW  Elec       q    Type
REMARK                         _______ _______ _______ _____ _____    ______ ____
ROOT
ATOM      1  N   UNL     1      33.633 -22.607 -16.988  0.00  0.00    -0.245 NA
ATOM      2  C   UNL     1      35.978 -22.299 -17.177  0.00  0.00    +0.120 C 
ATOM      3  C   UNL     1      34.868 -22.772 -16.480  0.00  0.00    +0.074 C 
ATOM      4  C   UNL     1      35.086 -23.418 -15.245  0.00  0.00    -0.001 C 
ATOM      5  C   UNL     1      37.275 -22.454 -16.680  0.00  0.00    -0.009 C 
ATOM      6  C   UNL     1      32.695 -23.725 -15.064  0.00  0.00    +0.129 C 
ATOM      7  C   UNL     1      33.970 -23.893 -14.543  0.00  0.00    +0.018 C 
ATOM      8  C   UNL     1      36.391 -23.573 -14.745  0.00  0.00    +0.053 C 
ATOM      9  C   UNL     1      37.481 -23.090 -15.463  0.00  0.00    -0.024 C 
ATOM     10  C   UNL     1      32.582 -23.080 -16.279  0.00  0.00    +0.117 C 
ENDROOT
BRANCH   2  11
ATOM     11  N   UNL     1      35.813 -21.652 -18.406  0.00  0.00    -0.270 NA
ATOM     12  N   UNL     1      35.595 -20.533 -21.023  0.00  0.00    +0.386 N 
ATOM     13  C   UNL     1      37.017 -21.201 -19.117  0.00  0.00    +0.049 C 
ATOM     14  C   UNL     1      34.661 -21.982 -19.253  0.00  0.00    +0.049 C 
ATOM     15  C   UNL     1      36.666 -20.106 -20.123  0.00  0.00    -0.064 C 
ATOM     16  C   UNL     1      34.394 -20.860 -20.256  0.00  0.00    -0.064 C 
ATOM     17  H   UNL     1      35.899 -21.356 -21.542  0.00  0.00    -0.084 HD
ATOM     18  H   UNL     1      35.381 -19.774 -21.670  0.00  0.00    -0.084 HD
ENDBRANCH   2  11
BRANCH   6  19
ATOM     19  S   UNL     1      31.291 -24.306 -14.217  0.00  0.00    +0.029 S 
ATOM     20  O   UNL     1      31.190 -23.628 -12.929  0.00  0.00    -0.164 OA
ATOM     21  O   UNL     1      31.352 -25.762 -14.259  0.00  0.00    -0.164 OA
BRANCH  19  22
ATOM     22  C   UNL     1      29.841 -23.805 -15.109  0.00  0.00    +0.110 C 
ATOM     23  C   UNL     1      29.292 -24.671 -16.033  0.00  0.00    +0.019 C 
ATOM     24  C   UNL     1      29.298 -22.560 -14.857  0.00  0.00    +0.019 C 
ATOM     25  C   UNL     1      28.153 -24.277 -16.736  0.00  0.00    +0.001 C 
ATOM     26  C   UNL     1      28.157 -22.167 -15.559  0.00  0.00    +0.001 C 
ATOM     27  C   UNL     1      27.586 -23.025 -16.498  0.00  0.00    +0.000 C 
ENDBRANCH  19  22
ENDBRANCH   6  19
TORSDOF 3
ENDMDL
