MODEL 1
REMARK VINA RESULT:      -9.9      0.000      0.000
REMARK  Name = 5337997
REMARK  6 active torsions:
REMARK  status: ('A' for Active; 'I' for Inactive)
REMARK    1  A    between atoms: N_2  and  N_13
REMARK    2  A    between atoms: C_3  and  C_5
REMARK    3  A    between atoms: C_10  and  O_11
REMARK    4  A    between atoms: N_13  and  C_14
REMARK    5  A    between atoms: C_14  and  C_16
REMARK    6  A    between atoms: C_18  and  N_22
REMARK                            x       y       z     vdW  Elec       q    Type
REMARK                         _______ _______ _______ _____ _____    ______ ____
ROOT
ATOM      1  O   UNL     1      35.324 -22.585 -18.418  0.00  0.00    -0.269 OA
ATOM      2  N   UNL     1      33.039 -22.560 -18.620  0.00  0.00    -0.228 N 
ATOM      3  C   UNL     1      34.313 -22.084 -18.934  0.00  0.00    +0.260 C 
ATOM      4  H   UNL     1      32.240 -22.158 -19.034  0.00  0.00    +0.171 HD
ENDROOT
BRANCH   3   5
ATOM      5  C   UNL     1      34.371 -20.969 -19.868  0.00  0.00    +0.055 C 
ATOM      6  C   UNL     1      35.606 -20.506 -20.322  0.00  0.00    +0.008 C 
ATOM      7  C   UNL     1      33.194 -20.366 -20.308  0.00  0.00    +0.008 C 
ATOM      8  C   UNL     1      35.663 -19.437 -21.216  0.00  0.00    +0.037 C 
ATOM      9  C   UNL     1      33.252 -19.297 -21.203  0.00  0.00    +0.037 C 
ATOM     10  C   UNL     1      34.486 -18.833 -21.657  0.00  0.00    +0.134 C 
BRANCH  10  11
ATOM     11  O   UNL     1      34.541 -17.792 -22.532  0.00  0.00    -0.506 OA
ATOM     12  H   UNL     1      34.098 -17.848 -23.356  0.00  0.00    +0.292 HD
ENDBRANCH  10  11
ENDBRANCH   3   5
BRANCH   2  13
ATOM     13  N   UNL     1      32.914 -23.581 -17.738  0.00  0.00    -0.123 NA
BRANCH  13  14
ATOM     14  C   UNL     1      32.645 -23.203 -16.531  0.00  0.00    +0.176 C 
BRANCH  14  16
ATOM     15  O   UNL     1      30.326 -22.920 -17.006  0.00  0.00    -0.436 OA
ATOM     16  C   UNL     1      31.260 -23.030 -16.058  0.00  0.00    +0.144 C 
ATOM     17  C   UNL     1      30.781 -22.964 -14.806  0.00  0.00    +0.040 C 
ATOM     18  C   UNL     1      29.159 -22.772 -16.326  0.00  0.00    +0.289 C 
ATOM     19  C   UNL     1      29.386 -22.793 -14.969  0.00  0.00    +0.066 C 
BRANCH  18  22
ATOM     20  O   UNL     1      27.440 -21.513 -17.207  0.00  0.00    -0.123 OA
ATOM     21  O   UNL     1      27.557 -23.639 -17.739  0.00  0.00    -0.123 OA
ATOM     22  N   UNL     1      28.016 -22.638 -17.115  0.00  0.00    +0.093 N 
ENDBRANCH  18  22
ENDBRANCH  14  16
ENDBRANCH  13  14
ENDBRANCH   2  13
TORSDOF 6
ENDMDL
MODEL 2
REMARK VINA RESULT:      -9.6      4.393      6.888
REMARK  Name = 5337997
REMARK  6 active torsions:
REMARK  status: ('A' for Active; 'I' for Inactive)
REMARK    1  A    between atoms: N_2  and  N_13
REMARK    2  A    between atoms: C_3  and  C_5
REMARK    3  A    between atoms: C_10  and  O_11
REMARK    4  A    between atoms: N_13  and  C_14
REMARK    5  A    between atoms: C_14  and  C_16
REMARK    6  A    between atoms: C_18  and  N_22
REMARK                            x       y       z     vdW  Elec       q    Type
REMARK                         _______ _______ _______ _____ _____    ______ ____
ROOT
ATOM      1  O   UNL     1      33.780 -23.501 -18.623  0.00  0.00    -0.269 OA
ATOM      2  N   UNL     1      35.377 -22.351 -17.442  0.00  0.00    -0.228 N 
ATOM      3  C   UNL     1      34.490 -22.490 -18.512  0.00  0.00    +0.260 C 
ATOM      4  H   UNL     1      35.937 -21.546 -17.360  0.00  0.00    +0.171 HD
ENDROOT
BRANCH   3   5
ATOM      5  C   UNL     1      34.477 -21.404 -19.481  0.00  0.00    +0.055 C 
ATOM      6  C   UNL     1      35.679 -20.899 -19.976  0.00  0.00    +0.008 C 
ATOM      7  C   UNL     1      33.263 -20.870 -19.913  0.00  0.00    +0.008 C 
ATOM      8  C   UNL     1      35.666 -19.858 -20.904  0.00  0.00    +0.037 C 
ATOM      9  C   UNL     1      33.252 -19.829 -20.842  0.00  0.00    +0.037 C 
ATOM     10  C   UNL     1      34.454 -19.323 -21.338  0.00  0.00    +0.134 C 
BRANCH  10  11
ATOM     11  O   UNL     1      34.442 -18.309 -22.246  0.00  0.00    -0.506 OA
ATOM     12  H   UNL     1      34.609 -18.488 -23.150  0.00  0.00    +0.292 HD
ENDBRANCH  10  11
ENDBRANCH   3   5
BRANCH   2  13
ATOM     13  N   UNL     1      35.455 -23.339 -16.518  0.00  0.00    -0.123 NA
BRANCH  13  14
ATOM     14  C   UNL     1      36.457 -23.222 -15.708  0.00  0.00    +0.176 C 
BRANCH  14  16
ATOM     15  O   UNL     1      38.529 -24.259 -15.145  0.00  0.00    -0.436 OA
ATOM     16  C   UNL     1      37.202 -24.395 -15.215  0.00  0.00    +0.144 C 
ATOM     17  C   UNL     1      36.752 -25.596 -14.821  0.00  0.00    +0.040 C 
ATOM     18  C   UNL     1      38.974 -25.453 -14.673  0.00  0.00    +0.289 C 
ATOM     19  C   UNL     1      37.919 -26.309 -14.456  0.00  0.00    +0.066 C 
BRANCH  18  22
ATOM     20  O   UNL     1      41.041 -24.524 -14.245  0.00  0.00    -0.123 OA
ATOM     21  O   UNL     1      40.922 -26.684 -14.621  0.00  0.00    -0.123 OA
ATOM     22  N   UNL     1      40.356 -25.557 -14.508  0.00  0.00    +0.093 N 
ENDBRANCH  18  22
ENDBRANCH  14  16
ENDBRANCH  13  14
ENDBRANCH   2  13
TORSDOF 6
ENDMDL
MODEL 3
REMARK VINA RESULT:      -9.5      3.297      5.487
REMARK  Name = 5337997
REMARK  6 active torsions:
REMARK  status: ('A' for Active; 'I' for Inactive)
REMARK    1  A    between atoms: N_2  and  N_13
REMARK    2  A    between atoms: C_3  and  C_5
REMARK    3  A    between atoms: C_10  and  O_11
REMARK    4  A    between atoms: N_13  and  C_14
REMARK    5  A    between atoms: C_14  and  C_16
REMARK    6  A    between atoms: C_18  and  N_22
REMARK                            x       y       z     vdW  Elec       q    Type
REMARK                         _______ _______ _______ _____ _____    ______ ____
ROOT
ATOM      1  O   UNL     1      32.690 -22.342 -19.311  0.00  0.00    -0.269 OA
ATOM      2  N   UNL     1      34.583 -22.526 -18.026  0.00  0.00    -0.228 N 
ATOM      3  C   UNL     1      33.849 -21.967 -19.074  0.00  0.00    +0.260 C 
ATOM      4  H   UNL     1      35.502 -22.224 -17.844  0.00  0.00    +0.171 HD
ENDROOT
BRANCH   3   5
ATOM      5  C   UNL     1      34.530 -20.956 -19.869  0.00  0.00    +0.055 C 
ATOM      6  C   UNL     1      33.790 -20.075 -20.658  0.00  0.00    +0.008 C 
ATOM      7  C   UNL     1      35.921 -20.867 -19.840  0.00  0.00    +0.008 C 
ATOM      8  C   UNL     1      34.442 -19.106 -21.419  0.00  0.00    +0.037 C 
ATOM      9  C   UNL     1      36.573 -19.896 -20.602  0.00  0.00    +0.037 C 
ATOM     10  C   UNL     1      35.833 -19.016 -21.391  0.00  0.00    +0.134 C 
BRANCH  10  11
ATOM     11  O   UNL     1      36.470 -18.068 -22.132  0.00  0.00    -0.506 OA
ATOM     12  H   UNL     1      37.104 -17.507 -21.731  0.00  0.00    +0.292 HD
ENDBRANCH  10  11
ENDBRANCH   3   5
BRANCH   2  13
ATOM     13  N   UNL     1      34.014 -23.491 -17.264  0.00  0.00    -0.123 NA
BRANCH  13  14
ATOM     14  C   UNL     1      34.151 -23.304 -15.991  0.00  0.00    +0.176 C 
BRANCH  14  16
ATOM     15  O   UNL     1      35.657 -25.142 -15.798  0.00  0.00    -0.436 OA
ATOM     16  C   UNL     1      35.089 -24.102 -15.181  0.00  0.00    +0.144 C 
ATOM     17  C   UNL     1      35.466 -23.949 -13.902  0.00  0.00    +0.040 C 
ATOM     18  C   UNL     1      36.460 -25.704 -14.857  0.00  0.00    +0.289 C 
ATOM     19  C   UNL     1      36.379 -25.006 -13.673  0.00  0.00    +0.066 C 
BRANCH  18  22
ATOM     20  O   UNL     1      38.198 -27.202 -14.621  0.00  0.00    -0.123 OA
ATOM     21  O   UNL     1      36.803 -27.473 -16.294  0.00  0.00    -0.123 OA
ATOM     22  N   UNL     1      37.176 -26.828 -15.271  0.00  0.00    +0.093 N 
ENDBRANCH  18  22
ENDBRANCH  14  16
ENDBRANCH  13  14
ENDBRANCH   2  13
TORSDOF 6
ENDMDL
MODEL 4
REMARK VINA RESULT:      -9.2      4.019      5.921
REMARK  Name = 5337997
REMARK  6 active torsions:
REMARK  status: ('A' for Active; 'I' for Inactive)
REMARK    1  A    between atoms: N_2  and  N_13
REMARK    2  A    between atoms: C_3  and  C_5
REMARK    3  A    between atoms: C_10  and  O_11
REMARK    4  A    between atoms: N_13  and  C_14
REMARK    5  A    between atoms: C_14  and  C_16
REMARK    6  A    between atoms: C_18  and  N_22
REMARK                            x       y       z     vdW  Elec       q    Type
REMARK                         _______ _______ _______ _____ _____    ______ ____
ROOT
ATOM      1  O   UNL     1      33.888 -23.678 -19.376  0.00  0.00    -0.269 OA
ATOM      2  N   UNL     1      34.667 -22.474 -17.584  0.00  0.00    -0.228 N 
ATOM      3  C   UNL     1      34.253 -22.587 -18.913  0.00  0.00    +0.260 C 
ATOM      4  H   UNL     1      34.956 -21.605 -17.224  0.00  0.00    +0.171 HD
ENDROOT
BRANCH   3   5
ATOM      5  C   UNL     1      34.304 -21.368 -19.708  0.00  0.00    +0.055 C 
ATOM      6  C   UNL     1      33.122 -20.713 -20.052  0.00  0.00    +0.008 C 
ATOM      7  C   UNL     1      35.533 -20.857 -20.123  0.00  0.00    +0.008 C 
ATOM      8  C   UNL     1      33.169 -19.546 -20.814  0.00  0.00    +0.037 C 
ATOM      9  C   UNL     1      35.579 -19.689 -20.884  0.00  0.00    +0.037 C 
ATOM     10  C   UNL     1      34.398 -19.033 -21.229  0.00  0.00    +0.134 C 
BRANCH  10  11
ATOM     11  O   UNL     1      34.444 -17.892 -21.970  0.00  0.00    -0.506 OA
ATOM     12  H   UNL     1      34.922 -17.876 -22.776  0.00  0.00    +0.292 HD
ENDBRANCH  10  11
ENDBRANCH   3   5
BRANCH   2  13
ATOM     13  N   UNL     1      34.667 -23.578 -16.798  0.00  0.00    -0.123 NA
BRANCH  13  14
ATOM     14  C   UNL     1      34.739 -23.321 -15.532  0.00  0.00    +0.176 C 
BRANCH  14  16
ATOM     15  O   UNL     1      36.017 -23.273 -13.520  0.00  0.00    -0.436 OA
ATOM     16  C   UNL     1      35.789 -23.902 -14.676  0.00  0.00    +0.144 C 
ATOM     17  C   UNL     1      36.565 -24.979 -14.878  0.00  0.00    +0.040 C 
ATOM     18  C   UNL     1      37.009 -23.989 -12.928  0.00  0.00    +0.289 C 
ATOM     19  C   UNL     1      37.380 -25.049 -13.723  0.00  0.00    +0.066 C 
BRANCH  18  22
ATOM     20  O   UNL     1      38.338 -22.642 -11.610  0.00  0.00    -0.123 OA
ATOM     21  O   UNL     1      36.894 -23.971 -10.625  0.00  0.00    -0.123 OA
ATOM     22  N   UNL     1      37.427 -23.520 -11.682  0.00  0.00    +0.093 N 
ENDBRANCH  18  22
ENDBRANCH  14  16
ENDBRANCH  13  14
ENDBRANCH   2  13
TORSDOF 6
ENDMDL
MODEL 5
REMARK VINA RESULT:      -9.2      4.570      8.983
REMARK  Name = 5337997
REMARK  6 active torsions:
REMARK  status: ('A' for Active; 'I' for Inactive)
REMARK    1  A    between atoms: N_2  and  N_13
REMARK    2  A    between atoms: C_3  and  C_5
REMARK    3  A    between atoms: C_10  and  O_11
REMARK    4  A    between atoms: N_13  and  C_14
REMARK    5  A    between atoms: C_14  and  C_16
REMARK    6  A    between atoms: C_18  and  N_22
REMARK                            x       y       z     vdW  Elec       q    Type
REMARK                         _______ _______ _______ _____ _____    ______ ____
ROOT
ATOM      1  O   UNL     1      34.396 -19.249 -22.847  0.00  0.00    -0.269 OA
ATOM      2  N   UNL     1      35.277 -17.886 -21.224  0.00  0.00    -0.228 N 
ATOM      3  C   UNL     1      34.761 -19.105 -21.670  0.00  0.00    +0.260 C 
ATOM      4  H   UNL     1      35.565 -17.779 -20.289  0.00  0.00    +0.171 HD
ENDROOT
BRANCH   3   5
ATOM      5  C   UNL     1      34.660 -20.163 -20.675  0.00  0.00    +0.055 C 
ATOM      6  C   UNL     1      35.818 -20.735 -20.148  0.00  0.00    +0.008 C 
ATOM      7  C   UNL     1      33.408 -20.602 -20.248  0.00  0.00    +0.008 C 
ATOM      8  C   UNL     1      35.722 -21.749 -19.196  0.00  0.00    +0.037 C 
ATOM      9  C   UNL     1      33.313 -21.615 -19.295  0.00  0.00    +0.037 C 
ATOM     10  C   UNL     1      34.470 -22.189 -18.768  0.00  0.00    +0.134 C 
BRANCH  10  11
ATOM     11  O   UNL     1      34.376 -23.176 -17.836  0.00  0.00    -0.506 OA
ATOM     12  H   UNL     1      34.987 -23.209 -17.126  0.00  0.00    +0.292 HD
ENDBRANCH  10  11
ENDBRANCH   3   5
BRANCH   2  13
ATOM     13  N   UNL     1      35.374 -16.853 -22.096  0.00  0.00    -0.123 NA
BRANCH  13  14
ATOM     14  C   UNL     1      34.489 -15.928 -21.914  0.00  0.00    +0.176 C 
BRANCH  14  16
ATOM     15  O   UNL     1      33.894 -15.619 -24.202  0.00  0.00    -0.436 OA
ATOM     16  C   UNL     1      34.051 -15.042 -23.008  0.00  0.00    +0.144 C 
ATOM     17  C   UNL     1      33.781 -13.727 -22.994  0.00  0.00    +0.040 C 
ATOM     18  C   UNL     1      33.495 -14.612 -25.022  0.00  0.00    +0.289 C 
ATOM     19  C   UNL     1      33.409 -13.428 -24.326  0.00  0.00    +0.066 C 
BRANCH  18  22
ATOM     20  O   UNL     1      32.735 -16.096 -26.615  0.00  0.00    -0.123 OA
ATOM     21  O   UNL     1      33.572 -14.180 -27.286  0.00  0.00    -0.123 OA
ATOM     22  N   UNL     1      33.261 -14.974 -26.350  0.00  0.00    +0.093 N 
ENDBRANCH  18  22
ENDBRANCH  14  16
ENDBRANCH  13  14
ENDBRANCH   2  13
TORSDOF 6
ENDMDL
MODEL 6
REMARK VINA RESULT:      -9.1      2.260      3.525
REMARK  Name = 5337997
REMARK  6 active torsions:
REMARK  status: ('A' for Active; 'I' for Inactive)
REMARK    1  A    between atoms: N_2  and  N_13
REMARK    2  A    between atoms: C_3  and  C_5
REMARK    3  A    between atoms: C_10  and  O_11
REMARK    4  A    between atoms: N_13  and  C_14
REMARK    5  A    between atoms: C_14  and  C_16
REMARK    6  A    between atoms: C_18  and  N_22
REMARK                            x       y       z     vdW  Elec       q    Type
REMARK                         _______ _______ _______ _____ _____    ______ ____
ROOT
ATOM      1  O   UNL     1      36.424 -19.168 -20.490  0.00  0.00    -0.269 OA
ATOM      2  N   UNL     1      34.405 -20.222 -20.771  0.00  0.00    -0.228 N 
ATOM      3  C   UNL     1      35.399 -19.328 -21.171  0.00  0.00    +0.260 C 
ATOM      4  H   UNL     1      33.594 -20.344 -21.316  0.00  0.00    +0.171 HD
ENDROOT
BRANCH   3   5
ATOM      5  C   UNL     1      35.146 -18.593 -22.401  0.00  0.00    +0.055 C 
ATOM      6  C   UNL     1      34.801 -19.281 -23.565  0.00  0.00    +0.008 C 
ATOM      7  C   UNL     1      35.245 -17.202 -22.416  0.00  0.00    +0.008 C 
ATOM      8  C   UNL     1      34.559 -18.577 -24.744  0.00  0.00    +0.037 C 
ATOM      9  C   UNL     1      35.002 -16.499 -23.596  0.00  0.00    +0.037 C 
ATOM     10  C   UNL     1      34.658 -17.186 -24.760  0.00  0.00    +0.134 C 
BRANCH  10  11
ATOM     11  O   UNL     1      34.418 -16.499 -25.910  0.00  0.00    -0.506 OA
ATOM     12  H   UNL     1      33.895 -15.722 -25.892  0.00  0.00    +0.292 HD
ENDBRANCH  10  11
ENDBRANCH   3   5
BRANCH   2  13
ATOM     13  N   UNL     1      34.569 -20.920 -19.621  0.00  0.00    -0.123 NA
BRANCH  13  14
ATOM     14  C   UNL     1      33.850 -21.993 -19.550  0.00  0.00    +0.176 C 
BRANCH  14  16
ATOM     15  O   UNL     1      32.047 -22.382 -18.040  0.00  0.00    -0.436 OA
ATOM     16  C   UNL     1      33.356 -22.518 -18.265  0.00  0.00    +0.144 C 
ATOM     17  C   UNL     1      34.025 -23.120 -17.268  0.00  0.00    +0.040 C 
ATOM     18  C   UNL     1      31.848 -22.933 -16.814  0.00  0.00    +0.289 C 
ATOM     19  C   UNL     1      33.034 -23.402 -16.297  0.00  0.00    +0.066 C 
BRANCH  18  22
ATOM     20  O   UNL     1      29.613 -22.429 -17.078  0.00  0.00    -0.123 OA
ATOM     21  O   UNL     1      30.257 -23.378 -15.206  0.00  0.00    -0.123 OA
ATOM     22  N   UNL     1      30.531 -22.912 -16.351  0.00  0.00    +0.093 N 
ENDBRANCH  18  22
ENDBRANCH  14  16
ENDBRANCH  13  14
ENDBRANCH   2  13
TORSDOF 6
ENDMDL
MODEL 7
REMARK VINA RESULT:      -9.1      3.097      7.655
REMARK  Name = 5337997
REMARK  6 active torsions:
REMARK  status: ('A' for Active; 'I' for Inactive)
REMARK    1  A    between atoms: N_2  and  N_13
REMARK    2  A    between atoms: C_3  and  C_5
REMARK    3  A    between atoms: C_10  and  O_11
REMARK    4  A    between atoms: N_13  and  C_14
REMARK    5  A    between atoms: C_14  and  C_16
REMARK    6  A    between atoms: C_18  and  N_22
REMARK                            x       y       z     vdW  Elec       q    Type
REMARK                         _______ _______ _______ _____ _____    ______ ____
ROOT
ATOM      1  O   UNL     1      34.878 -22.801 -18.832  0.00  0.00    -0.269 OA
ATOM      2  N   UNL     1      32.701 -22.081 -18.903  0.00  0.00    -0.228 N 
ATOM      3  C   UNL     1      33.781 -22.694 -18.264  0.00  0.00    +0.260 C 
ATOM      4  H   UNL     1      31.832 -22.000 -18.447  0.00  0.00    +0.171 HD
ENDROOT
BRANCH   3   5
ATOM      5  C   UNL     1      33.528 -23.211 -16.928  0.00  0.00    +0.055 C 
ATOM      6  C   UNL     1      32.218 -23.325 -16.462  0.00  0.00    +0.008 C 
ATOM      7  C   UNL     1      34.594 -23.593 -16.114  0.00  0.00    +0.008 C 
ATOM      8  C   UNL     1      31.975 -23.820 -15.181  0.00  0.00    +0.037 C 
ATOM      9  C   UNL     1      34.350 -24.088 -14.833  0.00  0.00    +0.037 C 
ATOM     10  C   UNL     1      33.040 -24.202 -14.367  0.00  0.00    +0.134 C 
BRANCH  10  11
ATOM     11  O   UNL     1      32.803 -24.688 -13.117  0.00  0.00    -0.506 OA
ATOM     12  H   UNL     1      32.478 -24.119 -12.448  0.00  0.00    +0.292 HD
ENDBRANCH  10  11
ENDBRANCH   3   5
BRANCH   2  13
ATOM     13  N   UNL     1      32.863 -21.601 -20.160  0.00  0.00    -0.123 NA
BRANCH  13  14
ATOM     14  C   UNL     1      32.854 -20.309 -20.233  0.00  0.00    +0.176 C 
BRANCH  14  16
ATOM     15  O   UNL     1      33.832 -18.241 -20.905  0.00  0.00    -0.436 OA
ATOM     16  C   UNL     1      34.028 -19.545 -20.693  0.00  0.00    +0.144 C 
ATOM     17  C   UNL     1      35.281 -19.959 -20.938  0.00  0.00    +0.040 C 
ATOM     18  C   UNL     1      35.039 -17.773 -21.315  0.00  0.00    +0.289 C 
ATOM     19  C   UNL     1      35.965 -18.791 -21.352  0.00  0.00    +0.066 C 
BRANCH  18  22
ATOM     20  O   UNL     1      35.286 -16.019 -22.791  0.00  0.00    -0.123 OA
ATOM     21  O   UNL     1      34.937 -15.562 -20.673  0.00  0.00    -0.123 OA
ATOM     22  N   UNL     1      35.090 -16.408 -21.602  0.00  0.00    +0.093 N 
ENDBRANCH  18  22
ENDBRANCH  14  16
ENDBRANCH  13  14
ENDBRANCH   2  13
TORSDOF 6
ENDMDL
MODEL 8
REMARK VINA RESULT:      -9.1      3.584      5.461
REMARK  Name = 5337997
REMARK  6 active torsions:
REMARK  status: ('A' for Active; 'I' for Inactive)
REMARK    1  A    between atoms: N_2  and  N_13
REMARK    2  A    between atoms: C_3  and  C_5
REMARK    3  A    between atoms: C_10  and  O_11
REMARK    4  A    between atoms: N_13  and  C_14
REMARK    5  A    between atoms: C_14  and  C_16
REMARK    6  A    between atoms: C_18  and  N_22
REMARK                            x       y       z     vdW  Elec       q    Type
REMARK                         _______ _______ _______ _____ _____    ______ ____
ROOT
ATOM      1  O   UNL     1      35.464 -17.180 -20.375  0.00  0.00    -0.269 OA
ATOM      2  N   UNL     1      35.849 -19.203 -21.386  0.00  0.00    -0.228 N 
ATOM      3  C   UNL     1      35.454 -17.864 -21.410  0.00  0.00    +0.260 C 
ATOM      4  H   UNL     1      35.839 -19.741 -22.211  0.00  0.00    +0.171 HD
ENDROOT
BRANCH   3   5
ATOM      5  C   UNL     1      35.014 -17.346 -22.697  0.00  0.00    +0.055 C 
ATOM      6  C   UNL     1      34.637 -16.009 -22.816  0.00  0.00    +0.008 C 
ATOM      7  C   UNL     1      34.971 -18.186 -23.809  0.00  0.00    +0.008 C 
ATOM      8  C   UNL     1      34.215 -15.512 -24.049  0.00  0.00    +0.037 C 
ATOM      9  C   UNL     1      34.550 -17.688 -25.042  0.00  0.00    +0.037 C 
ATOM     10  C   UNL     1      34.172 -16.351 -25.162  0.00  0.00    +0.134 C 
BRANCH  10  11
ATOM     11  O   UNL     1      33.763 -15.865 -26.366  0.00  0.00    -0.506 OA
ATOM     12  H   UNL     1      34.290 -15.239 -26.822  0.00  0.00    +0.292 HD
ENDBRANCH  10  11
ENDBRANCH   3   5
BRANCH   2  13
ATOM     13  N   UNL     1      36.247 -19.754 -20.213  0.00  0.00    -0.123 NA
BRANCH  13  14
ATOM     14  C   UNL     1      36.103 -21.038 -20.160  0.00  0.00    +0.176 C 
BRANCH  14  16
ATOM     15  O   UNL     1      35.466 -22.232 -18.198  0.00  0.00    -0.436 OA
ATOM     16  C   UNL     1      35.056 -21.673 -19.339  0.00  0.00    +0.144 C 
ATOM     17  C   UNL     1      33.737 -21.780 -19.561  0.00  0.00    +0.040 C 
ATOM     18  C   UNL     1      34.336 -22.739 -17.637  0.00  0.00    +0.289 C 
ATOM     19  C   UNL     1      33.245 -22.486 -18.437  0.00  0.00    +0.066 C 
BRANCH  18  22
ATOM     20  O   UNL     1      33.546 -23.456 -15.593  0.00  0.00    -0.123 OA
ATOM     21  O   UNL     1      35.631 -23.895 -16.120  0.00  0.00    -0.123 OA
ATOM     22  N   UNL     1      34.510 -23.383 -16.411  0.00  0.00    +0.093 N 
ENDBRANCH  18  22
ENDBRANCH  14  16
ENDBRANCH  13  14
ENDBRANCH   2  13
TORSDOF 6
ENDMDL
MODEL 9
REMARK VINA RESULT:      -9.0      4.646      8.991
REMARK  Name = 5337997
REMARK  6 active torsions:
REMARK  status: ('A' for Active; 'I' for Inactive)
REMARK    1  A    between atoms: N_2  and  N_13
REMARK    2  A    between atoms: C_3  and  C_5
REMARK    3  A    between atoms: C_10  and  O_11
REMARK    4  A    between atoms: N_13  and  C_14
REMARK    5  A    between atoms: C_14  and  C_16
REMARK    6  A    between atoms: C_18  and  N_22
REMARK                            x       y       z     vdW  Elec       q    Type
REMARK                         _______ _______ _______ _____ _____    ______ ____
ROOT
ATOM      1  O   UNL     1      35.306 -17.532 -20.701  0.00  0.00    -0.269 OA
ATOM      2  N   UNL     1      35.021 -18.596 -22.714  0.00  0.00    -0.228 N 
ATOM      3  C   UNL     1      35.022 -18.570 -21.318  0.00  0.00    +0.260 C 
ATOM      4  H   UNL     1      34.795 -19.423 -23.198  0.00  0.00    +0.171 HD
ENDROOT
BRANCH   3   5
ATOM      5  C   UNL     1      34.701 -19.824 -20.652  0.00  0.00    +0.055 C 
ATOM      6  C   UNL     1      33.368 -20.164 -20.417  0.00  0.00    +0.008 C 
ATOM      7  C   UNL     1      35.723 -20.683 -20.251  0.00  0.00    +0.008 C 
ATOM      8  C   UNL     1      33.059 -21.365 -19.778  0.00  0.00    +0.037 C 
ATOM      9  C   UNL     1      35.412 -21.884 -19.613  0.00  0.00    +0.037 C 
ATOM     10  C   UNL     1      34.081 -22.225 -19.377  0.00  0.00    +0.134 C 
BRANCH  10  11
ATOM     11  O   UNL     1      33.779 -23.398 -18.756  0.00  0.00    -0.506 OA
ATOM     12  H   UNL     1      33.726 -23.433 -17.821  0.00  0.00    +0.292 HD
ENDBRANCH  10  11
ENDBRANCH   3   5
BRANCH   2  13
ATOM     13  N   UNL     1      35.337 -17.467 -23.395  0.00  0.00    -0.123 NA
BRANCH  13  14
ATOM     14  C   UNL     1      34.645 -17.294 -24.474  0.00  0.00    +0.176 C 
BRANCH  14  16
ATOM     15  O   UNL     1      33.770 -15.207 -23.725  0.00  0.00    -0.436 OA
ATOM     16  C   UNL     1      33.958 -16.023 -24.765  0.00  0.00    +0.144 C 
ATOM     17  C   UNL     1      33.482 -15.549 -25.928  0.00  0.00    +0.040 C 
ATOM     18  C   UNL     1      33.129 -14.128 -24.245  0.00  0.00    +0.289 C 
ATOM     19  C   UNL     1      32.929 -14.289 -25.596  0.00  0.00    +0.066 C 
BRANCH  18  22
ATOM     20  O   UNL     1      33.226 -11.934 -23.541  0.00  0.00    -0.123 OA
ATOM     21  O   UNL     1      32.133 -13.381 -22.304  0.00  0.00    -0.123 OA
ATOM     22  N   UNL     1      32.820 -13.116 -23.334  0.00  0.00    +0.093 N 
ENDBRANCH  18  22
ENDBRANCH  14  16
ENDBRANCH  13  14
ENDBRANCH   2  13
TORSDOF 6
ENDMDL
