MODEL 1
REMARK VINA RESULT:     -10.4      0.000      0.000
REMARK  Name = 5413034
REMARK  3 active torsions:
REMARK  status: ('A' for Active; 'I' for Inactive)
REMARK    1  A    between atoms: C_4  and  C_12
REMARK    2  A    between atoms: C_8  and  O_18
REMARK    3  A    between atoms: C_9  and  O_20
REMARK                            x       y       z     vdW  Elec       q    Type
REMARK                         _______ _______ _______ _____ _____    ______ ____
ROOT
ATOM      1  O   UNL     1      34.026 -15.575 -24.302  0.00  0.00    -0.418 OA
ATOM      2  O   UNL     1      34.970 -16.916 -25.893  0.00  0.00    -0.244 OA
ATOM      3  C   UNL     1      33.941 -16.350 -21.992  0.00  0.00    +0.038 C 
ATOM      4  C   UNL     1      34.607 -17.598 -22.397  0.00  0.00    +0.009 C 
ATOM      5  C   UNL     1      33.671 -15.379 -22.954  0.00  0.00    +0.185 C 
ATOM      6  C   UNL     1      33.560 -16.089 -20.669  0.00  0.00    +0.006 C 
ATOM      7  C   UNL     1      34.934 -17.752 -23.692  0.00  0.00    +0.082 C 
ATOM      8  C   UNL     1      33.041 -14.175 -22.636  0.00  0.00    +0.203 C 
ATOM      9  C   UNL     1      32.670 -13.931 -21.318  0.00  0.00    +0.171 C 
ATOM     10  C   UNL     1      32.929 -14.886 -20.336  0.00  0.00    +0.040 C 
ATOM     11  C   UNL     1      34.657 -16.735 -24.722  0.00  0.00    +0.346 C 
ENDROOT
BRANCH   4  12
ATOM     12  C   UNL     1      34.959 -18.709 -21.519  0.00  0.00    +0.000 C 
ATOM     13  C   UNL     1      33.969 -19.577 -21.069  0.00  0.00    +0.000 C 
ATOM     14  C   UNL     1      36.286 -18.897 -21.140  0.00  0.00    +0.000 C 
ATOM     15  C   UNL     1      34.306 -20.640 -20.232  0.00  0.00    +0.000 C 
ATOM     16  C   UNL     1      36.623 -19.961 -20.303  0.00  0.00    +0.000 C 
ATOM     17  C   UNL     1      35.634 -20.832 -19.848  0.00  0.00    +0.000 C 
ENDBRANCH   4  12
BRANCH   8  18
ATOM     18  O   UNL     1      32.791 -13.248 -23.601  0.00  0.00    -0.501 OA
ATOM     19  H   UNL     1      32.487 -12.394 -23.363  0.00  0.00    +0.292 HD
ENDBRANCH   8  18
BRANCH   9  20
ATOM     20  O   UNL     1      32.056 -12.765 -20.974  0.00  0.00    -0.503 OA
ATOM     21  H   UNL     1      31.481 -12.342 -21.579  0.00  0.00    +0.292 HD
ENDBRANCH   9  20
TORSDOF 3
ENDMDL
MODEL 2
REMARK VINA RESULT:      -9.7      2.536      6.079
REMARK  Name = 5413034
REMARK  3 active torsions:
REMARK  status: ('A' for Active; 'I' for Inactive)
REMARK    1  A    between atoms: C_4  and  C_12
REMARK    2  A    between atoms: C_8  and  O_18
REMARK    3  A    between atoms: C_9  and  O_20
REMARK                            x       y       z     vdW  Elec       q    Type
REMARK                         _______ _______ _______ _____ _____    ______ ____
ROOT
ATOM      1  O   UNL     1      34.058 -16.267 -24.800  0.00  0.00    -0.418 OA
ATOM      2  O   UNL     1      33.300 -15.457 -26.798  0.00  0.00    -0.244 OA
ATOM      3  C   UNL     1      33.877 -14.873 -22.808  0.00  0.00    +0.038 C 
ATOM      4  C   UNL     1      33.261 -13.812 -23.619  0.00  0.00    +0.009 C 
ATOM      5  C   UNL     1      34.257 -16.065 -23.421  0.00  0.00    +0.185 C 
ATOM      6  C   UNL     1      34.105 -14.741 -21.432  0.00  0.00    +0.006 C 
ATOM      7  C   UNL     1      33.085 -14.037 -24.932  0.00  0.00    +0.082 C 
ATOM      8  C   UNL     1      34.847 -17.111 -22.709  0.00  0.00    +0.203 C 
ATOM      9  C   UNL     1      35.065 -16.964 -21.343  0.00  0.00    +0.171 C 
ATOM     10  C   UNL     1      34.695 -15.781 -20.705  0.00  0.00    +0.040 C 
ATOM     11  C   UNL     1      33.478 -15.292 -25.596  0.00  0.00    +0.346 C 
ENDROOT
BRANCH   4  12
ATOM     12  C   UNL     1      32.810 -12.511 -23.134  0.00  0.00    +0.000 C 
ATOM     13  C   UNL     1      33.350 -11.346 -23.671  0.00  0.00    +0.000 C 
ATOM     14  C   UNL     1      31.839 -12.444 -22.138  0.00  0.00    +0.000 C 
ATOM     15  C   UNL     1      32.917 -10.104 -23.210  0.00  0.00    +0.000 C 
ATOM     16  C   UNL     1      31.406 -11.200 -21.677  0.00  0.00    +0.000 C 
ATOM     17  C   UNL     1      31.945 -10.031 -22.212  0.00  0.00    +0.000 C 
ENDBRANCH   4  12
BRANCH   8  18
ATOM     18  O   UNL     1      35.206 -18.263 -23.341  0.00  0.00    -0.501 OA
ATOM     19  H   UNL     1      34.957 -18.405 -24.233  0.00  0.00    +0.292 HD
ENDBRANCH   8  18
BRANCH   9  20
ATOM     20  O   UNL     1      35.637 -17.965 -20.620  0.00  0.00    -0.503 OA
ATOM     21  H   UNL     1      36.348 -18.456 -20.979  0.00  0.00    +0.292 HD
ENDBRANCH   9  20
TORSDOF 3
ENDMDL
MODEL 3
REMARK VINA RESULT:      -9.5      1.153      3.508
REMARK  Name = 5413034
REMARK  3 active torsions:
REMARK  status: ('A' for Active; 'I' for Inactive)
REMARK    1  A    between atoms: C_4  and  C_12
REMARK    2  A    between atoms: C_8  and  O_18
REMARK    3  A    between atoms: C_9  and  O_20
REMARK                            x       y       z     vdW  Elec       q    Type
REMARK                         _______ _______ _______ _____ _____    ______ ____
ROOT
ATOM      1  O   UNL     1      33.062 -14.403 -22.300  0.00  0.00    -0.418 OA
ATOM      2  O   UNL     1      32.737 -14.076 -20.062  0.00  0.00    -0.244 OA
ATOM      3  C   UNL     1      34.063 -16.492 -23.062  0.00  0.00    +0.038 C 
ATOM      4  C   UNL     1      34.158 -16.944 -21.665  0.00  0.00    +0.009 C 
ATOM      5  C   UNL     1      33.520 -15.239 -23.336  0.00  0.00    +0.185 C 
ATOM      6  C   UNL     1      34.499 -17.271 -24.142  0.00  0.00    +0.006 C 
ATOM      7  C   UNL     1      33.711 -16.122 -20.700  0.00  0.00    +0.082 C 
ATOM      8  C   UNL     1      33.402 -14.752 -24.639  0.00  0.00    +0.203 C 
ATOM      9  C   UNL     1      33.838 -15.537 -25.700  0.00  0.00    +0.171 C 
ATOM     10  C   UNL     1      34.386 -16.795 -25.453  0.00  0.00    +0.040 C 
ATOM     11  C   UNL     1      33.132 -14.795 -20.973  0.00  0.00    +0.346 C 
ENDROOT
BRANCH   4  12
ATOM     12  C   UNL     1      34.699 -18.221 -21.208  0.00  0.00    +0.000 C 
ATOM     13  C   UNL     1      36.076 -18.387 -21.091  0.00  0.00    +0.000 C 
ATOM     14  C   UNL     1      33.833 -19.263 -20.890  0.00  0.00    +0.000 C 
ATOM     15  C   UNL     1      36.592 -19.606 -20.653  0.00  0.00    +0.000 C 
ATOM     16  C   UNL     1      34.350 -20.483 -20.451  0.00  0.00    +0.000 C 
ATOM     17  C   UNL     1      35.728 -20.655 -20.333  0.00  0.00    +0.000 C 
ENDBRANCH   4  12
BRANCH   8  18
ATOM     18  O   UNL     1      32.866 -13.521 -24.872  0.00  0.00    -0.501 OA
ATOM     19  H   UNL     1      31.985 -13.337 -24.609  0.00  0.00    +0.292 HD
ENDBRANCH   8  18
BRANCH   9  20
ATOM     20  O   UNL     1      33.735 -15.092 -26.983  0.00  0.00    -0.503 OA
ATOM     21  H   UNL     1      32.918 -15.152 -27.435  0.00  0.00    +0.292 HD
ENDBRANCH   9  20
TORSDOF 3
ENDMDL
MODEL 4
REMARK VINA RESULT:      -9.2      8.772     11.519
REMARK  Name = 5413034
REMARK  3 active torsions:
REMARK  status: ('A' for Active; 'I' for Inactive)
REMARK    1  A    between atoms: C_4  and  C_12
REMARK    2  A    between atoms: C_8  and  O_18
REMARK    3  A    between atoms: C_9  and  O_20
REMARK                            x       y       z     vdW  Elec       q    Type
REMARK                         _______ _______ _______ _____ _____    ______ ____
ROOT
ATOM      1  O   UNL     1      33.502 -24.449 -12.719  0.00  0.00    -0.418 OA
ATOM      2  O   UNL     1      31.347 -24.283 -13.460  0.00  0.00    -0.244 OA
ATOM      3  C   UNL     1      35.323 -23.794 -14.203  0.00  0.00    +0.038 C 
ATOM      4  C   UNL     1      34.339 -23.456 -15.244  0.00  0.00    +0.009 C 
ATOM      5  C   UNL     1      34.876 -24.279 -12.976  0.00  0.00    +0.185 C 
ATOM      6  C   UNL     1      36.704 -23.650 -14.391  0.00  0.00    +0.006 C 
ATOM      7  C   UNL     1      33.036 -23.629 -14.966  0.00  0.00    +0.082 C 
ATOM      8  C   UNL     1      35.757 -24.619 -11.948  0.00  0.00    +0.203 C 
ATOM      9  C   UNL     1      37.125 -24.469 -12.149  0.00  0.00    +0.171 C 
ATOM     10  C   UNL     1      37.598 -23.986 -13.368  0.00  0.00    +0.040 C 
ATOM     11  C   UNL     1      32.546 -24.139 -13.673  0.00  0.00    +0.346 C 
ENDROOT
BRANCH   4  12
ATOM     12  C   UNL     1      34.639 -22.940 -16.576  0.00  0.00    +0.000 C 
ATOM     13  C   UNL     1      33.679 -23.018 -17.581  0.00  0.00    +0.000 C 
ATOM     14  C   UNL     1      35.883 -22.370 -16.832  0.00  0.00    +0.000 C 
ATOM     15  C   UNL     1      33.964 -22.523 -18.853  0.00  0.00    +0.000 C 
ATOM     16  C   UNL     1      36.168 -21.875 -18.105  0.00  0.00    +0.000 C 
ATOM     17  C   UNL     1      35.210 -21.951 -19.115  0.00  0.00    +0.000 C 
ENDBRANCH   4  12
BRANCH   8  18
ATOM     18  O   UNL     1      35.286 -25.090 -10.760  0.00  0.00    -0.501 OA
ATOM     19  H   UNL     1      34.392 -25.363 -10.686  0.00  0.00    +0.292 HD
ENDBRANCH   8  18
BRANCH   9  20
ATOM     20  O   UNL     1      38.011 -24.790 -11.166  0.00  0.00    -0.503 OA
ATOM     21  H   UNL     1      38.449 -24.112 -10.691  0.00  0.00    +0.292 HD
ENDBRANCH   9  20
TORSDOF 3
ENDMDL
MODEL 5
REMARK VINA RESULT:      -9.1      8.456     10.641
REMARK  Name = 5413034
REMARK  3 active torsions:
REMARK  status: ('A' for Active; 'I' for Inactive)
REMARK    1  A    between atoms: C_4  and  C_12
REMARK    2  A    between atoms: C_8  and  O_18
REMARK    3  A    between atoms: C_9  and  O_20
REMARK                            x       y       z     vdW  Elec       q    Type
REMARK                         _______ _______ _______ _____ _____    ______ ____
ROOT
ATOM      1  O   UNL     1      33.211 -24.484 -13.115  0.00  0.00    -0.418 OA
ATOM      2  O   UNL     1      35.348 -24.532 -12.308  0.00  0.00    -0.244 OA
ATOM      3  C   UNL     1      32.807 -23.602 -15.352  0.00  0.00    +0.038 C 
ATOM      4  C   UNL     1      34.247 -23.342 -15.499  0.00  0.00    +0.009 C 
ATOM      5  C   UNL     1      32.333 -24.163 -14.168  0.00  0.00    +0.185 C 
ATOM      6  C   UNL     1      31.876 -23.308 -16.358  0.00  0.00    +0.006 C 
ATOM      7  C   UNL     1      35.058 -23.661 -14.476  0.00  0.00    +0.082 C 
ATOM      8  C   UNL     1      30.980 -24.434 -13.965  0.00  0.00    +0.203 C 
ATOM      9  C   UNL     1      30.069 -24.136 -14.973  0.00  0.00    +0.171 C 
ATOM     10  C   UNL     1      30.516 -23.575 -16.168  0.00  0.00    +0.040 C 
ATOM     11  C   UNL     1      34.575 -24.257 -13.218  0.00  0.00    +0.346 C 
ENDROOT
BRANCH   4  12
ATOM     12  C   UNL     1      34.902 -22.762 -16.668  0.00  0.00    +0.000 C 
ATOM     13  C   UNL     1      34.218 -22.684 -17.877  0.00  0.00    +0.000 C 
ATOM     14  C   UNL     1      36.206 -22.287 -16.564  0.00  0.00    +0.000 C 
ATOM     15  C   UNL     1      34.842 -22.128 -18.993  0.00  0.00    +0.000 C 
ATOM     16  C   UNL     1      36.831 -21.730 -17.680  0.00  0.00    +0.000 C 
ATOM     17  C   UNL     1      36.150 -21.650 -18.895  0.00  0.00    +0.000 C 
ENDBRANCH   4  12
BRANCH   8  18
ATOM     18  O   UNL     1      30.551 -24.982 -12.794  0.00  0.00    -0.501 OA
ATOM     19  H   UNL     1      30.773 -25.868 -12.583  0.00  0.00    +0.292 HD
ENDBRANCH   8  18
BRANCH   9  20
ATOM     20  O   UNL     1      28.741 -24.390 -14.807  0.00  0.00    -0.503 OA
ATOM     21  H   UNL     1      28.338 -24.252 -13.973  0.00  0.00    +0.292 HD
ENDBRANCH   9  20
TORSDOF 3
ENDMDL
MODEL 6
REMARK VINA RESULT:      -9.0      7.742     10.216
REMARK  Name = 5413034
REMARK  3 active torsions:
REMARK  status: ('A' for Active; 'I' for Inactive)
REMARK    1  A    between atoms: C_4  and  C_12
REMARK    2  A    between atoms: C_8  and  O_18
REMARK    3  A    between atoms: C_9  and  O_20
REMARK                            x       y       z     vdW  Elec       q    Type
REMARK                         _______ _______ _______ _____ _____    ______ ____
ROOT
ATOM      1  O   UNL     1      36.175 -24.046 -13.943  0.00  0.00    -0.418 OA
ATOM      2  O   UNL     1      38.396 -23.707 -14.362  0.00  0.00    -0.244 OA
ATOM      3  C   UNL     1      34.532 -23.333 -15.598  0.00  0.00    +0.038 C 
ATOM      4  C   UNL     1      35.623 -22.843 -16.455  0.00  0.00    +0.009 C 
ATOM      5  C   UNL     1      34.840 -23.916 -14.371  0.00  0.00    +0.185 C 
ATOM      6  C   UNL     1      33.182 -23.236 -15.960  0.00  0.00    +0.006 C 
ATOM      7  C   UNL     1      36.886 -22.983 -16.017  0.00  0.00    +0.082 C 
ATOM      8  C   UNL     1      33.853 -24.400 -13.511  0.00  0.00    +0.203 C 
ATOM      9  C   UNL     1      32.517 -24.298 -13.885  0.00  0.00    +0.171 C 
ATOM     10  C   UNL     1      32.182 -23.718 -15.108  0.00  0.00    +0.040 C 
ATOM     11  C   UNL     1      37.229 -23.600 -14.724  0.00  0.00    +0.346 C 
ENDROOT
BRANCH   4  12
ATOM     12  C   UNL     1      35.472 -22.209 -17.761  0.00  0.00    +0.000 C 
ATOM     13  C   UNL     1      34.241 -22.243 -18.409  0.00  0.00    +0.000 C 
ATOM     14  C   UNL     1      36.561 -21.572 -18.349  0.00  0.00    +0.000 C 
ATOM     15  C   UNL     1      34.097 -21.636 -19.656  0.00  0.00    +0.000 C 
ATOM     16  C   UNL     1      36.417 -20.964 -19.597  0.00  0.00    +0.000 C 
ATOM     17  C   UNL     1      35.186 -20.996 -20.251  0.00  0.00    +0.000 C 
ENDBRANCH   4  12
BRANCH   8  18
ATOM     18  O   UNL     1      34.189 -24.965 -12.318  0.00  0.00    -0.501 OA
ATOM     19  H   UNL     1      34.864 -24.583 -11.792  0.00  0.00    +0.292 HD
ENDBRANCH   8  18
BRANCH   9  20
ATOM     20  O   UNL     1      31.530 -24.761 -13.070  0.00  0.00    -0.503 OA
ATOM     21  H   UNL     1      31.662 -25.542 -12.570  0.00  0.00    +0.292 HD
ENDBRANCH   9  20
TORSDOF 3
ENDMDL
MODEL 7
REMARK VINA RESULT:      -8.9      7.785     10.394
REMARK  Name = 5413034
REMARK  3 active torsions:
REMARK  status: ('A' for Active; 'I' for Inactive)
REMARK    1  A    between atoms: C_4  and  C_12
REMARK    2  A    between atoms: C_8  and  O_18
REMARK    3  A    between atoms: C_9  and  O_20
REMARK                            x       y       z     vdW  Elec       q    Type
REMARK                         _______ _______ _______ _____ _____    ______ ____
ROOT
ATOM      1  O   UNL     1      31.598  -6.156 -20.988  0.00  0.00    -0.418 OA
ATOM      2  O   UNL     1      32.174  -7.563 -19.282  0.00  0.00    -0.244 OA
ATOM      3  C   UNL     1      32.223  -6.741 -23.272  0.00  0.00    +0.038 C 
ATOM      4  C   UNL     1      32.858  -7.970 -22.772  0.00  0.00    +0.009 C 
ATOM      5  C   UNL     1      31.615  -5.873 -22.367  0.00  0.00    +0.185 C 
ATOM      6  C   UNL     1      32.202  -6.396 -24.629  0.00  0.00    +0.006 C 
ATOM      7  C   UNL     1      32.823  -8.211 -21.451  0.00  0.00    +0.082 C 
ATOM      8  C   UNL     1      30.996  -4.690 -22.775  0.00  0.00    +0.203 C 
ATOM      9  C   UNL     1      30.983  -4.362 -24.127  0.00  0.00    +0.171 C 
ATOM     10  C   UNL     1      31.584  -5.213 -25.053  0.00  0.00    +0.040 C 
ATOM     11  C   UNL     1      32.183  -7.306 -20.481  0.00  0.00    +0.346 C 
ENDROOT
BRANCH   4  12
ATOM     12  C   UNL     1      33.535  -8.979 -23.582  0.00  0.00    +0.000 C 
ATOM     13  C   UNL     1      32.952 -10.230 -23.758  0.00  0.00    +0.000 C 
ATOM     14  C   UNL     1      34.758  -8.680 -24.176  0.00  0.00    +0.000 C 
ATOM     15  C   UNL     1      33.598 -11.193 -24.533  0.00  0.00    +0.000 C 
ATOM     16  C   UNL     1      35.404  -9.644 -24.952  0.00  0.00    +0.000 C 
ATOM     17  C   UNL     1      34.825 -10.899 -25.131  0.00  0.00    +0.000 C 
ENDBRANCH   4  12
BRANCH   8  18
ATOM     18  O   UNL     1      30.411  -3.864 -21.864  0.00  0.00    -0.501 OA
ATOM     19  H   UNL     1      29.553  -3.523 -22.024  0.00  0.00    +0.292 HD
ENDBRANCH   8  18
BRANCH   9  20
ATOM     20  O   UNL     1      30.386  -3.217 -24.558  0.00  0.00    -0.503 OA
ATOM     21  H   UNL     1      30.796  -2.695 -25.219  0.00  0.00    +0.292 HD
ENDBRANCH   9  20
TORSDOF 3
ENDMDL
MODEL 8
REMARK VINA RESULT:      -8.8      6.501      9.106
REMARK  Name = 5413034
REMARK  3 active torsions:
REMARK  status: ('A' for Active; 'I' for Inactive)
REMARK    1  A    between atoms: C_4  and  C_12
REMARK    2  A    between atoms: C_8  and  O_18
REMARK    3  A    between atoms: C_9  and  O_20
REMARK                            x       y       z     vdW  Elec       q    Type
REMARK                         _______ _______ _______ _____ _____    ______ ____
ROOT
ATOM      1  O   UNL     1      33.664 -23.789 -15.851  0.00  0.00    -0.418 OA
ATOM      2  O   UNL     1      31.483 -23.902 -16.523  0.00  0.00    -0.244 OA
ATOM      3  C   UNL     1      35.247 -22.483 -17.169  0.00  0.00    +0.038 C 
ATOM      4  C   UNL     1      34.165 -22.135 -18.103  0.00  0.00    +0.009 C 
ATOM      5  C   UNL     1      34.965 -23.298 -16.074  0.00  0.00    +0.185 C 
ATOM      6  C   UNL     1      36.563 -22.030 -17.330  0.00  0.00    +0.006 C 
ATOM      7  C   UNL     1      32.936 -22.619 -17.861  0.00  0.00    +0.082 C 
ATOM      8  C   UNL     1      35.945 -23.666 -15.152  0.00  0.00    +0.203 C 
ATOM      9  C   UNL     1      37.247 -23.207 -15.325  0.00  0.00    +0.171 C 
ATOM     10  C   UNL     1      37.556 -22.391 -16.411  0.00  0.00    +0.040 C 
ATOM     11  C   UNL     1      32.619 -23.480 -16.707  0.00  0.00    +0.346 C 
ENDROOT
BRANCH   4  12
ATOM     12  C   UNL     1      34.292 -21.297 -19.292  0.00  0.00    +0.000 C 
ATOM     13  C   UNL     1      33.157 -20.737 -19.869  0.00  0.00    +0.000 C 
ATOM     14  C   UNL     1      35.551 -21.062 -19.840  0.00  0.00    +0.000 C 
ATOM     15  C   UNL     1      33.278 -19.936 -21.004  0.00  0.00    +0.000 C 
ATOM     16  C   UNL     1      35.672 -20.259 -20.975  0.00  0.00    +0.000 C 
ATOM     17  C   UNL     1      34.537 -19.696 -21.557  0.00  0.00    +0.000 C 
ENDBRANCH   4  12
BRANCH   8  18
ATOM     18  O   UNL     1      35.635 -24.464 -14.093  0.00  0.00    -0.501 OA
ATOM     19  H   UNL     1      35.144 -25.251 -14.228  0.00  0.00    +0.292 HD
ENDBRANCH   8  18
BRANCH   9  20
ATOM     20  O   UNL     1      38.226 -23.546 -14.442  0.00  0.00    -0.503 OA
ATOM     21  H   UNL     1      38.021 -24.070 -13.693  0.00  0.00    +0.292 HD
ENDBRANCH   9  20
TORSDOF 3
ENDMDL
MODEL 9
REMARK VINA RESULT:      -8.8      4.587      8.915
REMARK  Name = 5413034
REMARK  3 active torsions:
REMARK  status: ('A' for Active; 'I' for Inactive)
REMARK    1  A    between atoms: C_4  and  C_12
REMARK    2  A    between atoms: C_8  and  O_18
REMARK    3  A    between atoms: C_9  and  O_20
REMARK                            x       y       z     vdW  Elec       q    Type
REMARK                         _______ _______ _______ _____ _____    ______ ____
ROOT
ATOM      1  O   UNL     1      31.661 -12.131 -21.152  0.00  0.00    -0.418 OA
ATOM      2  O   UNL     1      30.764 -10.699 -19.614  0.00  0.00    -0.244 OA
ATOM      3  C   UNL     1      32.759 -11.217 -23.127  0.00  0.00    +0.038 C 
ATOM      4  C   UNL     1      32.460  -9.857 -22.652  0.00  0.00    +0.009 C 
ATOM      5  C   UNL     1      32.351 -12.310 -22.366  0.00  0.00    +0.185 C 
ATOM      6  C   UNL     1      33.442 -11.468 -24.325  0.00  0.00    +0.006 C 
ATOM      7  C   UNL     1      31.801  -9.722 -21.489  0.00  0.00    +0.082 C 
ATOM      8  C   UNL     1      32.603 -13.624 -22.761  0.00  0.00    +0.203 C 
ATOM      9  C   UNL     1      33.282 -13.857 -23.952  0.00  0.00    +0.171 C 
ATOM     10  C   UNL     1      33.702 -12.781 -24.733  0.00  0.00    +0.040 C 
ATOM     11  C   UNL     1      31.364 -10.866 -20.670  0.00  0.00    +0.346 C 
ENDROOT
BRANCH   4  12
ATOM     12  C   UNL     1      32.814  -8.612 -23.327  0.00  0.00    +0.000 C 
ATOM     13  C   UNL     1      34.153  -8.290 -23.526  0.00  0.00    +0.000 C 
ATOM     14  C   UNL     1      31.809  -7.757 -23.771  0.00  0.00    +0.000 C 
ATOM     15  C   UNL     1      34.492  -7.101 -24.172  0.00  0.00    +0.000 C 
ATOM     16  C   UNL     1      32.148  -6.568 -24.418  0.00  0.00    +0.000 C 
ATOM     17  C   UNL     1      33.488  -6.240 -24.619  0.00  0.00    +0.000 C 
ENDBRANCH   4  12
BRANCH   8  18
ATOM     18  O   UNL     1      32.190 -14.670 -21.991  0.00  0.00    -0.501 OA
ATOM     19  H   UNL     1      32.544 -15.525 -22.135  0.00  0.00    +0.292 HD
ENDBRANCH   8  18
BRANCH   9  20
ATOM     20  O   UNL     1      33.545 -15.128 -24.365  0.00  0.00    -0.503 OA
ATOM     21  H   UNL     1      33.274 -15.410 -25.215  0.00  0.00    +0.292 HD
ENDBRANCH   9  20
TORSDOF 3
ENDMDL
