MODEL 1
REMARK VINA RESULT:     -10.0      0.000      0.000
REMARK  Name = 5160
REMARK  15 active torsions:
REMARK  status: ('A' for Active; 'I' for Inactive)
REMARK    1  A    between atoms: O_1  and  C_3
REMARK    2  A    between atoms: O_1  and  C_18
REMARK    3  A    between atoms: C_2  and  C_8
REMARK    4  A    between atoms: C_8  and  C_9
REMARK    5  A    between atoms: C_9  and  C_10
REMARK    6  A    between atoms: C_13  and  O_16
REMARK    7  A    between atoms: C_18  and  C_19
REMARK    8  A    between atoms: C_19  and  O_20
REMARK    9  A    between atoms: C_19  and  C_29
REMARK   10  A    between atoms: O_20  and  C_22
REMARK   11  A    between atoms: C_22  and  C_23
REMARK   12  A    between atoms: C_23  and  C_24
REMARK   13  A    between atoms: C_24  and  C_26
REMARK   14  A    between atoms: C_26  and  O_27
REMARK   15  A    between atoms: C_29  and  N_30
REMARK                            x       y       z     vdW  Elec       q    Type
REMARK                         _______ _______ _______ _____ _____    ______ ____
ROOT
ATOM      1  O   UNL     1      34.036 -23.174 -14.971  0.00  0.00    -0.472 OA
ENDROOT
BRANCH   1   3
ATOM      2  C   UNL     1      32.201 -23.027 -16.515  0.00  0.00    +0.012 C 
ATOM      3  C   UNL     1      32.690 -23.125 -15.212  0.00  0.00    +0.135 C 
ATOM      4  C   UNL     1      30.826 -22.977 -16.742  0.00  0.00    -0.001 C 
ATOM      5  C   UNL     1      31.802 -23.172 -14.136  0.00  0.00    +0.037 C 
ATOM      6  C   UNL     1      29.939 -23.025 -15.667  0.00  0.00    -0.000 C 
ATOM      7  C   UNL     1      30.427 -23.123 -14.364  0.00  0.00    +0.003 C 
BRANCH   2   8
ATOM      8  C   UNL     1      33.136 -22.976 -17.678  0.00  0.00    +0.034 C 
BRANCH   8   9
ATOM      9  C   UNL     1      32.695 -22.011 -18.794  0.00  0.00    +0.031 C 
BRANCH   9  10
ATOM     10  C   UNL     1      33.850 -21.310 -19.466  0.00  0.00    -0.019 C 
ATOM     11  C   UNL     1      33.611 -20.238 -20.325  0.00  0.00    +0.033 C 
ATOM     12  C   UNL     1      35.157 -21.736 -19.229  0.00  0.00    -0.004 C 
ATOM     13  C   UNL     1      34.679 -19.590 -20.946  0.00  0.00    +0.138 C 
ATOM     14  C   UNL     1      36.225 -21.088 -19.850  0.00  0.00    +0.003 C 
ATOM     15  C   UNL     1      35.986 -20.015 -20.709  0.00  0.00    +0.037 C 
BRANCH  13  16
ATOM     16  O   UNL     1      34.446 -18.543 -21.785  0.00  0.00    -0.471 OA
ATOM     17  C   UNL     1      35.134 -17.324 -21.507  0.00  0.00    +0.252 C 
ENDBRANCH  13  16
ENDBRANCH   9  10
ENDBRANCH   8   9
ENDBRANCH   2   8
ENDBRANCH   1   3
BRANCH   1  18
ATOM     18  C   UNL     1      34.640 -24.464 -14.971  0.00  0.00    +0.246 C 
BRANCH  18  19
ATOM     19  C   UNL     1      35.744 -24.492 -13.917  0.00  0.00    +0.192 C 
BRANCH  19  20
ATOM     20  O   UNL     1      36.351 -25.789 -13.927  0.00  0.00    -0.451 OA
BRANCH  20  22
ATOM     21  O   UNL     1      37.127 -26.926 -15.778  0.00  0.00    -0.250 OA
ATOM     22  C   UNL     1      37.218 -26.024 -14.957  0.00  0.00    +0.317 C 
BRANCH  22  23
ATOM     23  C   UNL     1      38.317 -24.984 -14.914  0.00  0.00    +0.121 C 
BRANCH  23  24
ATOM     24  C   UNL     1      39.437 -25.336 -13.943  0.00  0.00    +0.121 C 
BRANCH  24  26
ATOM     25  O   UNL     1      41.342 -26.820 -14.040  0.00  0.00    -0.250 OA
ATOM     26  C   UNL     1      40.534 -26.112 -14.629  0.00  0.00    +0.314 C 
BRANCH  26  27
ATOM     27  O   UNL     1      40.518 -25.961 -15.976  0.00  0.00    -0.480 OA
ATOM     28  H   UNL     1      41.258 -25.592 -16.415  0.00  0.00    +0.295 HD
ENDBRANCH  26  27
ENDBRANCH  24  26
ENDBRANCH  23  24
ENDBRANCH  22  23
ENDBRANCH  20  22
ENDBRANCH  19  20
BRANCH  19  29
ATOM     29  C   UNL     1      35.237 -24.213 -12.500  0.00  0.00    -0.029 C 
BRANCH  29  30
ATOM     30  N   UNL     1      36.308 -24.267 -11.515  0.00  0.00    +0.387 N 
ATOM     31  C   UNL     1      37.193 -23.109 -11.648  0.00  0.00    -0.101 C 
ATOM     32  C   UNL     1      35.761 -24.332 -10.158  0.00  0.00    -0.101 C 
ATOM     33  H   UNL     1      36.853 -25.113 -11.685  0.00  0.00    -0.080 HD
ENDBRANCH  29  30
ENDBRANCH  19  29
ENDBRANCH  18  19
ENDBRANCH   1  18
TORSDOF 15
ENDMDL
MODEL 2
REMARK VINA RESULT:      -9.8      1.836      5.137
REMARK  Name = 5160
REMARK  15 active torsions:
REMARK  status: ('A' for Active; 'I' for Inactive)
REMARK    1  A    between atoms: O_1  and  C_3
REMARK    2  A    between atoms: O_1  and  C_18
REMARK    3  A    between atoms: C_2  and  C_8
REMARK    4  A    between atoms: C_8  and  C_9
REMARK    5  A    between atoms: C_9  and  C_10
REMARK    6  A    between atoms: C_13  and  O_16
REMARK    7  A    between atoms: C_18  and  C_19
REMARK    8  A    between atoms: C_19  and  O_20
REMARK    9  A    between atoms: C_19  and  C_29
REMARK   10  A    between atoms: O_20  and  C_22
REMARK   11  A    between atoms: C_22  and  C_23
REMARK   12  A    between atoms: C_23  and  C_24
REMARK   13  A    between atoms: C_24  and  C_26
REMARK   14  A    between atoms: C_26  and  O_27
REMARK   15  A    between atoms: C_29  and  N_30
REMARK                            x       y       z     vdW  Elec       q    Type
REMARK                         _______ _______ _______ _____ _____    ______ ____
ROOT
ATOM      1  O   UNL     1      35.822 -23.054 -16.776  0.00  0.00    -0.472 OA
ENDROOT
BRANCH   1   3
ATOM      2  C   UNL     1      34.083 -22.499 -18.338  0.00  0.00    +0.012 C 
ATOM      3  C   UNL     1      35.394 -22.366 -17.878  0.00  0.00    +0.135 C 
ATOM      4  C   UNL     1      33.663 -21.791 -19.464  0.00  0.00    -0.001 C 
ATOM      5  C   UNL     1      36.284 -21.524 -18.546  0.00  0.00    +0.037 C 
ATOM      6  C   UNL     1      34.553 -20.950 -20.130  0.00  0.00    -0.000 C 
ATOM      7  C   UNL     1      35.863 -20.816 -19.672  0.00  0.00    +0.003 C 
BRANCH   2   8
ATOM      8  C   UNL     1      33.117 -23.394 -17.635  0.00  0.00    +0.034 C 
BRANCH   8   9
ATOM      9  C   UNL     1      32.540 -22.798 -16.337  0.00  0.00    +0.031 C 
BRANCH   9  10
ATOM     10  C   UNL     1      31.290 -23.498 -15.864  0.00  0.00    -0.019 C 
ATOM     11  C   UNL     1      30.053 -23.168 -16.418  0.00  0.00    +0.033 C 
ATOM     12  C   UNL     1      31.370 -24.475 -14.872  0.00  0.00    -0.004 C 
ATOM     13  C   UNL     1      28.897 -23.815 -15.980  0.00  0.00    +0.138 C 
ATOM     14  C   UNL     1      30.215 -25.122 -14.434  0.00  0.00    +0.003 C 
ATOM     15  C   UNL     1      28.978 -24.792 -14.989  0.00  0.00    +0.037 C 
BRANCH  13  16
ATOM     16  O   UNL     1      27.690 -23.493 -16.522  0.00  0.00    -0.471 OA
ATOM     17  C   UNL     1      27.155 -22.211 -16.198  0.00  0.00    +0.252 C 
ENDBRANCH  13  16
ENDBRANCH   9  10
ENDBRANCH   8   9
ENDBRANCH   2   8
ENDBRANCH   1   3
BRANCH   1  18
ATOM     18  C   UNL     1      36.300 -22.278 -15.682  0.00  0.00    +0.246 C 
BRANCH  18  19
ATOM     19  C   UNL     1      36.865 -23.217 -14.619  0.00  0.00    +0.192 C 
BRANCH  19  20
ATOM     20  O   UNL     1      37.592 -24.262 -15.275  0.00  0.00    -0.451 OA
BRANCH  20  22
ATOM     21  O   UNL     1      36.301 -26.163 -15.478  0.00  0.00    -0.250 OA
ATOM     22  C   UNL     1      37.209 -25.535 -14.953  0.00  0.00    +0.317 C 
BRANCH  22  23
ATOM     23  C   UNL     1      38.095 -26.041 -13.835  0.00  0.00    +0.121 C 
BRANCH  23  24
ATOM     24  C   UNL     1      39.449 -25.343 -13.783  0.00  0.00    +0.121 C 
BRANCH  24  26
ATOM     25  O   UNL     1      41.305 -26.856 -14.111  0.00  0.00    -0.250 OA
ATOM     26  C   UNL     1      40.481 -26.089 -14.593  0.00  0.00    +0.314 C 
BRANCH  26  27
ATOM     27  O   UNL     1      40.386 -25.835 -15.922  0.00  0.00    -0.480 OA
ATOM     28  H   UNL     1      41.055 -26.135 -16.505  0.00  0.00    +0.295 HD
ENDBRANCH  26  27
ENDBRANCH  24  26
ENDBRANCH  23  24
ENDBRANCH  22  23
ENDBRANCH  20  22
ENDBRANCH  19  20
BRANCH  19  29
ATOM     29  C   UNL     1      35.786 -23.862 -13.745  0.00  0.00    -0.029 C 
BRANCH  29  30
ATOM     30  N   UNL     1      35.869 -23.420 -12.359  0.00  0.00    +0.387 N 
ATOM     31  C   UNL     1      35.514 -24.508 -11.447  0.00  0.00    -0.101 C 
ATOM     32  C   UNL     1      37.211 -22.920 -12.055  0.00  0.00    -0.101 C 
ATOM     33  H   UNL     1      35.202 -22.658 -12.229  0.00  0.00    -0.080 HD
ENDBRANCH  29  30
ENDBRANCH  19  29
ENDBRANCH  18  19
ENDBRANCH   1  18
TORSDOF 15
ENDMDL
MODEL 3
REMARK VINA RESULT:      -9.6      6.381     13.492
REMARK  Name = 5160
REMARK  15 active torsions:
REMARK  status: ('A' for Active; 'I' for Inactive)
REMARK    1  A    between atoms: O_1  and  C_3
REMARK    2  A    between atoms: O_1  and  C_18
REMARK    3  A    between atoms: C_2  and  C_8
REMARK    4  A    between atoms: C_8  and  C_9
REMARK    5  A    between atoms: C_9  and  C_10
REMARK    6  A    between atoms: C_13  and  O_16
REMARK    7  A    between atoms: C_18  and  C_19
REMARK    8  A    between atoms: C_19  and  O_20
REMARK    9  A    between atoms: C_19  and  C_29
REMARK   10  A    between atoms: O_20  and  C_22
REMARK   11  A    between atoms: C_22  and  C_23
REMARK   12  A    between atoms: C_23  and  C_24
REMARK   13  A    between atoms: C_24  and  C_26
REMARK   14  A    between atoms: C_26  and  O_27
REMARK   15  A    between atoms: C_29  and  N_30
REMARK                            x       y       z     vdW  Elec       q    Type
REMARK                         _______ _______ _______ _____ _____    ______ ____
ROOT
ATOM      1  O   UNL     1      34.288 -14.658 -22.565  0.00  0.00    -0.472 OA
ENDROOT
BRANCH   1   3
ATOM      2  C   UNL     1      34.833 -16.932 -23.117  0.00  0.00    +0.012 C 
ATOM      3  C   UNL     1      34.325 -15.682 -23.473  0.00  0.00    +0.135 C 
ATOM      4  C   UNL     1      34.865 -17.964 -24.055  0.00  0.00    -0.001 C 
ATOM      5  C   UNL     1      33.850 -15.464 -24.766  0.00  0.00    +0.037 C 
ATOM      6  C   UNL     1      34.389 -17.747 -25.348  0.00  0.00    -0.000 C 
ATOM      7  C   UNL     1      33.882 -16.497 -25.703  0.00  0.00    +0.003 C 
BRANCH   2   8
ATOM      8  C   UNL     1      35.345 -17.182 -21.738  0.00  0.00    +0.034 C 
BRANCH   8   9
ATOM      9  C   UNL     1      36.026 -18.553 -21.561  0.00  0.00    +0.031 C 
BRANCH   9  10
ATOM     10  C   UNL     1      35.162 -19.559 -20.842  0.00  0.00    -0.019 C 
ATOM     11  C   UNL     1      35.752 -20.565 -20.077  0.00  0.00    +0.033 C 
ATOM     12  C   UNL     1      33.773 -19.484 -20.943  0.00  0.00    -0.004 C 
ATOM     13  C   UNL     1      34.953 -21.495 -19.412  0.00  0.00    +0.138 C 
ATOM     14  C   UNL     1      32.974 -20.414 -20.278  0.00  0.00    +0.003 C 
ATOM     15  C   UNL     1      33.564 -21.420 -19.512  0.00  0.00    +0.037 C 
BRANCH  13  16
ATOM     16  O   UNL     1      35.529 -22.477 -18.664  0.00  0.00    -0.471 OA
ATOM     17  C   UNL     1      36.207 -22.074 -17.476  0.00  0.00    +0.252 C 
ENDBRANCH  13  16
ENDBRANCH   9  10
ENDBRANCH   8   9
ENDBRANCH   2   8
ENDBRANCH   1   3
BRANCH   1  18
ATOM     18  C   UNL     1      33.001 -14.247 -22.115  0.00  0.00    +0.246 C 
BRANCH  18  19
ATOM     19  C   UNL     1      32.841 -12.751 -22.373  0.00  0.00    +0.192 C 
BRANCH  19  20
ATOM     20  O   UNL     1      31.575 -12.331 -21.850  0.00  0.00    -0.451 OA
BRANCH  20  22
ATOM     21  O   UNL     1      31.758 -12.149 -19.558  0.00  0.00    -0.250 OA
ATOM     22  C   UNL     1      31.626 -11.650 -20.666  0.00  0.00    +0.317 C 
BRANCH  22  23
ATOM     23  C   UNL     1      31.487 -10.170 -20.951  0.00  0.00    +0.121 C 
BRANCH  23  24
ATOM     24  C   UNL     1      32.067  -9.291 -19.850  0.00  0.00    +0.121 C 
BRANCH  24  26
ATOM     25  O   UNL     1      32.236  -7.548 -21.515  0.00  0.00    -0.250 OA
ATOM     26  C   UNL     1      32.500  -7.950 -20.389  0.00  0.00    +0.314 C 
BRANCH  26  27
ATOM     27  O   UNL     1      33.197  -7.222 -19.482  0.00  0.00    -0.480 OA
ATOM     28  H   UNL     1      33.824  -7.643 -18.926  0.00  0.00    +0.295 HD
ENDBRANCH  26  27
ENDBRANCH  24  26
ENDBRANCH  23  24
ENDBRANCH  22  23
ENDBRANCH  20  22
ENDBRANCH  19  20
BRANCH  19  29
ATOM     29  C   UNL     1      32.889 -12.384 -23.858  0.00  0.00    -0.029 C 
BRANCH  29  30
ATOM     30  N   UNL     1      34.068 -11.595 -24.188  0.00  0.00    +0.387 N 
ATOM     31  C   UNL     1      34.327 -11.629 -25.628  0.00  0.00    -0.101 C 
ATOM     32  C   UNL     1      33.909 -10.212 -23.734  0.00  0.00    -0.101 C 
ATOM     33  H   UNL     1      34.869 -12.004 -23.705  0.00  0.00    -0.080 HD
ENDBRANCH  29  30
ENDBRANCH  19  29
ENDBRANCH  18  19
ENDBRANCH   1  18
TORSDOF 15
ENDMDL
MODEL 4
REMARK VINA RESULT:      -9.5      1.642      2.220
REMARK  Name = 5160
REMARK  15 active torsions:
REMARK  status: ('A' for Active; 'I' for Inactive)
REMARK    1  A    between atoms: O_1  and  C_3
REMARK    2  A    between atoms: O_1  and  C_18
REMARK    3  A    between atoms: C_2  and  C_8
REMARK    4  A    between atoms: C_8  and  C_9
REMARK    5  A    between atoms: C_9  and  C_10
REMARK    6  A    between atoms: C_13  and  O_16
REMARK    7  A    between atoms: C_18  and  C_19
REMARK    8  A    between atoms: C_19  and  O_20
REMARK    9  A    between atoms: C_19  and  C_29
REMARK   10  A    between atoms: O_20  and  C_22
REMARK   11  A    between atoms: C_22  and  C_23
REMARK   12  A    between atoms: C_23  and  C_24
REMARK   13  A    between atoms: C_24  and  C_26
REMARK   14  A    between atoms: C_26  and  O_27
REMARK   15  A    between atoms: C_29  and  N_30
REMARK                            x       y       z     vdW  Elec       q    Type
REMARK                         _______ _______ _______ _____ _____    ______ ____
ROOT
ATOM      1  O   UNL     1      34.701 -24.109 -15.985  0.00  0.00    -0.472 OA
ENDROOT
BRANCH   1   3
ATOM      2  C   UNL     1      32.816 -23.102 -17.082  0.00  0.00    +0.012 C 
ATOM      3  C   UNL     1      33.393 -23.705 -15.965  0.00  0.00    +0.135 C 
ATOM      4  C   UNL     1      31.482 -22.696 -17.044  0.00  0.00    -0.001 C 
ATOM      5  C   UNL     1      32.636 -23.903 -14.810  0.00  0.00    +0.037 C 
ATOM      6  C   UNL     1      30.725 -22.893 -15.890  0.00  0.00    -0.000 C 
ATOM      7  C   UNL     1      31.302 -23.497 -14.773  0.00  0.00    +0.003 C 
BRANCH   2   8
ATOM      8  C   UNL     1      33.611 -22.884 -18.327  0.00  0.00    +0.034 C 
BRANCH   8   9
ATOM      9  C   UNL     1      33.041 -21.790 -19.251  0.00  0.00    +0.031 C 
BRANCH   9  10
ATOM     10  C   UNL     1      34.107 -20.924 -19.876  0.00  0.00    -0.019 C 
ATOM     11  C   UNL     1      33.745 -19.804 -20.624  0.00  0.00    +0.033 C 
ATOM     12  C   UNL     1      35.454 -21.245 -19.707  0.00  0.00    -0.004 C 
ATOM     13  C   UNL     1      34.731 -19.003 -21.202  0.00  0.00    +0.138 C 
ATOM     14  C   UNL     1      36.440 -20.444 -20.285  0.00  0.00    +0.003 C 
ATOM     15  C   UNL     1      36.077 -19.323 -21.033  0.00  0.00    +0.037 C 
BRANCH  13  16
ATOM     16  O   UNL     1      34.378 -17.909 -21.931  0.00  0.00    -0.471 OA
ATOM     17  C   UNL     1      34.871 -16.646 -21.486  0.00  0.00    +0.252 C 
ENDBRANCH  13  16
ENDBRANCH   9  10
ENDBRANCH   8   9
ENDBRANCH   2   8
ENDBRANCH   1   3
BRANCH   1  18
ATOM     18  C   UNL     1      35.167 -24.829 -14.848  0.00  0.00    +0.246 C 
BRANCH  18  19
ATOM     19  C   UNL     1      36.412 -24.136 -14.301  0.00  0.00    +0.192 C 
BRANCH  19  20
ATOM     20  O   UNL     1      36.491 -24.386 -12.893  0.00  0.00    -0.451 OA
BRANCH  20  22
ATOM     21  O   UNL     1      36.938 -26.420 -11.901  0.00  0.00    -0.250 OA
ATOM     22  C   UNL     1      37.293 -25.430 -12.525  0.00  0.00    +0.317 C 
BRANCH  22  23
ATOM     23  C   UNL     1      38.699 -25.159 -13.015  0.00  0.00    +0.121 C 
BRANCH  23  24
ATOM     24  C   UNL     1      39.212 -26.221 -13.980  0.00  0.00    +0.121 C 
BRANCH  24  26
ATOM     25  O   UNL     1      40.700 -26.168 -15.883  0.00  0.00    -0.250 OA
ATOM     26  C   UNL     1      40.369 -25.704 -14.799  0.00  0.00    +0.314 C 
BRANCH  26  27
ATOM     27  O   UNL     1      40.994 -24.652 -14.216  0.00  0.00    -0.480 OA
ATOM     28  H   UNL     1      41.366 -24.743 -13.361  0.00  0.00    +0.295 HD
ENDBRANCH  26  27
ENDBRANCH  24  26
ENDBRANCH  23  24
ENDBRANCH  22  23
ENDBRANCH  20  22
ENDBRANCH  19  20
BRANCH  19  29
ATOM     29  C   UNL     1      36.408 -22.621 -14.517  0.00  0.00    -0.029 C 
BRANCH  29  30
ATOM     30  N   UNL     1      37.409 -22.204 -15.489  0.00  0.00    +0.387 N 
ATOM     31  C   UNL     1      38.189 -23.352 -15.954  0.00  0.00    -0.101 C 
ATOM     32  C   UNL     1      36.777 -21.528 -16.624  0.00  0.00    -0.101 C 
ATOM     33  H   UNL     1      38.041 -21.546 -15.032  0.00  0.00    -0.080 HD
ENDBRANCH  29  30
ENDBRANCH  19  29
ENDBRANCH  18  19
ENDBRANCH   1  18
TORSDOF 15
ENDMDL
MODEL 5
REMARK VINA RESULT:      -9.4      3.207      8.834
REMARK  Name = 5160
REMARK  15 active torsions:
REMARK  status: ('A' for Active; 'I' for Inactive)
REMARK    1  A    between atoms: O_1  and  C_3
REMARK    2  A    between atoms: O_1  and  C_18
REMARK    3  A    between atoms: C_2  and  C_8
REMARK    4  A    between atoms: C_8  and  C_9
REMARK    5  A    between atoms: C_9  and  C_10
REMARK    6  A    between atoms: C_13  and  O_16
REMARK    7  A    between atoms: C_18  and  C_19
REMARK    8  A    between atoms: C_19  and  O_20
REMARK    9  A    between atoms: C_19  and  C_29
REMARK   10  A    between atoms: O_20  and  C_22
REMARK   11  A    between atoms: C_22  and  C_23
REMARK   12  A    between atoms: C_23  and  C_24
REMARK   13  A    between atoms: C_24  and  C_26
REMARK   14  A    between atoms: C_26  and  O_27
REMARK   15  A    between atoms: C_29  and  N_30
REMARK                            x       y       z     vdW  Elec       q    Type
REMARK                         _______ _______ _______ _____ _____    ______ ____
ROOT
ATOM      1  O   UNL     1      33.332 -23.028 -17.475  0.00  0.00    -0.472 OA
ENDROOT
BRANCH   1   3
ATOM      2  C   UNL     1      35.626 -22.313 -17.461  0.00  0.00    +0.012 C 
ATOM      3  C   UNL     1      34.390 -22.423 -18.099  0.00  0.00    +0.135 C 
ATOM      4  C   UNL     1      36.693 -21.693 -18.112  0.00  0.00    -0.001 C 
ATOM      5  C   UNL     1      34.222 -21.914 -19.387  0.00  0.00    +0.037 C 
ATOM      6  C   UNL     1      36.525 -21.184 -19.399  0.00  0.00    -0.000 C 
ATOM      7  C   UNL     1      35.290 -21.294 -20.036  0.00  0.00    +0.003 C 
BRANCH   2   8
ATOM      8  C   UNL     1      35.825 -22.853 -16.084  0.00  0.00    +0.034 C 
BRANCH   8   9
ATOM      9  C   UNL     1      37.294 -22.870 -15.623  0.00  0.00    +0.031 C 
BRANCH   9  10
ATOM     10  C   UNL     1      37.587 -23.944 -14.605  0.00  0.00    -0.019 C 
ATOM     11  C   UNL     1      36.706 -24.160 -13.545  0.00  0.00    +0.033 C 
ATOM     12  C   UNL     1      38.741 -24.720 -14.722  0.00  0.00    -0.004 C 
ATOM     13  C   UNL     1      36.978 -25.154 -12.604  0.00  0.00    +0.138 C 
ATOM     14  C   UNL     1      39.012 -25.713 -13.781  0.00  0.00    +0.003 C 
ATOM     15  C   UNL     1      38.130 -25.930 -12.721  0.00  0.00    +0.037 C 
BRANCH  13  16
ATOM     16  O   UNL     1      36.117 -25.366 -11.570  0.00  0.00    -0.471 OA
ATOM     17  C   UNL     1      35.755 -24.232 -10.784  0.00  0.00    +0.252 C 
ENDBRANCH  13  16
ENDBRANCH   9  10
ENDBRANCH   8   9
ENDBRANCH   2   8
ENDBRANCH   1   3
BRANCH   1  18
ATOM     18  C   UNL     1      32.062 -22.401 -17.616  0.00  0.00    +0.246 C 
BRANCH  18  19
ATOM     19  C   UNL     1      31.064 -23.092 -16.690  0.00  0.00    +0.192 C 
BRANCH  19  20
ATOM     20  O   UNL     1      29.780 -22.484 -16.869  0.00  0.00    -0.451 OA
BRANCH  20  22
ATOM     21  O   UNL     1      28.494 -24.376 -16.576  0.00  0.00    -0.250 OA
ATOM     22  C   UNL     1      28.720 -23.191 -16.374  0.00  0.00    +0.317 C 
BRANCH  22  23
ATOM     23  C   UNL     1      27.866 -22.266 -15.535  0.00  0.00    +0.121 C 
BRANCH  23  24
ATOM     24  C   UNL     1      26.458 -22.085 -16.088  0.00  0.00    +0.121 C 
BRANCH  24  26
ATOM     25  O   UNL     1      26.268 -20.422 -17.831  0.00  0.00    -0.250 OA
ATOM     26  C   UNL     1      26.488 -21.584 -17.511  0.00  0.00    +0.314 C 
BRANCH  26  27
ATOM     27  O   UNL     1      26.808 -22.555 -18.401  0.00  0.00    -0.480 OA
ATOM     28  H   UNL     1      27.443 -23.206 -18.175  0.00  0.00    +0.295 HD
ENDBRANCH  26  27
ENDBRANCH  24  26
ENDBRANCH  23  24
ENDBRANCH  22  23
ENDBRANCH  20  22
ENDBRANCH  19  20
BRANCH  19  29
ATOM     29  C   UNL     1      31.439 -22.989 -15.210  0.00  0.00    -0.029 C 
BRANCH  29  30
ATOM     30  N   UNL     1      32.011 -24.228 -14.703  0.00  0.00    +0.387 N 
ATOM     31  C   UNL     1      33.083 -23.950 -13.745  0.00  0.00    -0.101 C 
ATOM     32  C   UNL     1      30.977 -25.058 -14.080  0.00  0.00    -0.101 C 
ATOM     33  H   UNL     1      32.405 -24.742 -15.492  0.00  0.00    -0.080 HD
ENDBRANCH  29  30
ENDBRANCH  19  29
ENDBRANCH  18  19
ENDBRANCH   1  18
TORSDOF 15
ENDMDL
MODEL 6
REMARK VINA RESULT:      -9.3      8.903     14.582
REMARK  Name = 5160
REMARK  15 active torsions:
REMARK  status: ('A' for Active; 'I' for Inactive)
REMARK    1  A    between atoms: O_1  and  C_3
REMARK    2  A    between atoms: O_1  and  C_18
REMARK    3  A    between atoms: C_2  and  C_8
REMARK    4  A    between atoms: C_8  and  C_9
REMARK    5  A    between atoms: C_9  and  C_10
REMARK    6  A    between atoms: C_13  and  O_16
REMARK    7  A    between atoms: C_18  and  C_19
REMARK    8  A    between atoms: C_19  and  O_20
REMARK    9  A    between atoms: C_19  and  C_29
REMARK   10  A    between atoms: O_20  and  C_22
REMARK   11  A    between atoms: C_22  and  C_23
REMARK   12  A    between atoms: C_23  and  C_24
REMARK   13  A    between atoms: C_24  and  C_26
REMARK   14  A    between atoms: C_26  and  O_27
REMARK   15  A    between atoms: C_29  and  N_30
REMARK                            x       y       z     vdW  Elec       q    Type
REMARK                         _______ _______ _______ _____ _____    ______ ____
ROOT
ATOM      1  O   UNL     1      32.180 -11.965 -22.703  0.00  0.00    -0.472 OA
ENDROOT
BRANCH   1   3
ATOM      2  C   UNL     1      32.367  -9.729 -21.843  0.00  0.00    +0.012 C 
ATOM      3  C   UNL     1      32.017 -11.070 -21.680  0.00  0.00    +0.135 C 
ATOM      4  C   UNL     1      32.196  -8.831 -20.790  0.00  0.00    -0.001 C 
ATOM      5  C   UNL     1      31.495 -11.512 -20.464  0.00  0.00    +0.037 C 
ATOM      6  C   UNL     1      31.674  -9.273 -19.574  0.00  0.00    -0.000 C 
ATOM      7  C   UNL     1      31.323 -10.613 -19.412  0.00  0.00    +0.003 C 
BRANCH   2   8
ATOM      8  C   UNL     1      32.926  -9.239 -23.137  0.00  0.00    +0.034 C 
BRANCH   8   9
ATOM      9  C   UNL     1      33.798  -7.976 -23.006  0.00  0.00    +0.031 C 
BRANCH   9  10
ATOM     10  C   UNL     1      33.425  -6.890 -23.984  0.00  0.00    -0.019 C 
ATOM     11  C   UNL     1      32.227  -6.192 -23.828  0.00  0.00    +0.033 C 
ATOM     12  C   UNL     1      34.277  -6.584 -25.045  0.00  0.00    -0.004 C 
ATOM     13  C   UNL     1      31.882  -5.188 -24.733  0.00  0.00    +0.138 C 
ATOM     14  C   UNL     1      33.932  -5.580 -25.950  0.00  0.00    +0.003 C 
ATOM     15  C   UNL     1      32.734  -4.881 -25.793  0.00  0.00    +0.037 C 
BRANCH  13  16
ATOM     16  O   UNL     1      30.714  -4.505 -24.580  0.00  0.00    -0.471 OA
ATOM     17  C   UNL     1      30.676  -3.165 -25.068  0.00  0.00    +0.252 C 
ENDBRANCH  13  16
ENDBRANCH   9  10
ENDBRANCH   8   9
ENDBRANCH   2   8
ENDBRANCH   1   3
BRANCH   1  18
ATOM     18  C   UNL     1      32.216 -13.344 -22.348  0.00  0.00    +0.246 C 
BRANCH  18  19
ATOM     19  C   UNL     1      33.249 -14.051 -23.222  0.00  0.00    +0.192 C 
BRANCH  19  20
ATOM     20  O   UNL     1      34.486 -14.116 -22.504  0.00  0.00    -0.451 OA
BRANCH  20  22
ATOM     21  O   UNL     1      34.816 -14.981 -20.392  0.00  0.00    -0.250 OA
ATOM     22  C   UNL     1      34.580 -15.121 -21.584  0.00  0.00    +0.317 C 
BRANCH  22  23
ATOM     23  C   UNL     1      34.347 -16.444 -22.283  0.00  0.00    +0.121 C 
BRANCH  23  24
ATOM     24  C   UNL     1      34.460 -17.642 -21.348  0.00  0.00    +0.121 C 
BRANCH  24  26
ATOM     25  O   UNL     1      36.327 -18.967 -20.573  0.00  0.00    -0.250 OA
ATOM     26  C   UNL     1      35.813 -18.300 -21.463  0.00  0.00    +0.314 C 
BRANCH  26  27
ATOM     27  O   UNL     1      36.394 -18.094 -22.670  0.00  0.00    -0.480 OA
ATOM     28  H   UNL     1      35.900 -17.713 -23.369  0.00  0.00    +0.295 HD
ENDBRANCH  26  27
ENDBRANCH  24  26
ENDBRANCH  23  24
ENDBRANCH  22  23
ENDBRANCH  20  22
ENDBRANCH  19  20
BRANCH  19  29
ATOM     29  C   UNL     1      33.505 -13.341 -24.553  0.00  0.00    -0.029 C 
BRANCH  29  30
ATOM     30  N   UNL     1      32.934 -14.066 -25.680  0.00  0.00    +0.387 N 
ATOM     31  C   UNL     1      33.220 -13.376 -26.939  0.00  0.00    -0.101 C 
ATOM     32  C   UNL     1      33.447 -15.437 -25.726  0.00  0.00    -0.101 C 
ATOM     33  H   UNL     1      31.922 -14.103 -25.553  0.00  0.00    -0.080 HD
ENDBRANCH  29  30
ENDBRANCH  19  29
ENDBRANCH  18  19
ENDBRANCH   1  18
TORSDOF 15
ENDMDL
MODEL 7
REMARK VINA RESULT:      -9.3      2.335      5.716
REMARK  Name = 5160
REMARK  15 active torsions:
REMARK  status: ('A' for Active; 'I' for Inactive)
REMARK    1  A    between atoms: O_1  and  C_3
REMARK    2  A    between atoms: O_1  and  C_18
REMARK    3  A    between atoms: C_2  and  C_8
REMARK    4  A    between atoms: C_8  and  C_9
REMARK    5  A    between atoms: C_9  and  C_10
REMARK    6  A    between atoms: C_13  and  O_16
REMARK    7  A    between atoms: C_18  and  C_19
REMARK    8  A    between atoms: C_19  and  O_20
REMARK    9  A    between atoms: C_19  and  C_29
REMARK   10  A    between atoms: O_20  and  C_22
REMARK   11  A    between atoms: C_22  and  C_23
REMARK   12  A    between atoms: C_23  and  C_24
REMARK   13  A    between atoms: C_24  and  C_26
REMARK   14  A    between atoms: C_26  and  O_27
REMARK   15  A    between atoms: C_29  and  N_30
REMARK                            x       y       z     vdW  Elec       q    Type
REMARK                         _______ _______ _______ _____ _____    ______ ____
ROOT
ATOM      1  O   UNL     1      35.898 -23.001 -17.529  0.00  0.00    -0.472 OA
ENDROOT
BRANCH   1   3
ATOM      2  C   UNL     1      33.854 -22.353 -18.614  0.00  0.00    +0.012 C 
ATOM      3  C   UNL     1      35.230 -22.214 -18.428  0.00  0.00    +0.135 C 
ATOM      4  C   UNL     1      33.190 -21.543 -19.535  0.00  0.00    -0.001 C 
ATOM      5  C   UNL     1      35.941 -21.264 -19.163  0.00  0.00    +0.037 C 
ATOM      6  C   UNL     1      33.900 -20.594 -20.269  0.00  0.00    -0.000 C 
ATOM      7  C   UNL     1      35.275 -20.455 -20.083  0.00  0.00    +0.003 C 
BRANCH   2   8
ATOM      8  C   UNL     1      33.078 -23.362 -17.836  0.00  0.00    +0.034 C 
BRANCH   8   9
ATOM      9  C   UNL     1      32.585 -22.855 -16.467  0.00  0.00    +0.031 C 
BRANCH   9  10
ATOM     10  C   UNL     1      31.153 -23.228 -16.174  0.00  0.00    -0.019 C 
ATOM     11  C   UNL     1      30.114 -22.416 -16.629  0.00  0.00    +0.033 C 
ATOM     12  C   UNL     1      30.868 -24.383 -15.445  0.00  0.00    -0.004 C 
ATOM     13  C   UNL     1      28.790 -22.761 -16.358  0.00  0.00    +0.138 C 
ATOM     14  C   UNL     1      29.544 -24.727 -15.173  0.00  0.00    +0.003 C 
ATOM     15  C   UNL     1      28.504 -23.915 -15.630  0.00  0.00    +0.037 C 
BRANCH  13  16
ATOM     16  O   UNL     1      27.775 -21.970 -16.803  0.00  0.00    -0.471 OA
ATOM     17  C   UNL     1      26.562 -21.985 -16.052  0.00  0.00    +0.252 C 
ENDBRANCH  13  16
ENDBRANCH   9  10
ENDBRANCH   8   9
ENDBRANCH   2   8
ENDBRANCH   1   3
BRANCH   1  18
ATOM     18  C   UNL     1      36.241 -22.402 -16.284  0.00  0.00    +0.246 C 
BRANCH  18  19
ATOM     19  C   UNL     1      36.589 -23.503 -15.285  0.00  0.00    +0.192 C 
BRANCH  19  20
ATOM     20  O   UNL     1      36.152 -23.094 -13.984  0.00  0.00    -0.451 OA
BRANCH  20  22
ATOM     21  O   UNL     1      34.225 -24.360 -14.032  0.00  0.00    -0.250 OA
ATOM     22  C   UNL     1      35.162 -23.856 -13.430  0.00  0.00    +0.317 C 
BRANCH  22  23
ATOM     23  C   UNL     1      35.413 -23.971 -11.942  0.00  0.00    +0.121 C 
BRANCH  23  24
ATOM     24  C   UNL     1      36.807 -24.489 -11.609  0.00  0.00    +0.121 C 
BRANCH  24  26
ATOM     25  O   UNL     1      39.009 -23.510 -11.787  0.00  0.00    -0.250 OA
ATOM     26  C   UNL     1      37.813 -23.365 -11.565  0.00  0.00    +0.314 C 
BRANCH  26  27
ATOM     27  O   UNL     1      37.248 -22.168 -11.274  0.00  0.00    -0.480 OA
ATOM     28  H   UNL     1      36.315 -22.079 -11.272  0.00  0.00    +0.295 HD
ENDBRANCH  26  27
ENDBRANCH  24  26
ENDBRANCH  23  24
ENDBRANCH  22  23
ENDBRANCH  20  22
ENDBRANCH  19  20
BRANCH  19  29
ATOM     29  C   UNL     1      38.087 -23.804 -15.213  0.00  0.00    -0.029 C 
BRANCH  29  30
ATOM     30  N   UNL     1      38.358 -25.090 -14.583  0.00  0.00    +0.387 N 
ATOM     31  C   UNL     1      37.466 -26.123 -15.112  0.00  0.00    -0.101 C 
ATOM     32  C   UNL     1      39.756 -25.478 -14.778  0.00  0.00    -0.101 C 
ATOM     33  H   UNL     1      38.186 -24.994 -13.581  0.00  0.00    -0.080 HD
ENDBRANCH  29  30
ENDBRANCH  19  29
ENDBRANCH  18  19
ENDBRANCH   1  18
TORSDOF 15
ENDMDL
MODEL 8
REMARK VINA RESULT:      -9.2      1.250      2.198
REMARK  Name = 5160
REMARK  15 active torsions:
REMARK  status: ('A' for Active; 'I' for Inactive)
REMARK    1  A    between atoms: O_1  and  C_3
REMARK    2  A    between atoms: O_1  and  C_18
REMARK    3  A    between atoms: C_2  and  C_8
REMARK    4  A    between atoms: C_8  and  C_9
REMARK    5  A    between atoms: C_9  and  C_10
REMARK    6  A    between atoms: C_13  and  O_16
REMARK    7  A    between atoms: C_18  and  C_19
REMARK    8  A    between atoms: C_19  and  O_20
REMARK    9  A    between atoms: C_19  and  C_29
REMARK   10  A    between atoms: O_20  and  C_22
REMARK   11  A    between atoms: C_22  and  C_23
REMARK   12  A    between atoms: C_23  and  C_24
REMARK   13  A    between atoms: C_24  and  C_26
REMARK   14  A    between atoms: C_26  and  O_27
REMARK   15  A    between atoms: C_29  and  N_30
REMARK                            x       y       z     vdW  Elec       q    Type
REMARK                         _______ _______ _______ _____ _____    ______ ____
ROOT
ATOM      1  O   UNL     1      35.028 -23.662 -15.908  0.00  0.00    -0.472 OA
ENDROOT
BRANCH   1   3
ATOM      2  C   UNL     1      33.037 -23.037 -17.098  0.00  0.00    +0.012 C 
ATOM      3  C   UNL     1      33.681 -23.421 -15.921  0.00  0.00    +0.135 C 
ATOM      4  C   UNL     1      31.663 -22.794 -17.093  0.00  0.00    -0.001 C 
ATOM      5  C   UNL     1      32.951 -23.562 -14.741  0.00  0.00    +0.037 C 
ATOM      6  C   UNL     1      30.934 -22.935 -15.913  0.00  0.00    -0.000 C 
ATOM      7  C   UNL     1      31.577 -23.319 -14.737  0.00  0.00    +0.003 C 
BRANCH   2   8
ATOM      8  C   UNL     1      33.802 -22.882 -18.370  0.00  0.00    +0.034 C 
BRANCH   8   9
ATOM      9  C   UNL     1      33.217 -21.827 -19.329  0.00  0.00    +0.031 C 
BRANCH   9  10
ATOM     10  C   UNL     1      34.262 -20.910 -19.914  0.00  0.00    -0.019 C 
ATOM     11  C   UNL     1      33.880 -19.861 -20.751  0.00  0.00    +0.033 C 
ATOM     12  C   UNL     1      35.611 -21.112 -19.620  0.00  0.00    -0.004 C 
ATOM     13  C   UNL     1      34.846 -19.014 -21.292  0.00  0.00    +0.138 C 
ATOM     14  C   UNL     1      36.577 -20.264 -20.162  0.00  0.00    +0.003 C 
ATOM     15  C   UNL     1      36.194 -19.214 -20.998  0.00  0.00    +0.037 C 
BRANCH  13  16
ATOM     16  O   UNL     1      34.474 -17.989 -22.108  0.00  0.00    -0.471 OA
ATOM     17  C   UNL     1      35.120 -17.902 -23.377  0.00  0.00    +0.252 C 
ENDBRANCH  13  16
ENDBRANCH   9  10
ENDBRANCH   8   9
ENDBRANCH   2   8
ENDBRANCH   1   3
BRANCH   1  18
ATOM     18  C   UNL     1      35.859 -22.627 -15.390  0.00  0.00    +0.246 C 
BRANCH  18  19
ATOM     19  C   UNL     1      36.872 -23.242 -14.428  0.00  0.00    +0.192 C 
BRANCH  19  20
ATOM     20  O   UNL     1      37.684 -24.172 -15.154  0.00  0.00    -0.451 OA
BRANCH  20  22
ATOM     21  O   UNL     1      39.769 -24.601 -14.266  0.00  0.00    -0.250 OA
ATOM     22  C   UNL     1      38.585 -24.875 -14.404  0.00  0.00    +0.317 C 
BRANCH  22  23
ATOM     23  C   UNL     1      37.877 -26.054 -13.773  0.00  0.00    +0.121 C 
BRANCH  23  24
ATOM     24  C   UNL     1      37.797 -27.266 -14.693  0.00  0.00    +0.121 C 
BRANCH  24  26
ATOM     25  O   UNL     1      36.610 -27.632 -16.766  0.00  0.00    -0.250 OA
ATOM     26  C   UNL     1      36.622 -27.163 -15.635  0.00  0.00    +0.314 C 
BRANCH  26  27
ATOM     27  O   UNL     1      35.568 -26.511 -15.086  0.00  0.00    -0.480 OA
ATOM     28  H   UNL     1      34.995 -26.006 -15.629  0.00  0.00    +0.295 HD
ENDBRANCH  26  27
ENDBRANCH  24  26
ENDBRANCH  23  24
ENDBRANCH  22  23
ENDBRANCH  20  22
ENDBRANCH  19  20
BRANCH  19  29
ATOM     29  C   UNL     1      36.223 -23.986 -13.259  0.00  0.00    -0.029 C 
BRANCH  29  30
ATOM     30  N   UNL     1      36.288 -23.223 -12.020  0.00  0.00    +0.387 N 
ATOM     31  C   UNL     1      35.833 -24.032 -10.888  0.00  0.00    -0.101 C 
ATOM     32  C   UNL     1      37.649 -22.738 -11.782  0.00  0.00    -0.101 C 
ATOM     33  H   UNL     1      35.669 -22.416 -12.112  0.00  0.00    -0.080 HD
ENDBRANCH  29  30
ENDBRANCH  19  29
ENDBRANCH  18  19
ENDBRANCH   1  18
TORSDOF 15
ENDMDL
MODEL 9
REMARK VINA RESULT:      -9.1      6.308     11.952
REMARK  Name = 5160
REMARK  15 active torsions:
REMARK  status: ('A' for Active; 'I' for Inactive)
REMARK    1  A    between atoms: O_1  and  C_3
REMARK    2  A    between atoms: O_1  and  C_18
REMARK    3  A    between atoms: C_2  and  C_8
REMARK    4  A    between atoms: C_8  and  C_9
REMARK    5  A    between atoms: C_9  and  C_10
REMARK    6  A    between atoms: C_13  and  O_16
REMARK    7  A    between atoms: C_18  and  C_19
REMARK    8  A    between atoms: C_19  and  O_20
REMARK    9  A    between atoms: C_19  and  C_29
REMARK   10  A    between atoms: O_20  and  C_22
REMARK   11  A    between atoms: C_22  and  C_23
REMARK   12  A    between atoms: C_23  and  C_24
REMARK   13  A    between atoms: C_24  and  C_26
REMARK   14  A    between atoms: C_26  and  O_27
REMARK   15  A    between atoms: C_29  and  N_30
REMARK                            x       y       z     vdW  Elec       q    Type
REMARK                         _______ _______ _______ _____ _____    ______ ____
ROOT
ATOM      1  O   UNL     1      34.815 -14.945 -23.182  0.00  0.00    -0.472 OA
ENDROOT
BRANCH   1   3
ATOM      2  C   UNL     1      33.657 -13.559 -24.766  0.00  0.00    +0.012 C 
ATOM      3  C   UNL     1      34.111 -14.810 -24.348  0.00  0.00    +0.135 C 
ATOM      4  C   UNL     1      32.940 -13.439 -25.956  0.00  0.00    -0.001 C 
ATOM      5  C   UNL     1      33.848 -15.941 -25.121  0.00  0.00    +0.037 C 
ATOM      6  C   UNL     1      32.678 -14.570 -26.729  0.00  0.00    -0.000 C 
ATOM      7  C   UNL     1      33.132 -15.820 -26.312  0.00  0.00    +0.003 C 
BRANCH   2   8
ATOM      8  C   UNL     1      33.929 -12.338 -23.952  0.00  0.00    +0.034 C 
BRANCH   8   9
ATOM      9  C   UNL     1      34.128 -11.059 -24.787  0.00  0.00    +0.031 C 
BRANCH   9  10
ATOM     10  C   UNL     1      33.981  -9.792 -23.981  0.00  0.00    -0.019 C 
ATOM     11  C   UNL     1      32.973  -9.687 -23.023  0.00  0.00    +0.033 C 
ATOM     12  C   UNL     1      34.854  -8.724 -24.194  0.00  0.00    -0.004 C 
ATOM     13  C   UNL     1      32.837  -8.515 -22.278  0.00  0.00    +0.138 C 
ATOM     14  C   UNL     1      34.718  -7.553 -23.449  0.00  0.00    +0.003 C 
ATOM     15  C   UNL     1      33.709  -7.449 -22.491  0.00  0.00    +0.037 C 
BRANCH  13  16
ATOM     16  O   UNL     1      31.853  -8.413 -21.343  0.00  0.00    -0.471 OA
ATOM     17  C   UNL     1      32.023  -9.157 -20.137  0.00  0.00    +0.252 C 
ENDBRANCH  13  16
ENDBRANCH   9  10
ENDBRANCH   8   9
ENDBRANCH   2   8
ENDBRANCH   1   3
BRANCH   1  18
ATOM     18  C   UNL     1      35.163 -16.271 -22.794  0.00  0.00    +0.246 C 
BRANCH  18  19
ATOM     19  C   UNL     1      34.964 -16.413 -21.287  0.00  0.00    +0.192 C 
BRANCH  19  20
ATOM     20  O   UNL     1      34.178 -17.584 -21.039  0.00  0.00    -0.451 OA
BRANCH  20  22
ATOM     21  O   UNL     1      36.050 -18.868 -20.626  0.00  0.00    -0.250 OA
ATOM     22  C   UNL     1      34.879 -18.755 -20.961  0.00  0.00    +0.317 C 
BRANCH  22  23
ATOM     23  C   UNL     1      33.966 -19.895 -21.361  0.00  0.00    +0.121 C 
BRANCH  23  24
ATOM     24  C   UNL     1      33.032 -20.335 -20.240  0.00  0.00    +0.121 C 
BRANCH  24  26
ATOM     25  O   UNL     1      34.773 -21.840 -19.500  0.00  0.00    -0.250 OA
ATOM     26  C   UNL     1      33.589 -21.525 -19.497  0.00  0.00    +0.314 C 
BRANCH  26  27
ATOM     27  O   UNL     1      32.639 -22.199 -18.804  0.00  0.00    -0.480 OA
ATOM     28  H   UNL     1      32.361 -23.046 -19.093  0.00  0.00    +0.295 HD
ENDBRANCH  26  27
ENDBRANCH  24  26
ENDBRANCH  23  24
ENDBRANCH  22  23
ENDBRANCH  20  22
ENDBRANCH  19  20
BRANCH  19  29
ATOM     29  C   UNL     1      34.249 -15.217 -20.655  0.00  0.00    -0.029 C 
BRANCH  29  30
ATOM     30  N   UNL     1      32.888 -15.066 -21.153  0.00  0.00    +0.387 N 
ATOM     31  C   UNL     1      31.972 -15.952 -20.431  0.00  0.00    -0.101 C 
ATOM     32  C   UNL     1      32.445 -13.676 -21.036  0.00  0.00    -0.101 C 
ATOM     33  H   UNL     1      32.881 -15.327 -22.140  0.00  0.00    -0.080 HD
ENDBRANCH  29  30
ENDBRANCH  19  29
ENDBRANCH  18  19
ENDBRANCH   1  18
TORSDOF 15
ENDMDL
