MODEL 1
REMARK VINA RESULT:      -8.2      0.000      0.000
REMARK  Name = 232446
REMARK  4 active torsions:
REMARK  status: ('A' for Active; 'I' for Inactive)
REMARK    1  A    between atoms: C_1  and  C_7
REMARK    2  A    between atoms: C_1  and  C_15
REMARK    3  A    between atoms: C_12  and  O_13
REMARK    4  A    between atoms: C_20  and  O_21
REMARK                            x       y       z     vdW  Elec       q    Type
REMARK                         _______ _______ _______ _____ _____    ______ ____
ROOT
ATOM      1  C   UNL     1      31.829  -8.653 -22.286  0.00  0.00    +0.038 C 
ATOM      2  C   UNL     1      30.609  -9.633 -22.416  0.00  0.00    +0.008 C 
ATOM      3  C   UNL     1      32.145  -8.597 -20.748  0.00  0.00    +0.008 C 
ATOM      4  C   UNL     1      30.853 -11.012 -21.800  0.00  0.00    +0.001 C 
ATOM      5  C   UNL     1      32.340  -9.961 -20.074  0.00  0.00    +0.001 C 
ATOM      6  C   UNL     1      31.167 -10.898 -20.317  0.00  0.00    +0.000 C 
ENDROOT
BRANCH   1   7
ATOM      7  C   UNL     1      33.003  -9.148 -23.172  0.00  0.00    -0.019 C 
ATOM      8  C   UNL     1      34.095  -8.315 -23.407  0.00  0.00    -0.001 C 
ATOM      9  C   UNL     1      32.962 -10.424 -23.731  0.00  0.00    -0.001 C 
ATOM     10  C   UNL     1      35.150  -8.760 -24.203  0.00  0.00    +0.036 C 
ATOM     11  C   UNL     1      34.016 -10.868 -24.527  0.00  0.00    +0.036 C 
ATOM     12  C   UNL     1      35.111 -10.037 -24.764  0.00  0.00    +0.134 C 
BRANCH  12  13
ATOM     13  O   UNL     1      36.141 -10.469 -25.541  0.00  0.00    -0.506 OA
ATOM     14  H   UNL     1      36.000 -11.148 -26.171  0.00  0.00    +0.292 HD
ENDBRANCH  12  13
ENDBRANCH   1   7
BRANCH   1  15
ATOM     15  C   UNL     1      31.474  -7.208 -22.741  0.00  0.00    -0.019 C 
ATOM     16  C   UNL     1      31.186  -6.953 -24.079  0.00  0.00    -0.001 C 
ATOM     17  C   UNL     1      31.446  -6.174 -21.807  0.00  0.00    -0.001 C 
ATOM     18  C   UNL     1      30.867  -5.657 -24.486  0.00  0.00    +0.036 C 
ATOM     19  C   UNL     1      31.129  -4.878 -22.214  0.00  0.00    +0.036 C 
ATOM     20  C   UNL     1      30.839  -4.620 -23.554  0.00  0.00    +0.134 C 
BRANCH  20  21
ATOM     21  O   UNL     1      30.529  -3.356 -23.951  0.00  0.00    -0.506 OA
ATOM     22  H   UNL     1      29.639  -3.131 -24.145  0.00  0.00    +0.292 HD
ENDBRANCH  20  21
ENDBRANCH   1  15
TORSDOF 4
ENDMDL
MODEL 2
REMARK VINA RESULT:      -7.6      2.260      4.554
REMARK  Name = 232446
REMARK  4 active torsions:
REMARK  status: ('A' for Active; 'I' for Inactive)
REMARK    1  A    between atoms: C_1  and  C_7
REMARK    2  A    between atoms: C_1  and  C_15
REMARK    3  A    between atoms: C_12  and  O_13
REMARK    4  A    between atoms: C_20  and  O_21
REMARK                            x       y       z     vdW  Elec       q    Type
REMARK                         _______ _______ _______ _____ _____    ______ ____
ROOT
ATOM      1  C   UNL     1      32.047  -8.169 -22.669  0.00  0.00    +0.038 C 
ATOM      2  C   UNL     1      32.444  -6.695 -22.303  0.00  0.00    +0.008 C 
ATOM      3  C   UNL     1      30.659  -8.049 -23.397  0.00  0.00    +0.008 C 
ATOM      4  C   UNL     1      32.473  -5.745 -23.502  0.00  0.00    +0.001 C 
ATOM      5  C   UNL     1      30.624  -7.062 -24.571  0.00  0.00    +0.001 C 
ATOM      6  C   UNL     1      31.111  -5.677 -24.175  0.00  0.00    +0.000 C 
ENDROOT
BRANCH   1   7
ATOM      7  C   UNL     1      33.169  -8.826 -23.516  0.00  0.00    -0.019 C 
ATOM      8  C   UNL     1      34.306  -8.093 -23.850  0.00  0.00    -0.001 C 
ATOM      9  C   UNL     1      33.037 -10.147 -23.940  0.00  0.00    -0.001 C 
ATOM     10  C   UNL     1      35.315  -8.684 -24.610  0.00  0.00    +0.036 C 
ATOM     11  C   UNL     1      34.045 -10.738 -24.700  0.00  0.00    +0.036 C 
ATOM     12  C   UNL     1      35.185 -10.007 -25.036  0.00  0.00    +0.134 C 
BRANCH  12  13
ATOM     13  O   UNL     1      36.170 -10.582 -25.779  0.00  0.00    -0.506 OA
ATOM     14  H   UNL     1      36.364 -11.492 -25.674  0.00  0.00    +0.292 HD
ENDBRANCH  12  13
ENDBRANCH   1   7
BRANCH   1  15
ATOM     15  C   UNL     1      31.833  -9.052 -21.406  0.00  0.00    -0.019 C 
ATOM     16  C   UNL     1      32.362  -8.650 -20.182  0.00  0.00    -0.001 C 
ATOM     17  C   UNL     1      31.115 -10.242 -21.504  0.00  0.00    -0.001 C 
ATOM     18  C   UNL     1      32.171  -9.442 -19.049  0.00  0.00    +0.036 C 
ATOM     19  C   UNL     1      30.924 -11.034 -20.372  0.00  0.00    +0.036 C 
ATOM     20  C   UNL     1      31.452 -10.634 -19.144  0.00  0.00    +0.134 C 
BRANCH  20  21
ATOM     21  O   UNL     1      31.266 -11.406 -18.039  0.00  0.00    -0.506 OA
ATOM     22  H   UNL     1      30.464 -11.878 -17.927  0.00  0.00    +0.292 HD
ENDBRANCH  20  21
ENDBRANCH   1  15
TORSDOF 4
ENDMDL
MODEL 3
REMARK VINA RESULT:      -7.5      1.010      5.126
REMARK  Name = 232446
REMARK  4 active torsions:
REMARK  status: ('A' for Active; 'I' for Inactive)
REMARK    1  A    between atoms: C_1  and  C_7
REMARK    2  A    between atoms: C_1  and  C_15
REMARK    3  A    between atoms: C_12  and  O_13
REMARK    4  A    between atoms: C_20  and  O_21
REMARK                            x       y       z     vdW  Elec       q    Type
REMARK                         _______ _______ _______ _____ _____    ______ ____
ROOT
ATOM      1  C   UNL     1      32.279  -9.668 -22.003  0.00  0.00    +0.038 C 
ATOM      2  C   UNL     1      32.949  -9.925 -20.606  0.00  0.00    +0.008 C 
ATOM      3  C   UNL     1      31.173 -10.777 -22.135  0.00  0.00    +0.008 C 
ATOM      4  C   UNL     1      31.962  -9.935 -19.437  0.00  0.00    +0.001 C 
ATOM      5  C   UNL     1      30.195 -10.864 -20.957  0.00  0.00    +0.001 C 
ATOM      6  C   UNL     1      30.909 -11.016 -19.623  0.00  0.00    +0.000 C 
ENDROOT
BRANCH   1   7
ATOM      7  C   UNL     1      31.749  -8.211 -22.076  0.00  0.00    -0.019 C 
ATOM      8  C   UNL     1      32.058  -7.308 -21.060  0.00  0.00    -0.001 C 
ATOM      9  C   UNL     1      30.966  -7.810 -23.157  0.00  0.00    -0.001 C 
ATOM     10  C   UNL     1      31.582  -5.999 -21.126  0.00  0.00    +0.036 C 
ATOM     11  C   UNL     1      30.489  -6.502 -23.222  0.00  0.00    +0.036 C 
ATOM     12  C   UNL     1      30.797  -5.595 -22.207  0.00  0.00    +0.134 C 
BRANCH  12  13
ATOM     13  O   UNL     1      30.332  -4.317 -22.270  0.00  0.00    -0.506 OA
ATOM     14  H   UNL     1      30.103  -3.943 -23.097  0.00  0.00    +0.292 HD
ENDBRANCH  12  13
ENDBRANCH   1   7
BRANCH   1  15
ATOM     15  C   UNL     1      33.278  -9.864 -23.179  0.00  0.00    -0.019 C 
ATOM     16  C   UNL     1      34.154  -8.838 -23.524  0.00  0.00    -0.001 C 
ATOM     17  C   UNL     1      33.290 -11.066 -23.886  0.00  0.00    -0.001 C 
ATOM     18  C   UNL     1      35.049  -9.015 -24.579  0.00  0.00    +0.036 C 
ATOM     19  C   UNL     1      34.185 -11.242 -24.942  0.00  0.00    +0.036 C 
ATOM     20  C   UNL     1      35.064 -10.216 -25.288  0.00  0.00    +0.134 C 
BRANCH  20  21
ATOM     21  O   UNL     1      35.938 -10.387 -26.317  0.00  0.00    -0.506 OA
ATOM     22  H   UNL     1      36.410  -9.653 -26.658  0.00  0.00    +0.292 HD
ENDBRANCH  20  21
ENDBRANCH   1  15
TORSDOF 4
ENDMDL
MODEL 4
REMARK VINA RESULT:      -7.5     14.815     17.474
REMARK  Name = 232446
REMARK  4 active torsions:
REMARK  status: ('A' for Active; 'I' for Inactive)
REMARK    1  A    between atoms: C_1  and  C_7
REMARK    2  A    between atoms: C_1  and  C_15
REMARK    3  A    between atoms: C_12  and  O_13
REMARK    4  A    between atoms: C_20  and  O_21
REMARK                            x       y       z     vdW  Elec       q    Type
REMARK                         _______ _______ _______ _____ _____    ______ ____
ROOT
ATOM      1  C   UNL     1      35.065 -23.925 -14.813  0.00  0.00    +0.038 C 
ATOM      2  C   UNL     1      35.649 -25.375 -14.955  0.00  0.00    +0.008 C 
ATOM      3  C   UNL     1      35.629 -23.390 -13.447  0.00  0.00    +0.008 C 
ATOM      4  C   UNL     1      37.176 -25.440 -14.867  0.00  0.00    +0.001 C 
ATOM      5  C   UNL     1      37.151 -23.489 -13.289  0.00  0.00    +0.001 C 
ATOM      6  C   UNL     1      37.667 -24.899 -13.533  0.00  0.00    +0.000 C 
ENDROOT
BRANCH   1   7
ATOM      7  C   UNL     1      35.450 -23.074 -16.052  0.00  0.00    -0.019 C 
ATOM      8  C   UNL     1      34.644 -23.098 -17.188  0.00  0.00    -0.001 C 
ATOM      9  C   UNL     1      36.601 -22.289 -16.025  0.00  0.00    -0.001 C 
ATOM     10  C   UNL     1      34.991 -22.332 -18.302  0.00  0.00    +0.036 C 
ATOM     11  C   UNL     1      36.948 -21.524 -17.138  0.00  0.00    +0.036 C 
ATOM     12  C   UNL     1      36.143 -21.546 -18.277  0.00  0.00    +0.134 C 
BRANCH  12  13
ATOM     13  O   UNL     1      36.480 -20.800 -19.365  0.00  0.00    -0.506 OA
ATOM     14  H   UNL     1      36.403 -21.164 -20.224  0.00  0.00    +0.292 HD
ENDBRANCH  12  13
ENDBRANCH   1   7
BRANCH   1  15
ATOM     15  C   UNL     1      33.513 -23.924 -14.707  0.00  0.00    -0.019 C 
ATOM     16  C   UNL     1      32.786 -22.827 -15.162  0.00  0.00    -0.001 C 
ATOM     17  C   UNL     1      32.855 -25.022 -14.155  0.00  0.00    -0.001 C 
ATOM     18  C   UNL     1      31.395 -22.827 -15.067  0.00  0.00    +0.036 C 
ATOM     19  C   UNL     1      31.463 -25.022 -14.059  0.00  0.00    +0.036 C 
ATOM     20  C   UNL     1      30.733 -23.924 -14.515  0.00  0.00    +0.134 C 
BRANCH  20  21
ATOM     21  O   UNL     1      29.376 -23.923 -14.422  0.00  0.00    -0.506 OA
ATOM     22  H   UNL     1      28.903 -24.732 -14.457  0.00  0.00    +0.292 HD
ENDBRANCH  20  21
ENDBRANCH   1  15
TORSDOF 4
ENDMDL
MODEL 5
REMARK VINA RESULT:      -7.3      6.902     10.108
REMARK  Name = 232446
REMARK  4 active torsions:
REMARK  status: ('A' for Active; 'I' for Inactive)
REMARK    1  A    between atoms: C_1  and  C_7
REMARK    2  A    between atoms: C_1  and  C_15
REMARK    3  A    between atoms: C_12  and  O_13
REMARK    4  A    between atoms: C_20  and  O_21
REMARK                            x       y       z     vdW  Elec       q    Type
REMARK                         _______ _______ _______ _____ _____    ______ ____
ROOT
ATOM      1  C   UNL     1      33.864 -16.269 -21.383  0.00  0.00    +0.038 C 
ATOM      2  C   UNL     1      34.750 -15.176 -20.686  0.00  0.00    +0.008 C 
ATOM      3  C   UNL     1      32.473 -16.190 -20.656  0.00  0.00    +0.008 C 
ATOM      4  C   UNL     1      34.137 -13.774 -20.708  0.00  0.00    +0.001 C 
ATOM      5  C   UNL     1      31.846 -14.791 -20.602  0.00  0.00    +0.001 C 
ATOM      6  C   UNL     1      32.790 -13.758 -20.005  0.00  0.00    +0.000 C 
ENDROOT
BRANCH   1   7
ATOM      7  C   UNL     1      33.813 -16.014 -22.912  0.00  0.00    -0.019 C 
ATOM      8  C   UNL     1      33.192 -14.868 -23.405  0.00  0.00    -0.001 C 
ATOM      9  C   UNL     1      34.388 -16.932 -23.789  0.00  0.00    -0.001 C 
ATOM     10  C   UNL     1      33.146 -14.639 -24.780  0.00  0.00    +0.036 C 
ATOM     11  C   UNL     1      34.342 -16.703 -25.164  0.00  0.00    +0.036 C 
ATOM     12  C   UNL     1      33.721 -15.556 -25.660  0.00  0.00    +0.134 C 
BRANCH  12  13
ATOM     13  O   UNL     1      33.676 -15.331 -27.002  0.00  0.00    -0.506 OA
ATOM     14  H   UNL     1      32.975 -14.830 -27.369  0.00  0.00    +0.292 HD
ENDBRANCH  12  13
ENDBRANCH   1   7
BRANCH   1  15
ATOM     15  C   UNL     1      34.421 -17.705 -21.164  0.00  0.00    -0.019 C 
ATOM     16  C   UNL     1      33.543 -18.770 -20.983  0.00  0.00    -0.001 C 
ATOM     17  C   UNL     1      35.798 -17.920 -21.150  0.00  0.00    -0.001 C 
ATOM     18  C   UNL     1      34.043 -20.058 -20.787  0.00  0.00    +0.036 C 
ATOM     19  C   UNL     1      36.299 -19.208 -20.953  0.00  0.00    +0.036 C 
ATOM     20  C   UNL     1      35.421 -20.276 -20.772  0.00  0.00    +0.134 C 
BRANCH  20  21
ATOM     21  O   UNL     1      35.908 -21.532 -20.580  0.00  0.00    -0.506 OA
ATOM     22  H   UNL     1      35.345 -22.209 -20.257  0.00  0.00    +0.292 HD
ENDBRANCH  20  21
ENDBRANCH   1  15
TORSDOF 4
ENDMDL
MODEL 6
REMARK VINA RESULT:      -7.3     15.009     17.796
REMARK  Name = 232446
REMARK  4 active torsions:
REMARK  status: ('A' for Active; 'I' for Inactive)
REMARK    1  A    between atoms: C_1  and  C_7
REMARK    2  A    between atoms: C_1  and  C_15
REMARK    3  A    between atoms: C_12  and  O_13
REMARK    4  A    between atoms: C_20  and  O_21
REMARK                            x       y       z     vdW  Elec       q    Type
REMARK                         _______ _______ _______ _____ _____    ______ ____
ROOT
ATOM      1  C   UNL     1      33.377 -23.715 -15.128  0.00  0.00    +0.038 C 
ATOM      2  C   UNL     1      32.298 -24.813 -15.433  0.00  0.00    +0.008 C 
ATOM      3  C   UNL     1      32.585 -22.543 -14.443  0.00  0.00    +0.008 C 
ATOM      4  C   UNL     1      31.505 -25.261 -14.203  0.00  0.00    +0.001 C 
ATOM      5  C   UNL     1      31.728 -22.955 -13.240  0.00  0.00    +0.001 C 
ATOM      6  C   UNL     1      30.770 -24.088 -13.574  0.00  0.00    +0.000 C 
ENDROOT
BRANCH   1   7
ATOM      7  C   UNL     1      34.519 -24.317 -14.267  0.00  0.00    -0.019 C 
ATOM      8  C   UNL     1      35.402 -25.235 -14.830  0.00  0.00    -0.001 C 
ATOM      9  C   UNL     1      34.657 -23.938 -12.933  0.00  0.00    -0.001 C 
ATOM     10  C   UNL     1      36.429 -25.777 -14.056  0.00  0.00    +0.036 C 
ATOM     11  C   UNL     1      35.682 -24.480 -12.159  0.00  0.00    +0.036 C 
ATOM     12  C   UNL     1      36.569 -25.400 -12.720  0.00  0.00    +0.134 C 
BRANCH  12  13
ATOM     13  O   UNL     1      37.570 -25.929 -11.966  0.00  0.00    -0.506 OA
ATOM     14  H   UNL     1      38.319 -25.409 -11.750  0.00  0.00    +0.292 HD
ENDBRANCH  12  13
ENDBRANCH   1   7
BRANCH   1  15
ATOM     15  C   UNL     1      34.019 -23.145 -16.426  0.00  0.00    -0.019 C 
ATOM     16  C   UNL     1      33.294 -23.143 -17.615  0.00  0.00    -0.001 C 
ATOM     17  C   UNL     1      35.317 -22.639 -16.394  0.00  0.00    -0.001 C 
ATOM     18  C   UNL     1      33.870 -22.632 -18.779  0.00  0.00    +0.036 C 
ATOM     19  C   UNL     1      35.893 -22.128 -17.558  0.00  0.00    +0.036 C 
ATOM     20  C   UNL     1      35.169 -22.125 -18.750  0.00  0.00    +0.134 C 
BRANCH  20  21
ATOM     21  O   UNL     1      35.730 -21.627 -19.885  0.00  0.00    -0.506 OA
ATOM     22  H   UNL     1      36.240 -20.841 -19.850  0.00  0.00    +0.292 HD
ENDBRANCH  20  21
ENDBRANCH   1  15
TORSDOF 4
ENDMDL
MODEL 7
REMARK VINA RESULT:      -7.2     14.632     17.639
REMARK  Name = 232446
REMARK  4 active torsions:
REMARK  status: ('A' for Active; 'I' for Inactive)
REMARK    1  A    between atoms: C_1  and  C_7
REMARK    2  A    between atoms: C_1  and  C_15
REMARK    3  A    between atoms: C_12  and  O_13
REMARK    4  A    between atoms: C_20  and  O_21
REMARK                            x       y       z     vdW  Elec       q    Type
REMARK                         _______ _______ _______ _____ _____    ______ ____
ROOT
ATOM      1  C   UNL     1      35.322 -23.624 -15.095  0.00  0.00    +0.038 C 
ATOM      2  C   UNL     1      36.090 -22.785 -14.012  0.00  0.00    +0.008 C 
ATOM      3  C   UNL     1      36.112 -24.979 -15.197  0.00  0.00    +0.008 C 
ATOM      4  C   UNL     1      36.240 -23.498 -12.667  0.00  0.00    +0.001 C 
ATOM      5  C   UNL     1      36.339 -25.701 -13.863  0.00  0.00    +0.001 C 
ATOM      6  C   UNL     1      36.998 -24.806 -12.826  0.00  0.00    +0.000 C 
ENDROOT
BRANCH   1   7
ATOM      7  C   UNL     1      33.831 -23.771 -14.692  0.00  0.00    -0.019 C 
ATOM      8  C   UNL     1      33.344 -25.007 -14.272  0.00  0.00    -0.001 C 
ATOM      9  C   UNL     1      32.983 -22.667 -14.752  0.00  0.00    -0.001 C 
ATOM     10  C   UNL     1      32.004 -25.139 -13.909  0.00  0.00    +0.036 C 
ATOM     11  C   UNL     1      31.643 -22.799 -14.390  0.00  0.00    +0.036 C 
ATOM     12  C   UNL     1      31.152 -24.035 -13.969  0.00  0.00    +0.134 C 
BRANCH  12  13
ATOM     13  O   UNL     1      29.845 -24.165 -13.616  0.00  0.00    -0.506 OA
ATOM     14  H   UNL     1      29.505 -23.679 -12.891  0.00  0.00    +0.292 HD
ENDBRANCH  12  13
ENDBRANCH   1   7
BRANCH   1  15
ATOM     15  C   UNL     1      35.366 -22.954 -16.498  0.00  0.00    -0.019 C 
ATOM     16  C   UNL     1      36.496 -22.241 -16.892  0.00  0.00    -0.001 C 
ATOM     17  C   UNL     1      34.273 -23.068 -17.356  0.00  0.00    -0.001 C 
ATOM     18  C   UNL     1      36.535 -21.641 -18.150  0.00  0.00    +0.036 C 
ATOM     19  C   UNL     1      34.311 -22.466 -18.614  0.00  0.00    +0.036 C 
ATOM     20  C   UNL     1      35.443 -21.752 -19.011  0.00  0.00    +0.134 C 
BRANCH  20  21
ATOM     21  O   UNL     1      35.481 -21.166 -20.238  0.00  0.00    -0.506 OA
ATOM     22  H   UNL     1      35.426 -20.233 -20.313  0.00  0.00    +0.292 HD
ENDBRANCH  20  21
ENDBRANCH   1  15
TORSDOF 4
ENDMDL
MODEL 8
REMARK VINA RESULT:      -7.1     15.165     18.135
REMARK  Name = 232446
REMARK  4 active torsions:
REMARK  status: ('A' for Active; 'I' for Inactive)
REMARK    1  A    between atoms: C_1  and  C_7
REMARK    2  A    between atoms: C_1  and  C_15
REMARK    3  A    between atoms: C_12  and  O_13
REMARK    4  A    between atoms: C_20  and  O_21
REMARK                            x       y       z     vdW  Elec       q    Type
REMARK                         _______ _______ _______ _____ _____    ______ ____
ROOT
ATOM      1  C   UNL     1      33.351 -23.897 -14.650  0.00  0.00    +0.038 C 
ATOM      2  C   UNL     1      32.611 -22.781 -13.830  0.00  0.00    +0.008 C 
ATOM      3  C   UNL     1      32.315 -25.073 -14.765  0.00  0.00    +0.008 C 
ATOM      4  C   UNL     1      31.274 -22.350 -14.437  0.00  0.00    +0.001 C 
ATOM      5  C   UNL     1      30.939 -24.676 -15.313  0.00  0.00    +0.001 C 
ATOM      6  C   UNL     1      30.317 -23.527 -14.536  0.00  0.00    +0.000 C 
ENDROOT
BRANCH   1   7
ATOM      7  C   UNL     1      33.835 -23.324 -16.009  0.00  0.00    -0.019 C 
ATOM      8  C   UNL     1      35.114 -22.783 -16.117  0.00  0.00    -0.001 C 
ATOM      9  C   UNL     1      32.989 -23.354 -17.116  0.00  0.00    -0.001 C 
ATOM     10  C   UNL     1      35.549 -22.268 -17.338  0.00  0.00    +0.036 C 
ATOM     11  C   UNL     1      33.424 -22.839 -18.336  0.00  0.00    +0.036 C 
ATOM     12  C   UNL     1      34.705 -22.296 -18.449  0.00  0.00    +0.134 C 
BRANCH  12  13
ATOM     13  O   UNL     1      35.130 -21.793 -19.639  0.00  0.00    -0.506 OA
ATOM     14  H   UNL     1      35.965 -21.372 -19.699  0.00  0.00    +0.292 HD
ENDBRANCH  12  13
ENDBRANCH   1   7
BRANCH   1  15
ATOM     15  C   UNL     1      34.598 -24.448 -13.901  0.00  0.00    -0.019 C 
ATOM     16  C   UNL     1      35.510 -25.258 -14.573  0.00  0.00    -0.001 C 
ATOM     17  C   UNL     1      34.798 -24.129 -12.559  0.00  0.00    -0.001 C 
ATOM     18  C   UNL     1      36.628 -25.751 -13.901  0.00  0.00    +0.036 C 
ATOM     19  C   UNL     1      35.916 -24.623 -11.886  0.00  0.00    +0.036 C 
ATOM     20  C   UNL     1      36.831 -25.435 -12.558  0.00  0.00    +0.134 C 
BRANCH  20  21
ATOM     21  O   UNL     1      37.922 -25.917 -11.903  0.00  0.00    -0.506 OA
ATOM     22  H   UNL     1      38.201 -26.801 -12.044  0.00  0.00    +0.292 HD
ENDBRANCH  20  21
ENDBRANCH   1  15
TORSDOF 4
ENDMDL
MODEL 9
REMARK VINA RESULT:      -6.9      2.273      5.139
REMARK  Name = 232446
REMARK  4 active torsions:
REMARK  status: ('A' for Active; 'I' for Inactive)
REMARK    1  A    between atoms: C_1  and  C_7
REMARK    2  A    between atoms: C_1  and  C_15
REMARK    3  A    between atoms: C_12  and  O_13
REMARK    4  A    between atoms: C_20  and  O_21
REMARK                            x       y       z     vdW  Elec       q    Type
REMARK                         _______ _______ _______ _____ _____    ______ ____
ROOT
ATOM      1  C   UNL     1      32.412  -7.674 -23.110  0.00  0.00    +0.038 C 
ATOM      2  C   UNL     1      32.885  -7.149 -21.708  0.00  0.00    +0.008 C 
ATOM      3  C   UNL     1      30.844  -7.577 -23.075  0.00  0.00    +0.008 C 
ATOM      4  C   UNL     1      32.374  -5.747 -21.368  0.00  0.00    +0.001 C 
ATOM      5  C   UNL     1      30.286  -6.204 -22.681  0.00  0.00    +0.001 C 
ATOM      6  C   UNL     1      30.855  -5.708 -21.360  0.00  0.00    +0.000 C 
ENDROOT
BRANCH   1   7
ATOM      7  C   UNL     1      33.088  -6.852 -24.240  0.00  0.00    -0.019 C 
ATOM      8  C   UNL     1      34.458  -6.975 -24.463  0.00  0.00    -0.001 C 
ATOM      9  C   UNL     1      32.323  -5.993 -25.027  0.00  0.00    -0.001 C 
ATOM     10  C   UNL     1      35.065  -6.236 -25.479  0.00  0.00    +0.036 C 
ATOM     11  C   UNL     1      32.930  -5.254 -26.041  0.00  0.00    +0.036 C 
ATOM     12  C   UNL     1      34.302  -5.375 -26.268  0.00  0.00    +0.134 C 
BRANCH  12  13
ATOM     13  O   UNL     1      34.896  -4.654 -27.258  0.00  0.00    -0.506 OA
ATOM     14  H   UNL     1      34.718  -4.856 -28.155  0.00  0.00    +0.292 HD
ENDBRANCH  12  13
ENDBRANCH   1   7
BRANCH   1  15
ATOM     15  C   UNL     1      32.781  -9.169 -23.333  0.00  0.00    -0.019 C 
ATOM     16  C   UNL     1      33.816  -9.507 -24.201  0.00  0.00    -0.001 C 
ATOM     17  C   UNL     1      32.073 -10.165 -22.662  0.00  0.00    -0.001 C 
ATOM     18  C   UNL     1      34.146 -10.848 -24.400  0.00  0.00    +0.036 C 
ATOM     19  C   UNL     1      32.402 -11.506 -22.862  0.00  0.00    +0.036 C 
ATOM     20  C   UNL     1      33.439 -11.847 -23.731  0.00  0.00    +0.134 C 
BRANCH  20  21
ATOM     21  O   UNL     1      33.761 -13.154 -23.926  0.00  0.00    -0.506 OA
ATOM     22  H   UNL     1      33.480 -13.804 -23.310  0.00  0.00    +0.292 HD
ENDBRANCH  20  21
ENDBRANCH   1  15
TORSDOF 4
ENDMDL
