MODEL 1
REMARK VINA RESULT:      -9.9      0.000      0.000
REMARK  Name = 31640
REMARK  3 active torsions:
REMARK  status: ('A' for Active; 'I' for Inactive)
REMARK    1  A    between atoms: N_3  and  C_20
REMARK    2  A    between atoms: C_7  and  C_14
REMARK    3  A    between atoms: C_20  and  C_24
REMARK                            x       y       z     vdW  Elec       q    Type
REMARK                         _______ _______ _______ _____ _____    ______ ____
ROOT
ATOM      1 CL   UNL     1      31.558 -12.298 -19.953  0.00  0.00    -0.082 Cl
ATOM      2  O   UNL     1      34.829 -16.695 -25.909  0.00  0.00    -0.272 OA
ATOM      3  N   UNL     1      34.477 -15.886 -23.752  0.00  0.00    -0.249 N 
ATOM      4  N   UNL     1      33.431 -13.826 -25.722  0.00  0.00    -0.261 NA
ATOM      5  C   UNL     1      33.810 -14.978 -22.860  0.00  0.00    +0.056 C 
ATOM      6  C   UNL     1      33.323 -13.718 -23.267  0.00  0.00    +0.032 C 
ATOM      7  C   UNL     1      33.578 -13.159 -24.628  0.00  0.00    +0.078 C 
ATOM      8  C   UNL     1      34.198 -15.987 -25.120  0.00  0.00    +0.254 C 
ATOM      9  C   UNL     1      33.007 -15.207 -25.617  0.00  0.00    +0.210 C 
ATOM     10  C   UNL     1      33.634 -15.339 -21.510  0.00  0.00    +0.016 C 
ATOM     11  C   UNL     1      32.621 -12.899 -22.364  0.00  0.00    +0.014 C 
ATOM     12  C   UNL     1      32.954 -14.511 -20.613  0.00  0.00    +0.013 C 
ATOM     13  C   UNL     1      32.436 -13.297 -21.044  0.00  0.00    +0.058 C 
ENDROOT
BRANCH   7  14
ATOM     14  C   UNL     1      34.050 -11.749 -24.752  0.00  0.00    +0.017 C 
ATOM     15  C   UNL     1      33.692 -10.817 -23.786  0.00  0.00    +0.001 C 
ATOM     16  C   UNL     1      34.843 -11.384 -25.834  0.00  0.00    +0.001 C 
ATOM     17  C   UNL     1      34.135  -9.498 -23.902  0.00  0.00    +0.000 C 
ATOM     18  C   UNL     1      35.285 -10.066 -25.949  0.00  0.00    +0.000 C 
ATOM     19  C   UNL     1      34.931  -9.124 -24.984  0.00  0.00    +0.000 C 
ENDBRANCH   7  14
BRANCH   3  20
ATOM     20  C   UNL     1      35.463 -16.807 -23.185  0.00  0.00    +0.202 C 
BRANCH  20  24
ATOM     21  F   UNL     1      35.314 -18.787 -21.926  0.00  0.00    -0.168 F 
ATOM     22  F   UNL     1      33.570 -18.218 -23.105  0.00  0.00    -0.168 F 
ATOM     23  F   UNL     1      35.360 -18.984 -24.098  0.00  0.00    -0.168 F 
ATOM     24  C   UNL     1      34.920 -18.210 -23.083  0.00  0.00    +0.416 C 
ENDBRANCH  20  24
ENDBRANCH   3  20
TORSDOF 3
ENDMDL
MODEL 2
REMARK VINA RESULT:      -9.1      9.165     12.765
REMARK  Name = 31640
REMARK  3 active torsions:
REMARK  status: ('A' for Active; 'I' for Inactive)
REMARK    1  A    between atoms: N_3  and  C_20
REMARK    2  A    between atoms: C_7  and  C_14
REMARK    3  A    between atoms: C_20  and  C_24
REMARK                            x       y       z     vdW  Elec       q    Type
REMARK                         _______ _______ _______ _____ _____    ______ ____
ROOT
ATOM      1 CL   UNL     1      31.498 -23.887 -13.484  0.00  0.00    -0.082 Cl
ATOM      2  O   UNL     1      36.814 -21.524 -19.111  0.00  0.00    -0.272 OA
ATOM      3  N   UNL     1      34.861 -22.427 -18.215  0.00  0.00    -0.249 N 
ATOM      4  N   UNL     1      37.024 -22.538 -16.086  0.00  0.00    -0.261 NA
ATOM      5  C   UNL     1      34.090 -22.826 -17.071  0.00  0.00    +0.056 C 
ATOM      6  C   UNL     1      34.674 -23.222 -15.849  0.00  0.00    +0.032 C 
ATOM      7  C   UNL     1      36.148 -23.391 -15.679  0.00  0.00    +0.078 C 
ATOM      8  C   UNL     1      36.103 -21.785 -18.137  0.00  0.00    +0.254 C 
ATOM      9  C   UNL     1      36.544 -21.350 -16.762  0.00  0.00    +0.210 C 
ATOM     10  C   UNL     1      32.683 -22.841 -17.156  0.00  0.00    +0.016 C 
ATOM     11  C   UNL     1      33.865 -23.540 -14.742  0.00  0.00    +0.014 C 
ATOM     12  C   UNL     1      31.887 -23.179 -16.059  0.00  0.00    +0.013 C 
ATOM     13  C   UNL     1      32.478 -23.516 -14.849  0.00  0.00    +0.058 C 
ENDROOT
BRANCH   7  14
ATOM     14  C   UNL     1      36.660 -24.626 -15.017  0.00  0.00    +0.017 C 
ATOM     15  C   UNL     1      36.270 -25.872 -15.490  0.00  0.00    +0.001 C 
ATOM     16  C   UNL     1      37.522 -24.514 -13.932  0.00  0.00    +0.001 C 
ATOM     17  C   UNL     1      36.751 -27.027 -14.870  0.00  0.00    +0.000 C 
ATOM     18  C   UNL     1      38.003 -25.668 -13.313  0.00  0.00    +0.000 C 
ATOM     19  C   UNL     1      37.617 -26.924 -13.781  0.00  0.00    +0.000 C 
ENDBRANCH   7  14
BRANCH   3  20
ATOM     20  C   UNL     1      34.287 -22.646 -19.543  0.00  0.00    +0.202 C 
BRANCH  20  24
ATOM     21  F   UNL     1      32.562 -21.682 -20.817  0.00  0.00    -0.168 F 
ATOM     22  F   UNL     1      33.296 -20.546 -19.106  0.00  0.00    -0.168 F 
ATOM     23  F   UNL     1      34.523 -20.730 -20.906  0.00  0.00    -0.168 F 
ATOM     24  C   UNL     1      33.666 -21.388 -20.096  0.00  0.00    +0.416 C 
ENDBRANCH  20  24
ENDBRANCH   3  20
TORSDOF 3
ENDMDL
MODEL 3
REMARK VINA RESULT:      -9.0      5.121      7.300
REMARK  Name = 31640
REMARK  3 active torsions:
REMARK  status: ('A' for Active; 'I' for Inactive)
REMARK    1  A    between atoms: N_3  and  C_20
REMARK    2  A    between atoms: C_7  and  C_14
REMARK    3  A    between atoms: C_20  and  C_24
REMARK                            x       y       z     vdW  Elec       q    Type
REMARK                         _______ _______ _______ _____ _____    ______ ____
ROOT
ATOM      1 CL   UNL     1      33.690 -13.966 -27.260  0.00  0.00    -0.082 Cl
ATOM      2  O   UNL     1      32.082  -8.961 -21.107  0.00  0.00    -0.272 OA
ATOM      3  N   UNL     1      33.189  -9.827 -22.966  0.00  0.00    -0.249 N 
ATOM      4  N   UNL     1      31.586 -12.066 -21.684  0.00  0.00    -0.261 NA
ATOM      5  C   UNL     1      33.332 -10.859 -23.955  0.00  0.00    +0.056 C 
ATOM      6  C   UNL     1      32.934 -12.195 -23.738  0.00  0.00    +0.032 C 
ATOM      7  C   UNL     1      32.453 -12.685 -22.412  0.00  0.00    +0.078 C 
ATOM      8  C   UNL     1      32.160  -9.790 -22.017  0.00  0.00    +0.254 C 
ATOM      9  C   UNL     1      31.062 -10.811 -22.183  0.00  0.00    +0.210 C 
ATOM     10  C   UNL     1      33.906 -10.546 -25.203  0.00  0.00    +0.016 C 
ATOM     11  C   UNL     1      33.040 -13.147 -24.768  0.00  0.00    +0.014 C 
ATOM     12  C   UNL     1      34.028 -11.502 -26.214  0.00  0.00    +0.013 C 
ATOM     13  C   UNL     1      33.583 -12.799 -26.001  0.00  0.00    +0.058 C 
ENDROOT
BRANCH   7  14
ATOM     14  C   UNL     1      33.009 -13.958 -21.868  0.00  0.00    +0.017 C 
ATOM     15  C   UNL     1      32.224 -14.757 -21.047  0.00  0.00    +0.001 C 
ATOM     16  C   UNL     1      34.309 -14.331 -22.191  0.00  0.00    +0.001 C 
ATOM     17  C   UNL     1      32.745 -15.948 -20.540  0.00  0.00    +0.000 C 
ATOM     18  C   UNL     1      34.830 -15.522 -21.684  0.00  0.00    +0.000 C 
ATOM     19  C   UNL     1      34.048 -16.330 -20.859  0.00  0.00    +0.000 C 
ENDBRANCH   7  14
BRANCH   3  20
ATOM     20  C   UNL     1      34.137  -8.714 -22.990  0.00  0.00    +0.202 C 
BRANCH  20  24
ATOM     21  F   UNL     1      34.363  -6.924 -24.498  0.00  0.00    -0.168 F 
ATOM     22  F   UNL     1      32.366  -7.755 -24.225  0.00  0.00    -0.168 F 
ATOM     23  F   UNL     1      33.272  -6.541 -22.649  0.00  0.00    -0.168 F 
ATOM     24  C   UNL     1      33.525  -7.474 -23.592  0.00  0.00    +0.416 C 
ENDBRANCH  20  24
ENDBRANCH   3  20
TORSDOF 3
ENDMDL
MODEL 4
REMARK VINA RESULT:      -8.8      5.097      7.018
REMARK  Name = 31640
REMARK  3 active torsions:
REMARK  status: ('A' for Active; 'I' for Inactive)
REMARK    1  A    between atoms: N_3  and  C_20
REMARK    2  A    between atoms: C_7  and  C_14
REMARK    3  A    between atoms: C_20  and  C_24
REMARK                            x       y       z     vdW  Elec       q    Type
REMARK                         _______ _______ _______ _____ _____    ______ ____
ROOT
ATOM      1 CL   UNL     1      35.979 -10.445 -26.396  0.00  0.00    -0.082 Cl
ATOM      2  O   UNL     1      31.393  -8.347 -20.066  0.00  0.00    -0.272 OA
ATOM      3  N   UNL     1      32.103  -9.566 -21.921  0.00  0.00    -0.249 N 
ATOM      4  N   UNL     1      33.279  -6.773 -22.112  0.00  0.00    -0.261 NA
ATOM      5  C   UNL     1      33.006  -9.731 -23.026  0.00  0.00    +0.056 C 
ATOM      6  C   UNL     1      33.660  -8.650 -23.655  0.00  0.00    +0.032 C 
ATOM      7  C   UNL     1      33.365  -7.226 -23.317  0.00  0.00    +0.078 C 
ATOM      8  C   UNL     1      32.216  -8.552 -20.962  0.00  0.00    +0.254 C 
ATOM      9  C   UNL     1      33.467  -7.711 -21.025  0.00  0.00    +0.210 C 
ATOM     10  C   UNL     1      33.256 -11.024 -23.527  0.00  0.00    +0.016 C 
ATOM     11  C   UNL     1      34.583  -8.881 -24.691  0.00  0.00    +0.014 C 
ATOM     12  C   UNL     1      34.159 -11.243 -24.570  0.00  0.00    +0.013 C 
ATOM     13  C   UNL     1      34.832 -10.173 -25.144  0.00  0.00    +0.058 C 
ENDROOT
BRANCH   7  14
ATOM     14  C   UNL     1      33.135  -6.254 -24.425  0.00  0.00    +0.017 C 
ATOM     15  C   UNL     1      34.088  -6.114 -25.426  0.00  0.00    +0.001 C 
ATOM     16  C   UNL     1      31.967  -5.500 -24.444  0.00  0.00    +0.001 C 
ATOM     17  C   UNL     1      33.871  -5.205 -26.463  0.00  0.00    +0.000 C 
ATOM     18  C   UNL     1      31.750  -4.592 -25.480  0.00  0.00    +0.000 C 
ATOM     19  C   UNL     1      32.702  -4.445 -26.489  0.00  0.00    +0.000 C 
ENDBRANCH   7  14
BRANCH   3  20
ATOM     20  C   UNL     1      31.037 -10.553 -21.750  0.00  0.00    +0.202 C 
BRANCH  20  24
ATOM     21  F   UNL     1      31.215 -12.780 -21.018  0.00  0.00    -0.168 F 
ATOM     22  F   UNL     1      32.584 -11.327 -20.140  0.00  0.00    -0.168 F 
ATOM     23  F   UNL     1      30.469 -11.313 -19.586  0.00  0.00    -0.168 F 
ATOM     24  C   UNL     1      31.329 -11.497 -20.611  0.00  0.00    +0.416 C 
ENDBRANCH  20  24
ENDBRANCH   3  20
TORSDOF 3
ENDMDL
MODEL 5
REMARK VINA RESULT:      -8.7      5.235      7.380
REMARK  Name = 31640
REMARK  3 active torsions:
REMARK  status: ('A' for Active; 'I' for Inactive)
REMARK    1  A    between atoms: N_3  and  C_20
REMARK    2  A    between atoms: C_7  and  C_14
REMARK    3  A    between atoms: C_20  and  C_24
REMARK                            x       y       z     vdW  Elec       q    Type
REMARK                         _______ _______ _______ _____ _____    ______ ____
ROOT
ATOM      1 CL   UNL     1      35.373 -11.157 -26.861  0.00  0.00    -0.082 Cl
ATOM      2  O   UNL     1      30.778 -10.111 -20.281  0.00  0.00    -0.272 OA
ATOM      3  N   UNL     1      32.511  -9.748 -21.797  0.00  0.00    -0.249 N 
ATOM      4  N   UNL     1      31.524 -12.599 -22.146  0.00  0.00    -0.261 NA
ATOM      5  C   UNL     1      33.223 -10.134 -22.984  0.00  0.00    +0.056 C 
ATOM      6  C   UNL     1      33.267 -11.463 -23.457  0.00  0.00    +0.032 C 
ATOM      7  C   UNL     1      32.692 -12.609 -22.692  0.00  0.00    +0.078 C 
ATOM      8  C   UNL     1      31.343 -10.374 -21.346  0.00  0.00    +0.254 C 
ATOM      9  C   UNL     1      30.731 -11.393 -22.275  0.00  0.00    +0.210 C 
ATOM     10  C   UNL     1      33.925  -9.158 -23.717  0.00  0.00    +0.016 C 
ATOM     11  C   UNL     1      33.927 -11.769 -24.661  0.00  0.00    +0.014 C 
ATOM     12  C   UNL     1      34.596  -9.473 -24.901  0.00  0.00    +0.013 C 
ATOM     13  C   UNL     1      34.587 -10.776 -25.380  0.00  0.00    +0.058 C 
ENDROOT
BRANCH   7  14
ATOM     14  C   UNL     1      33.510 -13.844 -22.520  0.00  0.00    +0.017 C 
ATOM     15  C   UNL     1      33.807 -14.301 -21.242  0.00  0.00    +0.001 C 
ATOM     16  C   UNL     1      33.966 -14.526 -23.643  0.00  0.00    +0.001 C 
ATOM     17  C   UNL     1      34.572 -15.458 -21.083  0.00  0.00    +0.000 C 
ATOM     18  C   UNL     1      34.730 -15.682 -23.483  0.00  0.00    +0.000 C 
ATOM     19  C   UNL     1      35.033 -16.147 -22.204  0.00  0.00    +0.000 C 
ENDBRANCH   7  14
BRANCH   3  20
ATOM     20  C   UNL     1      32.999  -8.590 -21.048  0.00  0.00    +0.202 C 
BRANCH  20  24
ATOM     21  F   UNL     1      33.082  -6.443 -22.002  0.00  0.00    -0.168 F 
ATOM     22  F   UNL     1      31.251  -7.592 -22.287  0.00  0.00    -0.168 F 
ATOM     23  F   UNL     1      31.716  -6.741 -20.328  0.00  0.00    -0.168 F 
ATOM     24  C   UNL     1      32.252  -7.333 -21.416  0.00  0.00    +0.416 C 
ENDBRANCH  20  24
ENDBRANCH   3  20
TORSDOF 3
ENDMDL
MODEL 6
REMARK VINA RESULT:      -8.4     12.502     14.496
REMARK  Name = 31640
REMARK  3 active torsions:
REMARK  status: ('A' for Active; 'I' for Inactive)
REMARK    1  A    between atoms: N_3  and  C_20
REMARK    2  A    between atoms: C_7  and  C_14
REMARK    3  A    between atoms: C_20  and  C_24
REMARK                            x       y       z     vdW  Elec       q    Type
REMARK                         _______ _______ _______ _____ _____    ______ ____
ROOT
ATOM      1 CL   UNL     1      36.559 -20.772 -17.676  0.00  0.00    -0.082 Cl
ATOM      2  O   UNL     1      36.983 -26.115 -11.612  0.00  0.00    -0.272 OA
ATOM      3  N   UNL     1      37.397 -25.167 -13.700  0.00  0.00    -0.249 N 
ATOM      4  N   UNL     1      34.787 -24.032 -12.641  0.00  0.00    -0.261 NA
ATOM      5  C   UNL     1      37.141 -24.136 -14.668  0.00  0.00    +0.056 C 
ATOM      6  C   UNL     1      35.919 -23.435 -14.741  0.00  0.00    +0.032 C 
ATOM      7  C   UNL     1      34.733 -23.796 -13.908  0.00  0.00    +0.078 C 
ATOM      8  C   UNL     1      36.844 -25.188 -12.414  0.00  0.00    +0.254 C 
ATOM      9  C   UNL     1      36.081 -23.956 -11.996  0.00  0.00    +0.210 C 
ATOM     10  C   UNL     1      38.140 -23.802 -15.603  0.00  0.00    +0.016 C 
ATOM     11  C   UNL     1      35.750 -22.391 -15.669  0.00  0.00    +0.014 C 
ATOM     12  C   UNL     1      37.958 -22.779 -16.536  0.00  0.00    +0.013 C 
ATOM     13  C   UNL     1      36.768 -22.064 -16.560  0.00  0.00    +0.058 C 
ENDROOT
BRANCH   7  14
ATOM     14  C   UNL     1      33.399 -23.913 -14.564  0.00  0.00    +0.017 C 
ATOM     15  C   UNL     1      33.175 -23.286 -15.783  0.00  0.00    +0.001 C 
ATOM     16  C   UNL     1      32.394 -24.649 -13.947  0.00  0.00    +0.001 C 
ATOM     17  C   UNL     1      31.926 -23.397 -16.397  0.00  0.00    +0.000 C 
ATOM     18  C   UNL     1      31.146 -24.760 -14.561  0.00  0.00    +0.000 C 
ATOM     19  C   UNL     1      30.912 -24.134 -15.785  0.00  0.00    +0.000 C 
ENDBRANCH   7  14
BRANCH   3  20
ATOM     20  C   UNL     1      38.341 -26.226 -14.056  0.00  0.00    +0.202 C 
BRANCH  20  24
ATOM     21  F   UNL     1      40.300 -25.443 -15.095  0.00  0.00    -0.168 F 
ATOM     22  F   UNL     1      39.857 -24.687 -13.098  0.00  0.00    -0.168 F 
ATOM     23  F   UNL     1      40.540 -26.746 -13.363  0.00  0.00    -0.168 F 
ATOM     24  C   UNL     1      39.771 -25.773 -13.897  0.00  0.00    +0.416 C 
ENDBRANCH  20  24
ENDBRANCH   3  20
TORSDOF 3
ENDMDL
MODEL 7
REMARK VINA RESULT:      -8.3      5.305      7.199
REMARK  Name = 31640
REMARK  3 active torsions:
REMARK  status: ('A' for Active; 'I' for Inactive)
REMARK    1  A    between atoms: N_3  and  C_20
REMARK    2  A    between atoms: C_7  and  C_14
REMARK    3  A    between atoms: C_20  and  C_24
REMARK                            x       y       z     vdW  Elec       q    Type
REMARK                         _______ _______ _______ _____ _____    ______ ____
ROOT
ATOM      1 CL   UNL     1      31.922 -13.518 -20.187  0.00  0.00    -0.082 Cl
ATOM      2  O   UNL     1      33.820  -7.155 -24.814  0.00  0.00    -0.272 OA
ATOM      3  N   UNL     1      32.538  -8.528 -23.434  0.00  0.00    -0.249 N 
ATOM      4  N   UNL     1      34.704 -10.226 -24.719  0.00  0.00    -0.261 NA
ATOM      5  C   UNL     1      32.382  -9.757 -22.706  0.00  0.00    +0.056 C 
ATOM      6  C   UNL     1      33.030 -10.956 -23.071  0.00  0.00    +0.032 C 
ATOM      7  C   UNL     1      33.829 -11.089 -24.326  0.00  0.00    +0.078 C 
ATOM      8  C   UNL     1      33.708  -8.162 -24.110  0.00  0.00    +0.254 C 
ATOM      9  C   UNL     1      34.908  -9.051 -23.896  0.00  0.00    +0.210 C 
ATOM     10  C   UNL     1      31.537  -9.791 -21.579  0.00  0.00    +0.016 C 
ATOM     11  C   UNL     1      32.889 -12.112 -22.282  0.00  0.00    +0.014 C 
ATOM     12  C   UNL     1      31.385 -10.949 -20.813  0.00  0.00    +0.013 C 
ATOM     13  C   UNL     1      32.071 -12.105 -21.156  0.00  0.00    +0.058 C 
ENDROOT
BRANCH   7  14
ATOM     14  C   UNL     1      33.605 -12.275 -25.202  0.00  0.00    +0.017 C 
ATOM     15  C   UNL     1      33.662 -12.131 -26.582  0.00  0.00    +0.001 C 
ATOM     16  C   UNL     1      33.342 -13.512 -24.626  0.00  0.00    +0.001 C 
ATOM     17  C   UNL     1      33.454 -13.242 -27.401  0.00  0.00    +0.000 C 
ATOM     18  C   UNL     1      33.134 -14.623 -25.444  0.00  0.00    +0.000 C 
ATOM     19  C   UNL     1      33.189 -14.488 -26.831  0.00  0.00    +0.000 C 
ENDBRANCH   7  14
BRANCH   3  20
ATOM     20  C   UNL     1      31.431  -7.572 -23.416  0.00  0.00    +0.202 C 
BRANCH  20  24
ATOM     21  F   UNL     1      30.600  -6.092 -21.789  0.00  0.00    -0.168 F 
ATOM     22  F   UNL     1      32.680  -6.720 -21.599  0.00  0.00    -0.168 F 
ATOM     23  F   UNL     1      32.099  -5.318 -23.172  0.00  0.00    -0.168 F 
ATOM     24  C   UNL     1      31.710  -6.416 -22.488  0.00  0.00    +0.416 C 
ENDBRANCH  20  24
ENDBRANCH   3  20
TORSDOF 3
ENDMDL
MODEL 8
REMARK VINA RESULT:      -8.0     10.836     13.513
REMARK  Name = 31640
REMARK  3 active torsions:
REMARK  status: ('A' for Active; 'I' for Inactive)
REMARK    1  A    between atoms: N_3  and  C_20
REMARK    2  A    between atoms: C_7  and  C_14
REMARK    3  A    between atoms: C_20  and  C_24
REMARK                            x       y       z     vdW  Elec       q    Type
REMARK                         _______ _______ _______ _____ _____    ______ ____
ROOT
ATOM      1 CL   UNL     1      30.376 -22.665 -15.102  0.00  0.00    -0.082 Cl
ATOM      2  O   UNL     1      37.522 -25.934 -13.166  0.00  0.00    -0.272 OA
ATOM      3  N   UNL     1      35.601 -24.633 -12.945  0.00  0.00    -0.249 N 
ATOM      4  N   UNL     1      36.050 -25.174 -15.900  0.00  0.00    -0.261 NA
ATOM      5  C   UNL     1      34.377 -24.123 -13.500  0.00  0.00    +0.056 C 
ATOM      6  C   UNL     1      34.172 -23.951 -14.885  0.00  0.00    +0.032 C 
ATOM      7  C   UNL     1      35.258 -24.156 -15.890  0.00  0.00    +0.078 C 
ATOM      8  C   UNL     1      36.425 -25.562 -13.591  0.00  0.00    +0.254 C 
ATOM      9  C   UNL     1      35.880 -26.168 -14.860  0.00  0.00    +0.210 C 
ATOM     10  C   UNL     1      33.325 -23.760 -12.636  0.00  0.00    +0.016 C 
ATOM     11  C   UNL     1      32.929 -23.507 -15.372  0.00  0.00    +0.014 C 
ATOM     12  C   UNL     1      32.101 -23.300 -13.126  0.00  0.00    +0.013 C 
ATOM     13  C   UNL     1      31.898 -23.186 -14.495  0.00  0.00    +0.058 C 
ENDROOT
BRANCH   7  14
ATOM     14  C   UNL     1      35.467 -23.123 -16.946  0.00  0.00    +0.017 C 
ATOM     15  C   UNL     1      36.597 -22.316 -16.904  0.00  0.00    +0.001 C 
ATOM     16  C   UNL     1      34.528 -22.980 -17.961  0.00  0.00    +0.001 C 
ATOM     17  C   UNL     1      36.793 -21.351 -17.893  0.00  0.00    +0.000 C 
ATOM     18  C   UNL     1      34.724 -22.015 -18.950  0.00  0.00    +0.000 C 
ATOM     19  C   UNL     1      35.856 -21.201 -18.915  0.00  0.00    +0.000 C 
ENDBRANCH   7  14
BRANCH   3  20
ATOM     20  C   UNL     1      35.976 -24.206 -11.598  0.00  0.00    +0.202 C 
BRANCH  20  24
ATOM     21  F   UNL     1      36.913 -22.267 -10.653  0.00  0.00    -0.168 F 
ATOM     22  F   UNL     1      38.292 -23.769 -11.426  0.00  0.00    -0.168 F 
ATOM     23  F   UNL     1      37.130 -22.535 -12.807  0.00  0.00    -0.168 F 
ATOM     24  C   UNL     1      37.089 -23.189 -11.626  0.00  0.00    +0.416 C 
ENDBRANCH  20  24
ENDBRANCH   3  20
TORSDOF 3
ENDMDL
MODEL 9
REMARK VINA RESULT:      -7.5     11.335     13.789
REMARK  Name = 31640
REMARK  3 active torsions:
REMARK  status: ('A' for Active; 'I' for Inactive)
REMARK    1  A    between atoms: N_3  and  C_20
REMARK    2  A    between atoms: C_7  and  C_14
REMARK    3  A    between atoms: C_20  and  C_24
REMARK                            x       y       z     vdW  Elec       q    Type
REMARK                         _______ _______ _______ _____ _____    ______ ____
ROOT
ATOM      1 CL   UNL     1      34.922 -22.719 -19.141  0.00  0.00    -0.082 Cl
ATOM      2  O   UNL     1      29.692 -24.430 -13.207  0.00  0.00    -0.272 OA
ATOM      3  N   UNL     1      30.674 -23.247 -14.959  0.00  0.00    -0.249 N 
ATOM      4  N   UNL     1      32.763 -25.109 -13.780  0.00  0.00    -0.261 NA
ATOM      5  C   UNL     1      31.733 -23.104 -15.919  0.00  0.00    +0.056 C 
ATOM      6  C   UNL     1      33.032 -23.617 -15.716  0.00  0.00    +0.032 C 
ATOM      7  C   UNL     1      33.459 -24.237 -14.426  0.00  0.00    +0.078 C 
ATOM      8  C   UNL     1      30.543 -24.342 -14.097  0.00  0.00    +0.254 C 
ATOM      9  C   UNL     1      31.483 -25.497 -14.336  0.00  0.00    +0.210 C 
ATOM     10  C   UNL     1      31.487 -22.411 -17.121  0.00  0.00    +0.016 C 
ATOM     11  C   UNL     1      34.009 -23.501 -16.721  0.00  0.00    +0.014 C 
ATOM     12  C   UNL     1      32.470 -22.281 -18.105  0.00  0.00    +0.013 C 
ATOM     13  C   UNL     1      33.726 -22.837 -17.911  0.00  0.00    +0.058 C 
ENDROOT
BRANCH   7  14
ATOM     14  C   UNL     1      34.758 -23.822 -13.822  0.00  0.00    +0.017 C 
ATOM     15  C   UNL     1      35.773 -23.342 -14.639  0.00  0.00    +0.001 C 
ATOM     16  C   UNL     1      34.938 -23.922 -12.448  0.00  0.00    +0.001 C 
ATOM     17  C   UNL     1      36.989 -22.953 -14.073  0.00  0.00    +0.000 C 
ATOM     18  C   UNL     1      36.152 -23.533 -11.882  0.00  0.00    +0.000 C 
ATOM     19  C   UNL     1      37.177 -23.049 -12.694  0.00  0.00    +0.000 C 
ENDBRANCH   7  14
BRANCH   3  20
ATOM     20  C   UNL     1      29.634 -22.219 -14.922  0.00  0.00    +0.202 C 
BRANCH  20  24
ATOM     21  F   UNL     1      27.298 -22.168 -15.188  0.00  0.00    -0.168 F 
ATOM     22  F   UNL     1      28.513 -22.058 -16.996  0.00  0.00    -0.168 F 
ATOM     23  F   UNL     1      28.347 -23.943 -15.900  0.00  0.00    -0.168 F 
ATOM     24  C   UNL     1      28.442 -22.603 -15.762  0.00  0.00    +0.416 C 
ENDBRANCH  20  24
ENDBRANCH   3  20
TORSDOF 3
ENDMDL
