MODEL 1
REMARK VINA RESULT:      -7.9      0.000      0.000
REMARK  Name = 2826728
REMARK  4 active torsions:
REMARK  status: ('A' for Active; 'I' for Inactive)
REMARK    1  A    between atoms: C_2  and  O_16
REMARK    2  A    between atoms: C_3  and  O_18
REMARK    3  A    between atoms: C_4  and  N_8
REMARK    4  A    between atoms: C_5  and  C_15
REMARK                            x       y       z     vdW  Elec       q    Type
REMARK                         _______ _______ _______ _____ _____    ______ ____
ROOT
ATOM      1  O   UNL     1      38.230 -25.278 -13.167  0.00  0.00    -0.332 OA
ATOM      2  C   UNL     1      37.726 -24.305 -15.306  0.00  0.00    +0.187 C 
ATOM      3  C   UNL     1      38.299 -25.695 -15.494  0.00  0.00    +0.171 C 
ATOM      4  C   UNL     1      37.569 -24.165 -13.792  0.00  0.00    +0.228 C 
ATOM      5  C   UNL     1      38.968 -26.005 -14.162  0.00  0.00    +0.182 C 
ENDROOT
BRANCH   4   8
ATOM      6  O   UNL     1      36.152 -23.973  -9.825  0.00  0.00    -0.123 OA
ATOM      7  O   UNL     1      37.652 -23.064 -11.144  0.00  0.00    -0.123 OA
ATOM      8  N   UNL     1      36.172 -24.120 -13.353  0.00  0.00    -0.226 N 
ATOM      9  N   UNL     1      34.399 -23.915 -12.026  0.00  0.00    -0.207 NA
ATOM     10  N   UNL     1      36.533 -23.631 -10.981  0.00  0.00    +0.091 N 
ATOM     11  C   UNL     1      35.712 -23.881 -12.086  0.00  0.00    +0.286 C 
ATOM     12  C   UNL     1      35.078 -24.320 -14.151  0.00  0.00    +0.091 C 
ATOM     13  C   UNL     1      33.998 -24.189 -13.310  0.00  0.00    +0.118 C 
ENDBRANCH   4   8
BRANCH   5  15
ATOM     14  F   UNL     1      41.211 -26.667 -14.095  0.00  0.00    -0.232 F 
ATOM     15  C   UNL     1      40.425 -25.561 -14.101  0.00  0.00    +0.225 C 
ENDBRANCH   5  15
BRANCH   2  16
ATOM     16  O   UNL     1      38.660 -23.327 -15.756  0.00  0.00    -0.378 OA
ATOM     17  H   UNL     1      38.186 -22.527 -16.026  0.00  0.00    +0.211 HD
ENDBRANCH   2  16
BRANCH   3  18
ATOM     18  O   UNL     1      37.232 -26.621 -15.682  0.00  0.00    -0.379 OA
ATOM     19  H   UNL     1      37.424 -27.185 -16.447  0.00  0.00    +0.211 HD
ENDBRANCH   3  18
TORSDOF 4
ENDMDL
MODEL 2
REMARK VINA RESULT:      -7.5      3.994      5.482
REMARK  Name = 2826728
REMARK  4 active torsions:
REMARK  status: ('A' for Active; 'I' for Inactive)
REMARK    1  A    between atoms: C_2  and  O_16
REMARK    2  A    between atoms: C_3  and  O_18
REMARK    3  A    between atoms: C_4  and  N_8
REMARK    4  A    between atoms: C_5  and  C_15
REMARK                            x       y       z     vdW  Elec       q    Type
REMARK                         _______ _______ _______ _____ _____    ______ ____
ROOT
ATOM      1  O   UNL     1      35.422 -22.749 -15.774  0.00  0.00    -0.332 OA
ATOM      2  C   UNL     1      34.856 -24.891 -14.840  0.00  0.00    +0.187 C 
ATOM      3  C   UNL     1      35.703 -24.106 -13.857  0.00  0.00    +0.171 C 
ATOM      4  C   UNL     1      34.590 -23.904 -15.977  0.00  0.00    +0.228 C 
ATOM      5  C   UNL     1      36.345 -23.017 -14.705  0.00  0.00    +0.182 C 
ENDROOT
BRANCH   4   8
ATOM      6  O   UNL     1      32.762 -21.799 -19.141  0.00  0.00    -0.123 OA
ATOM      7  O   UNL     1      34.113 -23.490 -18.775  0.00  0.00    -0.123 OA
ATOM      8  N   UNL     1      33.189 -23.484 -16.067  0.00  0.00    -0.226 N 
ATOM      9  N   UNL     1      31.294 -22.682 -16.908  0.00  0.00    -0.207 NA
ATOM     10  N   UNL     1      33.163 -22.742 -18.401  0.00  0.00    +0.091 N 
ATOM     11  C   UNL     1      32.554 -22.960 -17.160  0.00  0.00    +0.286 C 
ATOM     12  C   UNL     1      32.272 -23.541 -15.053  0.00  0.00    +0.091 C 
ATOM     13  C   UNL     1      31.113 -23.041 -15.596  0.00  0.00    +0.118 C 
ENDBRANCH   4   8
BRANCH   5  15
ATOM     14  F   UNL     1      37.862 -22.735 -16.463  0.00  0.00    -0.232 F 
ATOM     15  C   UNL     1      37.679 -23.432 -15.314  0.00  0.00    +0.225 C 
ENDBRANCH   5  15
BRANCH   2  16
ATOM     16  O   UNL     1      35.603 -25.988 -15.360  0.00  0.00    -0.378 OA
ATOM     17  H   UNL     1      36.353 -25.653 -15.875  0.00  0.00    +0.211 HD
ENDBRANCH   2  16
BRANCH   3  18
ATOM     18  O   UNL     1      34.853 -23.483 -12.899  0.00  0.00    -0.379 OA
ATOM     19  H   UNL     1      35.306 -22.716 -12.515  0.00  0.00    +0.211 HD
ENDBRANCH   3  18
TORSDOF 4
ENDMDL
MODEL 3
REMARK VINA RESULT:      -7.3      3.331      4.110
REMARK  Name = 2826728
REMARK  4 active torsions:
REMARK  status: ('A' for Active; 'I' for Inactive)
REMARK    1  A    between atoms: C_2  and  O_16
REMARK    2  A    between atoms: C_3  and  O_18
REMARK    3  A    between atoms: C_4  and  N_8
REMARK    4  A    between atoms: C_5  and  C_15
REMARK                            x       y       z     vdW  Elec       q    Type
REMARK                         _______ _______ _______ _____ _____    ______ ____
ROOT
ATOM      1  O   UNL     1      35.351 -25.438 -15.082  0.00  0.00    -0.332 OA
ATOM      2  C   UNL     1      35.830 -23.235 -14.248  0.00  0.00    +0.187 C 
ATOM      3  C   UNL     1      37.082 -23.843 -14.847  0.00  0.00    +0.171 C 
ATOM      4  C   UNL     1      34.730 -24.246 -14.569  0.00  0.00    +0.228 C 
ATOM      5  C   UNL     1      36.775 -25.332 -14.919  0.00  0.00    +0.182 C 
ENDROOT
BRANCH   4   8
ATOM      6  O   UNL     1      30.544 -24.064 -14.095  0.00  0.00    -0.123 OA
ATOM      7  O   UNL     1      32.402 -23.603 -13.022  0.00  0.00    -0.123 OA
ATOM      8  N   UNL     1      33.750 -23.753 -15.541  0.00  0.00    -0.226 N 
ATOM      9  N   UNL     1      31.814 -23.089 -16.409  0.00  0.00    -0.207 NA
ATOM     10  N   UNL     1      31.765 -23.739 -14.107  0.00  0.00    +0.091 N 
ATOM     11  C   UNL     1      32.418 -23.528 -15.327  0.00  0.00    +0.286 C 
ATOM     12  C   UNL     1      34.011 -23.436 -16.846  0.00  0.00    +0.091 C 
ATOM     13  C   UNL     1      32.803 -23.030 -17.360  0.00  0.00    +0.118 C 
ENDBRANCH   4   8
BRANCH   5  15
ATOM     14  F   UNL     1      38.286 -25.515 -13.142  0.00  0.00    -0.232 F 
ATOM     15  C   UNL     1      37.172 -26.093 -13.659  0.00  0.00    +0.225 C 
ENDBRANCH   5  15
BRANCH   2  16
ATOM     16  O   UNL     1      35.961 -23.145 -12.832  0.00  0.00    -0.378 OA
ATOM     17  H   UNL     1      35.103 -22.919 -12.441  0.00  0.00    +0.211 HD
ENDBRANCH   2  16
BRANCH   3  18
ATOM     18  O   UNL     1      37.249 -23.358 -16.176  0.00  0.00    -0.379 OA
ATOM     19  H   UNL     1      37.022 -24.059 -16.807  0.00  0.00    +0.211 HD
ENDBRANCH   3  18
TORSDOF 4
ENDMDL
MODEL 4
REMARK VINA RESULT:      -7.3      8.757     10.206
REMARK  Name = 2826728
REMARK  4 active torsions:
REMARK  status: ('A' for Active; 'I' for Inactive)
REMARK    1  A    between atoms: C_2  and  O_16
REMARK    2  A    between atoms: C_3  and  O_18
REMARK    3  A    between atoms: C_4  and  N_8
REMARK    4  A    between atoms: C_5  and  C_15
REMARK                            x       y       z     vdW  Elec       q    Type
REMARK                         _______ _______ _______ _____ _____    ______ ____
ROOT
ATOM      1  O   UNL     1      34.890 -17.984 -20.607  0.00  0.00    -0.332 OA
ATOM      2  C   UNL     1      35.107 -19.299 -22.608  0.00  0.00    +0.187 C 
ATOM      3  C   UNL     1      35.922 -18.027 -22.735  0.00  0.00    +0.171 C 
ATOM      4  C   UNL     1      34.599 -19.276 -21.166  0.00  0.00    +0.228 C 
ATOM      5  C   UNL     1      35.363 -17.117 -21.651  0.00  0.00    +0.182 C 
ENDROOT
BRANCH   4   8
ATOM      6  O   UNL     1      32.570 -21.963 -18.627  0.00  0.00    -0.123 OA
ATOM      7  O   UNL     1      32.472 -21.132 -20.656  0.00  0.00    -0.123 OA
ATOM      8  N   UNL     1      35.193 -20.316 -20.322  0.00  0.00    -0.226 N 
ATOM      9  N   UNL     1      35.361 -22.072 -18.968  0.00  0.00    -0.207 NA
ATOM     10  N   UNL     1      33.145 -21.471 -19.640  0.00  0.00    +0.091 N 
ATOM     11  C   UNL     1      34.534 -21.300 -19.637  0.00  0.00    +0.286 C 
ATOM     12  C   UNL     1      36.530 -20.472 -20.072  0.00  0.00    +0.091 C 
ATOM     13  C   UNL     1      36.607 -21.560 -19.235  0.00  0.00    +0.118 C 
ENDBRANCH   4   8
BRANCH   5  15
ATOM     14  F   UNL     1      33.301 -16.150 -21.113  0.00  0.00    -0.232 F 
ATOM     15  C   UNL     1      34.198 -16.256 -22.126  0.00  0.00    +0.225 C 
ENDBRANCH   5  15
BRANCH   2  16
ATOM     16  O   UNL     1      33.985 -19.248 -23.484  0.00  0.00    -0.378 OA
ATOM     17  H   UNL     1      34.057 -19.955 -24.143  0.00  0.00    +0.211 HD
ENDBRANCH   2  16
BRANCH   3  18
ATOM     18  O   UNL     1      37.283 -18.309 -22.421  0.00  0.00    -0.379 OA
ATOM     19  H   UNL     1      37.553 -19.131 -22.861  0.00  0.00    +0.211 HD
ENDBRANCH   3  18
TORSDOF 4
ENDMDL
MODEL 5
REMARK VINA RESULT:      -7.3     11.109     12.291
REMARK  Name = 2826728
REMARK  4 active torsions:
REMARK  status: ('A' for Active; 'I' for Inactive)
REMARK    1  A    between atoms: C_2  and  O_16
REMARK    2  A    between atoms: C_3  and  O_18
REMARK    3  A    between atoms: C_4  and  N_8
REMARK    4  A    between atoms: C_5  and  C_15
REMARK                            x       y       z     vdW  Elec       q    Type
REMARK                         _______ _______ _______ _____ _____    ______ ____
ROOT
ATOM      1  O   UNL     1      33.983 -18.001 -21.601  0.00  0.00    -0.332 OA
ATOM      2  C   UNL     1      35.846 -18.083 -23.118  0.00  0.00    +0.187 C 
ATOM      3  C   UNL     1      35.080 -19.390 -23.170  0.00  0.00    +0.171 C 
ATOM      4  C   UNL     1      35.002 -17.189 -22.210  0.00  0.00    +0.228 C 
ATOM      5  C   UNL     1      34.244 -19.383 -21.898  0.00  0.00    +0.182 C 
ENDROOT
BRANCH   4   8
ATOM      6  O   UNL     1      32.925 -13.944 -20.496  0.00  0.00    -0.123 OA
ATOM      7  O   UNL     1      34.770 -15.106 -20.250  0.00  0.00    -0.123 OA
ATOM      8  N   UNL     1      34.374 -16.069 -22.915  0.00  0.00    -0.226 N 
ATOM      9  N   UNL     1      33.359 -14.123 -23.271  0.00  0.00    -0.207 NA
ATOM     10  N   UNL     1      33.850 -14.650 -20.989  0.00  0.00    +0.091 N 
ATOM     11  C   UNL     1      33.856 -14.931 -22.361  0.00  0.00    +0.286 C 
ATOM     12  C   UNL     1      34.193 -15.980 -24.269  0.00  0.00    +0.091 C 
ATOM     13  C   UNL     1      33.565 -14.772 -24.463  0.00  0.00    +0.118 C 
ENDBRANCH   4   8
BRANCH   5  15
ATOM     14  F   UNL     1      34.023 -20.537 -19.876  0.00  0.00    -0.232 F 
ATOM     15  C   UNL     1      34.957 -20.005 -20.704  0.00  0.00    +0.225 C 
ENDBRANCH   5  15
BRANCH   2  16
ATOM     16  O   UNL     1      37.114 -18.285 -22.500  0.00  0.00    -0.378 OA
ATOM     17  H   UNL     1      37.648 -18.883 -23.047  0.00  0.00    +0.211 HD
ENDBRANCH   2  16
BRANCH   3  18
ATOM     18  O   UNL     1      34.194 -19.369 -24.286  0.00  0.00    -0.379 OA
ATOM     19  H   UNL     1      34.515 -19.984 -24.965  0.00  0.00    +0.211 HD
ENDBRANCH   3  18
TORSDOF 4
ENDMDL
MODEL 6
REMARK VINA RESULT:      -7.2      5.136      7.256
REMARK  Name = 2826728
REMARK  4 active torsions:
REMARK  status: ('A' for Active; 'I' for Inactive)
REMARK    1  A    between atoms: C_2  and  O_16
REMARK    2  A    between atoms: C_3  and  O_18
REMARK    3  A    between atoms: C_4  and  N_8
REMARK    4  A    between atoms: C_5  and  C_15
REMARK                            x       y       z     vdW  Elec       q    Type
REMARK                         _______ _______ _______ _____ _____    ______ ____
ROOT
ATOM      1  O   UNL     1      32.163 -24.984 -14.748  0.00  0.00    -0.332 OA
ATOM      2  C   UNL     1      31.496 -22.678 -14.869  0.00  0.00    +0.187 C 
ATOM      3  C   UNL     1      31.144 -23.246 -13.509  0.00  0.00    +0.171 C 
ATOM      4  C   UNL     1      32.280 -23.798 -15.552  0.00  0.00    +0.228 C 
ATOM      5  C   UNL     1      31.196 -24.754 -13.710  0.00  0.00    +0.182 C 
ENDROOT
BRANCH   4   8
ATOM      6  O   UNL     1      34.248 -23.095 -19.215  0.00  0.00    -0.123 OA
ATOM      7  O   UNL     1      32.417 -22.552 -18.133  0.00  0.00    -0.123 OA
ATOM      8  N   UNL     1      33.697 -23.481 -15.749  0.00  0.00    -0.226 N 
ATOM      9  N   UNL     1      35.589 -22.882 -16.750  0.00  0.00    -0.207 NA
ATOM     10  N   UNL     1      33.633 -22.903 -18.127  0.00  0.00    +0.091 N 
ATOM     11  C   UNL     1      34.300 -23.081 -16.910  0.00  0.00    +0.286 C 
ATOM     12  C   UNL     1      34.668 -23.542 -14.786  0.00  0.00    +0.091 C 
ATOM     13  C   UNL     1      35.825 -23.168 -15.428  0.00  0.00    +0.118 C 
ENDBRANCH   4   8
BRANCH   5  15
ATOM     14  F   UNL     1      30.072 -26.071 -15.283  0.00  0.00    -0.232 F 
ATOM     15  C   UNL     1      29.865 -25.351 -14.152  0.00  0.00    +0.225 C 
ENDBRANCH   5  15
BRANCH   2  16
ATOM     16  O   UNL     1      30.308 -22.436 -15.618  0.00  0.00    -0.378 OA
ATOM     17  H   UNL     1      29.706 -23.189 -15.522  0.00  0.00    +0.211 HD
ENDBRANCH   2  16
BRANCH   3  18
ATOM     18  O   UNL     1      32.157 -22.886 -12.574  0.00  0.00    -0.379 OA
ATOM     19  H   UNL     1      31.986 -21.992 -12.239  0.00  0.00    +0.211 HD
ENDBRANCH   3  18
TORSDOF 4
ENDMDL
MODEL 7
REMARK VINA RESULT:      -7.1      3.433      4.992
REMARK  Name = 2826728
REMARK  4 active torsions:
REMARK  status: ('A' for Active; 'I' for Inactive)
REMARK    1  A    between atoms: C_2  and  O_16
REMARK    2  A    between atoms: C_3  and  O_18
REMARK    3  A    between atoms: C_4  and  N_8
REMARK    4  A    between atoms: C_5  and  C_15
REMARK                            x       y       z     vdW  Elec       q    Type
REMARK                         _______ _______ _______ _____ _____    ______ ____
ROOT
ATOM      1  O   UNL     1      35.367 -24.905 -15.788  0.00  0.00    -0.332 OA
ATOM      2  C   UNL     1      36.195 -22.836 -14.887  0.00  0.00    +0.187 C 
ATOM      3  C   UNL     1      34.680 -22.840 -14.861  0.00  0.00    +0.171 C 
ATOM      4  C   UNL     1      36.567 -24.245 -15.348  0.00  0.00    +0.228 C 
ATOM      5  C   UNL     1      34.294 -23.950 -15.829  0.00  0.00    +0.182 C 
ENDROOT
BRANCH   4   8
ATOM      6  O   UNL     1      40.526 -25.696 -15.333  0.00  0.00    -0.123 OA
ATOM      7  O   UNL     1      39.383 -23.869 -15.746  0.00  0.00    -0.123 OA
ATOM      8  N   UNL     1      37.210 -25.049 -14.306  0.00  0.00    -0.226 N 
ATOM      9  N   UNL     1      38.789 -26.113 -13.158  0.00  0.00    -0.207 NA
ATOM     10  N   UNL     1      39.515 -24.965 -15.128  0.00  0.00    +0.091 N 
ATOM     11  C   UNL     1      38.536 -25.371 -14.214  0.00  0.00    +0.286 C 
ATOM     12  C   UNL     1      36.576 -25.626 -13.239  0.00  0.00    +0.091 C 
ATOM     13  C   UNL     1      37.571 -26.276 -12.547  0.00  0.00    +0.118 C 
ENDBRANCH   4   8
BRANCH   5  15
ATOM     14  F   UNL     1      32.903 -22.910 -17.397  0.00  0.00    -0.232 F 
ATOM     15  C   UNL     1      34.133 -23.469 -17.266  0.00  0.00    +0.225 C 
ENDBRANCH   5  15
BRANCH   2  16
ATOM     16  O   UNL     1      36.664 -21.904 -15.857  0.00  0.00    -0.378 OA
ATOM     17  H   UNL     1      36.722 -21.023 -15.458  0.00  0.00    +0.211 HD
ENDBRANCH   2  16
BRANCH   3  18
ATOM     18  O   UNL     1      34.234 -23.209 -13.559  0.00  0.00    -0.379 OA
ATOM     19  H   UNL     1      33.381 -23.667 -13.627  0.00  0.00    +0.211 HD
ENDBRANCH   3  18
TORSDOF 4
ENDMDL
MODEL 8
REMARK VINA RESULT:      -7.1     11.580     13.052
REMARK  Name = 2826728
REMARK  4 active torsions:
REMARK  status: ('A' for Active; 'I' for Inactive)
REMARK    1  A    between atoms: C_2  and  O_16
REMARK    2  A    between atoms: C_3  and  O_18
REMARK    3  A    between atoms: C_4  and  N_8
REMARK    4  A    between atoms: C_5  and  C_15
REMARK                            x       y       z     vdW  Elec       q    Type
REMARK                         _______ _______ _______ _____ _____    ______ ____
ROOT
ATOM      1  O   UNL     1      35.731 -17.044 -21.789  0.00  0.00    -0.332 OA
ATOM      2  C   UNL     1      34.300 -18.478 -23.083  0.00  0.00    +0.187 C 
ATOM      3  C   UNL     1      34.446 -19.027 -21.678  0.00  0.00    +0.171 C 
ATOM      4  C   UNL     1      35.023 -17.132 -23.038  0.00  0.00    +0.228 C 
ATOM      5  C   UNL     1      35.676 -18.319 -21.127  0.00  0.00    +0.182 C 
ENDROOT
BRANCH   4   8
ATOM      6  O   UNL     1      33.897 -15.174 -26.598  0.00  0.00    -0.123 OA
ATOM      7  O   UNL     1      34.128 -17.190 -25.763  0.00  0.00    -0.123 OA
ATOM      8  N   UNL     1      34.124 -15.983 -23.169  0.00  0.00    -0.226 N 
ATOM      9  N   UNL     1      32.844 -14.421 -24.099  0.00  0.00    -0.207 NA
ATOM     10  N   UNL     1      33.890 -15.958 -25.606  0.00  0.00    +0.091 N 
ATOM     11  C   UNL     1      33.620 -15.458 -24.327  0.00  0.00    +0.286 C 
ATOM     12  C   UNL     1      33.638 -15.229 -22.135  0.00  0.00    +0.091 C 
ATOM     13  C   UNL     1      32.853 -14.273 -22.735  0.00  0.00    +0.118 C 
ENDBRANCH   4   8
BRANCH   5  15
ATOM     14  F   UNL     1      37.271 -19.831 -20.327  0.00  0.00    -0.232 F 
ATOM     15  C   UNL     1      36.976 -19.063 -21.406  0.00  0.00    +0.225 C 
ENDBRANCH   5  15
BRANCH   2  16
ATOM     16  O   UNL     1      34.977 -19.324 -24.009  0.00  0.00    -0.378 OA
ATOM     17  H   UNL     1      35.707 -18.835 -24.420  0.00  0.00    +0.211 HD
ENDBRANCH   2  16
BRANCH   3  18
ATOM     18  O   UNL     1      33.318 -18.631 -20.901  0.00  0.00    -0.379 OA
ATOM     19  H   UNL     1      32.907 -17.850 -21.304  0.00  0.00    +0.211 HD
ENDBRANCH   3  18
TORSDOF 4
ENDMDL
MODEL 9
REMARK VINA RESULT:      -7.0      3.023      4.636
REMARK  Name = 2826728
REMARK  4 active torsions:
REMARK  status: ('A' for Active; 'I' for Inactive)
REMARK    1  A    between atoms: C_2  and  O_16
REMARK    2  A    between atoms: C_3  and  O_18
REMARK    3  A    between atoms: C_4  and  N_8
REMARK    4  A    between atoms: C_5  and  C_15
REMARK                            x       y       z     vdW  Elec       q    Type
REMARK                         _______ _______ _______ _____ _____    ______ ____
ROOT
ATOM      1  O   UNL     1      37.396 -24.930 -14.293  0.00  0.00    -0.332 OA
ATOM      2  C   UNL     1      35.818 -23.500 -13.178  0.00  0.00    +0.187 C 
ATOM      3  C   UNL     1      37.054 -23.676 -12.317  0.00  0.00    +0.171 C 
ATOM      4  C   UNL     1      36.171 -24.203 -14.488  0.00  0.00    +0.228 C 
ATOM      5  C   UNL     1      37.740 -24.904 -12.898  0.00  0.00    +0.182 C 
ENDROOT
BRANCH   4   8
ATOM      6  O   UNL     1      33.512 -23.675 -17.718  0.00  0.00    -0.123 OA
ATOM      7  O   UNL     1      33.522 -23.850 -15.530  0.00  0.00    -0.123 OA
ATOM      8  N   UNL     1      36.325 -23.286 -15.619  0.00  0.00    -0.226 N 
ATOM      9  N   UNL     1      35.846 -22.125 -17.455  0.00  0.00    -0.207 NA
ATOM     10  N   UNL     1      34.097 -23.521 -16.608  0.00  0.00    +0.091 N 
ATOM     11  C   UNL     1      35.389 -22.984 -16.571  0.00  0.00    +0.286 C 
ATOM     12  C   UNL     1      37.453 -22.571 -15.919  0.00  0.00    +0.091 C 
ATOM     13  C   UNL     1      37.133 -21.865 -17.054  0.00  0.00    +0.118 C 
ENDBRANCH   4   8
BRANCH   5  15
ATOM     14  F   UNL     1      37.048 -27.110 -13.253  0.00  0.00    -0.232 F 
ATOM     15  C   UNL     1      37.279 -26.210 -12.264  0.00  0.00    +0.225 C 
ENDBRANCH   5  15
BRANCH   2  16
ATOM     16  O   UNL     1      34.711 -24.174 -12.586  0.00  0.00    -0.378 OA
ATOM     17  H   UNL     1      33.956 -23.569 -12.530  0.00  0.00    +0.211 HD
ENDBRANCH   2  16
BRANCH   3  18
ATOM     18  O   UNL     1      37.915 -22.555 -12.499  0.00  0.00    -0.379 OA
ATOM     19  H   UNL     1      37.580 -22.004 -13.223  0.00  0.00    +0.211 HD
ENDBRANCH   3  18
TORSDOF 4
ENDMDL
