MODEL 1
REMARK VINA RESULT:      -8.8      0.000      0.000
REMARK  Name = 6918736
REMARK  12 active torsions:
REMARK  status: ('A' for Active; 'I' for Inactive)
REMARK    1  A    between atoms: S_1  and  C_4
REMARK    2  A    between atoms: S_1  and  C_18
REMARK    3  A    between atoms: C_5  and  C_6
REMARK    4  A    between atoms: C_7  and  O_12
REMARK    5  A    between atoms: C_8  and  O_14
REMARK    6  A    between atoms: C_11  and  O_16
REMARK    7  A    between atoms: C_18  and  C_19
REMARK    8  A    between atoms: C_21  and  N_27
REMARK    9  A    between atoms: C_23  and  O_25
REMARK   10  A    between atoms: N_27  and  C_29
REMARK   11  A    between atoms: C_29  and  C_31
REMARK   12  A    between atoms: C_31  and  O_32
REMARK                            x       y       z     vdW  Elec       q    Type
REMARK                         _______ _______ _______ _____ _____    ______ ____
ROOT
ATOM      1  S   UNL     1      35.685 -21.136 -19.777  0.00  0.00    +0.014 S 
ATOM      2  O   UNL     1      36.590 -20.004 -19.678  0.00  0.00    -0.168 OA
ATOM      3  O   UNL     1      36.021 -22.274 -20.616  0.00  0.00    -0.168 OA
ENDROOT
BRANCH   1   4
ATOM      4  C   UNL     1      35.303 -21.695 -18.194  0.00  0.00    +0.123 C 
ATOM      5  C   UNL     1      34.289 -22.572 -18.069  0.00  0.00    +0.026 C 
BRANCH   5   6
ATOM      6  C   UNL     1      33.831 -23.158 -16.813  0.00  0.00    +0.069 C 
ATOM      7  C   UNL     1      32.470 -23.174 -16.506  0.00  0.00    +0.145 C 
ATOM      8  C   UNL     1      34.753 -23.703 -15.920  0.00  0.00    +0.145 C 
ATOM      9  C   UNL     1      32.033 -23.734 -15.306  0.00  0.00    +0.074 C 
ATOM     10  C   UNL     1      34.316 -24.263 -14.721  0.00  0.00    +0.074 C 
ATOM     11  C   UNL     1      32.956 -24.279 -14.413  0.00  0.00    +0.145 C 
BRANCH   7  12
ATOM     12  O   UNL     1      31.546 -22.649 -17.359  0.00  0.00    -0.471 OA
ATOM     13  C   UNL     1      30.217 -22.503 -16.864  0.00  0.00    +0.252 C 
ENDBRANCH   7  12
BRANCH   8  14
ATOM     14  O   UNL     1      36.090 -23.702 -16.193  0.00  0.00    -0.471 OA
ATOM     15  C   UNL     1      36.960 -23.240 -15.164  0.00  0.00    +0.252 C 
ENDBRANCH   8  14
BRANCH  11  16
ATOM     16  O   UNL     1      32.529 -24.825 -13.241  0.00  0.00    -0.471 OA
ATOM     17  C   UNL     1      31.131 -25.078 -13.115  0.00  0.00    +0.252 C 
ENDBRANCH  11  16
ENDBRANCH   5   6
ENDBRANCH   1   4
BRANCH   1  18
ATOM     18  C   UNL     1      34.126 -20.508 -20.349  0.00  0.00    +0.182 C 
BRANCH  18  19
ATOM     19  C   UNL     1      34.409 -19.410 -21.327  0.00  0.00    +0.003 C 
ATOM     20  C   UNL     1      34.201 -18.080 -20.963  0.00  0.00    +0.015 C 
ATOM     21  C   UNL     1      34.464 -17.057 -21.874  0.00  0.00    +0.079 C 
ATOM     22  C   UNL     1      34.880 -19.718 -22.603  0.00  0.00    +0.001 C 
ATOM     23  C   UNL     1      34.936 -17.365 -23.151  0.00  0.00    +0.152 C 
ATOM     24  C   UNL     1      35.144 -18.695 -23.515  0.00  0.00    +0.038 C 
BRANCH  23  25
ATOM     25  O   UNL     1      35.199 -16.380 -24.056  0.00  0.00    -0.470 OA
ATOM     26  C   UNL     1      34.465 -16.411 -25.278  0.00  0.00    +0.253 C 
ENDBRANCH  23  25
BRANCH  21  27
ATOM     27  N   UNL     1      34.249 -15.716 -21.492  0.00  0.00    -0.321 N 
ATOM     28  H   UNL     1      35.006 -15.202 -21.128  0.00  0.00    +0.147 HD
BRANCH  27  29
ATOM     29  C   UNL     1      32.979 -15.070 -21.608  0.00  0.00    +0.198 C 
BRANCH  29  31
ATOM     30  O   UNL     1      32.131 -13.288 -22.992  0.00  0.00    -0.248 OA
ATOM     31  C   UNL     1      33.086 -13.938 -22.589  0.00  0.00    +0.334 C 
BRANCH  31  32
ATOM     32  O   UNL     1      34.366 -13.699 -22.973  0.00  0.00    -0.479 OA
ATOM     33  H   UNL     1      34.991 -14.396 -22.978  0.00  0.00    +0.295 HD
ENDBRANCH  31  32
ENDBRANCH  29  31
ENDBRANCH  27  29
ENDBRANCH  21  27
ENDBRANCH  18  19
ENDBRANCH   1  18
TORSDOF 12
ENDMDL
MODEL 2
REMARK VINA RESULT:      -8.8      0.057      2.326
REMARK  Name = 6918736
REMARK  12 active torsions:
REMARK  status: ('A' for Active; 'I' for Inactive)
REMARK    1  A    between atoms: S_1  and  C_4
REMARK    2  A    between atoms: S_1  and  C_18
REMARK    3  A    between atoms: C_5  and  C_6
REMARK    4  A    between atoms: C_7  and  O_12
REMARK    5  A    between atoms: C_8  and  O_14
REMARK    6  A    between atoms: C_11  and  O_16
REMARK    7  A    between atoms: C_18  and  C_19
REMARK    8  A    between atoms: C_21  and  N_27
REMARK    9  A    between atoms: C_23  and  O_25
REMARK   10  A    between atoms: N_27  and  C_29
REMARK   11  A    between atoms: C_29  and  C_31
REMARK   12  A    between atoms: C_31  and  O_32
REMARK                            x       y       z     vdW  Elec       q    Type
REMARK                         _______ _______ _______ _____ _____    ______ ____
ROOT
ATOM      1  S   UNL     1      35.663 -21.108 -19.791  0.00  0.00    +0.014 S 
ATOM      2  O   UNL     1      36.571 -19.978 -19.687  0.00  0.00    -0.168 OA
ATOM      3  O   UNL     1      35.991 -22.237 -20.644  0.00  0.00    -0.168 OA
ENDROOT
BRANCH   1   4
ATOM      4  C   UNL     1      35.292 -21.683 -18.211  0.00  0.00    +0.123 C 
ATOM      5  C   UNL     1      34.258 -22.537 -18.084  0.00  0.00    +0.026 C 
BRANCH   5   6
ATOM      6  C   UNL     1      33.806 -23.132 -16.831  0.00  0.00    +0.069 C 
ATOM      7  C   UNL     1      34.733 -23.684 -15.946  0.00  0.00    +0.145 C 
ATOM      8  C   UNL     1      32.447 -23.150 -16.518  0.00  0.00    +0.145 C 
ATOM      9  C   UNL     1      34.300 -24.251 -14.748  0.00  0.00    +0.074 C 
ATOM     10  C   UNL     1      32.014 -23.718 -15.320  0.00  0.00    +0.074 C 
ATOM     11  C   UNL     1      32.940 -24.269 -14.435  0.00  0.00    +0.145 C 
BRANCH   7  12
ATOM     12  O   UNL     1      36.067 -23.681 -16.225  0.00  0.00    -0.471 OA
ATOM     13  C   UNL     1      36.943 -23.235 -15.192  0.00  0.00    +0.252 C 
ENDBRANCH   7  12
BRANCH   8  14
ATOM     14  O   UNL     1      31.518 -22.619 -17.364  0.00  0.00    -0.471 OA
ATOM     15  C   UNL     1      30.182 -22.522 -16.878  0.00  0.00    +0.252 C 
ENDBRANCH   8  14
BRANCH  11  16
ATOM     16  O   UNL     1      32.518 -24.825 -13.266  0.00  0.00    -0.471 OA
ATOM     17  C   UNL     1      31.119 -25.071 -13.132  0.00  0.00    +0.252 C 
ENDBRANCH  11  16
ENDBRANCH   5   6
ENDBRANCH   1   4
BRANCH   1  18
ATOM     18  C   UNL     1      34.101 -20.471 -20.345  0.00  0.00    +0.182 C 
BRANCH  18  19
ATOM     19  C   UNL     1      34.378 -19.385 -21.338  0.00  0.00    +0.003 C 
ATOM     20  C   UNL     1      34.185 -18.050 -20.983  0.00  0.00    +0.015 C 
ATOM     21  C   UNL     1      34.443 -17.037 -21.907  0.00  0.00    +0.079 C 
ATOM     22  C   UNL     1      34.829 -19.708 -22.617  0.00  0.00    +0.001 C 
ATOM     23  C   UNL     1      34.895 -17.361 -23.188  0.00  0.00    +0.152 C 
ATOM     24  C   UNL     1      35.087 -18.696 -23.542  0.00  0.00    +0.038 C 
BRANCH  23  25
ATOM     25  O   UNL     1      35.153 -16.387 -24.105  0.00  0.00    -0.470 OA
ATOM     26  C   UNL     1      34.363 -16.390 -25.292  0.00  0.00    +0.253 C 
ENDBRANCH  23  25
BRANCH  21  27
ATOM     27  N   UNL     1      34.244 -15.691 -21.535  0.00  0.00    -0.321 N 
ATOM     28  H   UNL     1      35.005 -15.186 -21.167  0.00  0.00    +0.147 HD
BRANCH  27  29
ATOM     29  C   UNL     1      32.985 -15.028 -21.667  0.00  0.00    +0.198 C 
BRANCH  29  31
ATOM     30  O   UNL     1      32.159 -13.315 -23.147  0.00  0.00    -0.248 OA
ATOM     31  C   UNL     1      33.110 -13.922 -22.674  0.00  0.00    +0.334 C 
BRANCH  31  32
ATOM     32  O   UNL     1      34.401 -13.651 -22.995  0.00  0.00    -0.479 OA
ATOM     33  H   UNL     1      34.603 -12.923 -23.550  0.00  0.00    +0.295 HD
ENDBRANCH  31  32
ENDBRANCH  29  31
ENDBRANCH  27  29
ENDBRANCH  21  27
ENDBRANCH  18  19
ENDBRANCH   1  18
TORSDOF 12
ENDMDL
MODEL 3
REMARK VINA RESULT:      -8.8      3.166     10.898
REMARK  Name = 6918736
REMARK  12 active torsions:
REMARK  status: ('A' for Active; 'I' for Inactive)
REMARK    1  A    between atoms: S_1  and  C_4
REMARK    2  A    between atoms: S_1  and  C_18
REMARK    3  A    between atoms: C_5  and  C_6
REMARK    4  A    between atoms: C_7  and  O_12
REMARK    5  A    between atoms: C_8  and  O_14
REMARK    6  A    between atoms: C_11  and  O_16
REMARK    7  A    between atoms: C_18  and  C_19
REMARK    8  A    between atoms: C_21  and  N_27
REMARK    9  A    between atoms: C_23  and  O_25
REMARK   10  A    between atoms: N_27  and  C_29
REMARK   11  A    between atoms: C_29  and  C_31
REMARK   12  A    between atoms: C_31  and  O_32
REMARK                            x       y       z     vdW  Elec       q    Type
REMARK                         _______ _______ _______ _____ _____    ______ ____
ROOT
ATOM      1  S   UNL     1      33.636 -15.764 -20.822  0.00  0.00    +0.014 S 
ATOM      2  O   UNL     1      34.589 -15.892 -19.733  0.00  0.00    -0.168 OA
ATOM      3  O   UNL     1      32.239 -16.104 -20.619  0.00  0.00    -0.168 OA
ENDROOT
BRANCH   1   4
ATOM      4  C   UNL     1      33.742 -14.177 -21.482  0.00  0.00    +0.123 C 
ATOM      5  C   UNL     1      32.590 -13.560 -21.811  0.00  0.00    +0.026 C 
BRANCH   5   6
ATOM      6  C   UNL     1      32.484 -12.217 -22.372  0.00  0.00    +0.069 C 
ATOM      7  C   UNL     1      31.693 -11.257 -21.738  0.00  0.00    +0.145 C 
ATOM      8  C   UNL     1      33.172 -11.892 -23.540  0.00  0.00    +0.145 C 
ATOM      9  C   UNL     1      31.593  -9.974 -22.274  0.00  0.00    +0.074 C 
ATOM     10  C   UNL     1      33.072 -10.608 -24.075  0.00  0.00    +0.074 C 
ATOM     11  C   UNL     1      32.281  -9.649 -23.442  0.00  0.00    +0.145 C 
BRANCH   7  12
ATOM     12  O   UNL     1      31.009 -11.546 -20.595  0.00  0.00    -0.471 OA
ATOM     13  C   UNL     1      31.358 -10.806 -19.427  0.00  0.00    +0.252 C 
ENDBRANCH   7  12
BRANCH   8  14
ATOM     14  O   UNL     1      33.953 -12.809 -24.180  0.00  0.00    -0.471 OA
ATOM     15  C   UNL     1      33.326 -13.602 -25.185  0.00  0.00    +0.252 C 
ENDBRANCH   8  14
BRANCH  11  16
ATOM     16  O   UNL     1      32.182  -8.396 -23.966  0.00  0.00    -0.471 OA
ATOM     17  C   UNL     1      31.003  -7.654 -23.655  0.00  0.00    +0.252 C 
ENDBRANCH  11  16
ENDBRANCH   5   6
ENDBRANCH   1   4
BRANCH   1  18
ATOM     18  C   UNL     1      34.231 -16.774 -22.156  0.00  0.00    +0.182 C 
BRANCH  18  19
ATOM     19  C   UNL     1      34.730 -18.058 -21.567  0.00  0.00    +0.003 C 
ATOM     20  C   UNL     1      33.826 -19.054 -21.200  0.00  0.00    +0.015 C 
ATOM     21  C   UNL     1      34.289 -20.251 -20.651  0.00  0.00    +0.079 C 
ATOM     22  C   UNL     1      36.098 -18.257 -21.385  0.00  0.00    +0.001 C 
ATOM     23  C   UNL     1      35.658 -20.449 -20.470  0.00  0.00    +0.152 C 
ATOM     24  C   UNL     1      36.562 -19.453 -20.836  0.00  0.00    +0.038 C 
BRANCH  23  25
ATOM     25  O   UNL     1      36.132 -21.611 -19.936  0.00  0.00    -0.470 OA
ATOM     26  C   UNL     1      36.649 -21.549 -18.608  0.00  0.00    +0.253 C 
ENDBRANCH  23  25
BRANCH  21  27
ATOM     27  N   UNL     1      33.363 -21.250 -20.285  0.00  0.00    -0.321 N 
ATOM     28  H   UNL     1      33.011 -21.846 -20.985  0.00  0.00    +0.147 HD
BRANCH  27  29
ATOM     29  C   UNL     1      32.912 -21.436 -18.941  0.00  0.00    +0.198 C 
BRANCH  29  31
ATOM     30  O   UNL     1      33.142 -23.210 -17.326  0.00  0.00    -0.248 OA
ATOM     31  C   UNL     1      33.319 -22.800 -18.466  0.00  0.00    +0.334 C 
BRANCH  31  32
ATOM     32  O   UNL     1      33.893 -23.546 -19.444  0.00  0.00    -0.479 OA
ATOM     33  H   UNL     1      34.647 -23.223 -19.897  0.00  0.00    +0.295 HD
ENDBRANCH  31  32
ENDBRANCH  29  31
ENDBRANCH  27  29
ENDBRANCH  21  27
ENDBRANCH  18  19
ENDBRANCH   1  18
TORSDOF 12
ENDMDL
MODEL 4
REMARK VINA RESULT:      -8.5      0.895      2.553
REMARK  Name = 6918736
REMARK  12 active torsions:
REMARK  status: ('A' for Active; 'I' for Inactive)
REMARK    1  A    between atoms: S_1  and  C_4
REMARK    2  A    between atoms: S_1  and  C_18
REMARK    3  A    between atoms: C_5  and  C_6
REMARK    4  A    between atoms: C_7  and  O_12
REMARK    5  A    between atoms: C_8  and  O_14
REMARK    6  A    between atoms: C_11  and  O_16
REMARK    7  A    between atoms: C_18  and  C_19
REMARK    8  A    between atoms: C_21  and  N_27
REMARK    9  A    between atoms: C_23  and  O_25
REMARK   10  A    between atoms: N_27  and  C_29
REMARK   11  A    between atoms: C_29  and  C_31
REMARK   12  A    between atoms: C_31  and  O_32
REMARK                            x       y       z     vdW  Elec       q    Type
REMARK                         _______ _______ _______ _____ _____    ______ ____
ROOT
ATOM      1  S   UNL     1      35.886 -21.056 -19.970  0.00  0.00    +0.014 S 
ATOM      2  O   UNL     1      36.813 -19.942 -20.066  0.00  0.00    -0.168 OA
ATOM      3  O   UNL     1      36.068 -22.236 -20.798  0.00  0.00    -0.168 OA
ENDROOT
BRANCH   1   4
ATOM      4  C   UNL     1      35.747 -21.536 -18.323  0.00  0.00    +0.123 C 
ATOM      5  C   UNL     1      34.815 -22.460 -18.018  0.00  0.00    +0.026 C 
BRANCH   5   6
ATOM      6  C   UNL     1      34.561 -22.992 -16.683  0.00  0.00    +0.069 C 
ATOM      7  C   UNL     1      35.630 -23.310 -15.844  0.00  0.00    +0.145 C 
ATOM      8  C   UNL     1      33.251 -23.184 -16.246  0.00  0.00    +0.145 C 
ATOM      9  C   UNL     1      35.387 -23.818 -14.569  0.00  0.00    +0.074 C 
ATOM     10  C   UNL     1      33.008 -23.692 -14.971  0.00  0.00    +0.074 C 
ATOM     11  C   UNL     1      34.076 -24.009 -14.132  0.00  0.00    +0.145 C 
BRANCH   7  12
ATOM     12  O   UNL     1      36.921 -23.134 -16.244  0.00  0.00    -0.471 OA
ATOM     13  C   UNL     1      37.941 -23.550 -15.339  0.00  0.00    +0.252 C 
ENDBRANCH   7  12
BRANCH   8  14
ATOM     14  O   UNL     1      32.187 -22.882 -17.044  0.00  0.00    -0.471 OA
ATOM     15  C   UNL     1      30.893 -22.951 -16.451  0.00  0.00    +0.252 C 
ENDBRANCH   8  14
BRANCH  11  16
ATOM     16  O   UNL     1      33.839 -24.507 -12.887  0.00  0.00    -0.471 OA
ATOM     17  C   UNL     1      34.937 -24.530 -11.977  0.00  0.00    +0.252 C 
ENDBRANCH  11  16
ENDBRANCH   5   6
ENDBRANCH   1   4
BRANCH   1  18
ATOM     18  C   UNL     1      34.267 -20.417 -20.322  0.00  0.00    +0.182 C 
BRANCH  18  19
ATOM     19  C   UNL     1      34.421 -19.303 -21.310  0.00  0.00    +0.003 C 
ATOM     20  C   UNL     1      34.139 -17.991 -20.933  0.00  0.00    +0.015 C 
ATOM     21  C   UNL     1      34.282 -16.952 -21.854  0.00  0.00    +0.079 C 
ATOM     22  C   UNL     1      34.848 -19.578 -22.609  0.00  0.00    +0.001 C 
ATOM     23  C   UNL     1      34.710 -17.228 -23.153  0.00  0.00    +0.152 C 
ATOM     24  C   UNL     1      34.992 -18.540 -23.531  0.00  0.00    +0.038 C 
BRANCH  23  25
ATOM     25  O   UNL     1      34.857 -16.228 -24.068  0.00  0.00    -0.470 OA
ATOM     26  C   UNL     1      34.470 -16.517 -25.410  0.00  0.00    +0.253 C 
ENDBRANCH  23  25
BRANCH  21  27
ATOM     27  N   UNL     1      33.993 -15.629 -21.458  0.00  0.00    -0.321 N 
ATOM     28  H   UNL     1      34.742 -15.008 -21.308  0.00  0.00    +0.147 HD
BRANCH  27  29
ATOM     29  C   UNL     1      32.660 -15.151 -21.264  0.00  0.00    +0.198 C 
BRANCH  29  31
ATOM     30  O   UNL     1      31.889 -12.922 -21.759  0.00  0.00    -0.248 OA
ATOM     31  C   UNL     1      32.432 -13.951 -22.137  0.00  0.00    +0.334 C 
BRANCH  31  32
ATOM     32  O   UNL     1      32.910 -14.122 -23.396  0.00  0.00    -0.479 OA
ATOM     33  H   UNL     1      33.728 -14.559 -23.531  0.00  0.00    +0.295 HD
ENDBRANCH  31  32
ENDBRANCH  29  31
ENDBRANCH  27  29
ENDBRANCH  21  27
ENDBRANCH  18  19
ENDBRANCH   1  18
TORSDOF 12
ENDMDL
MODEL 5
REMARK VINA RESULT:      -8.3      1.459      1.784
REMARK  Name = 6918736
REMARK  12 active torsions:
REMARK  status: ('A' for Active; 'I' for Inactive)
REMARK    1  A    between atoms: S_1  and  C_4
REMARK    2  A    between atoms: S_1  and  C_18
REMARK    3  A    between atoms: C_5  and  C_6
REMARK    4  A    between atoms: C_7  and  O_12
REMARK    5  A    between atoms: C_8  and  O_14
REMARK    6  A    between atoms: C_11  and  O_16
REMARK    7  A    between atoms: C_18  and  C_19
REMARK    8  A    between atoms: C_21  and  N_27
REMARK    9  A    between atoms: C_23  and  O_25
REMARK   10  A    between atoms: N_27  and  C_29
REMARK   11  A    between atoms: C_29  and  C_31
REMARK   12  A    between atoms: C_31  and  O_32
REMARK                            x       y       z     vdW  Elec       q    Type
REMARK                         _______ _______ _______ _____ _____    ______ ____
ROOT
ATOM      1  S   UNL     1      34.526 -21.752 -19.473  0.00  0.00    +0.014 S 
ATOM      2  O   UNL     1      34.642 -23.008 -20.195  0.00  0.00    -0.168 OA
ATOM      3  O   UNL     1      33.358 -20.908 -19.652  0.00  0.00    -0.168 OA
ENDROOT
BRANCH   1   4
ATOM      4  C   UNL     1      34.763 -22.042 -17.792  0.00  0.00    +0.123 C 
ATOM      5  C   UNL     1      34.152 -23.114 -17.252  0.00  0.00    +0.026 C 
BRANCH   5   6
ATOM      6  C   UNL     1      34.244 -23.521 -15.853  0.00  0.00    +0.069 C 
ATOM      7  C   UNL     1      33.096 -23.553 -15.060  0.00  0.00    +0.145 C 
ATOM      8  C   UNL     1      35.477 -23.876 -15.309  0.00  0.00    +0.145 C 
ATOM      9  C   UNL     1      33.184 -23.942 -13.724  0.00  0.00    +0.074 C 
ATOM     10  C   UNL     1      35.565 -24.265 -13.974  0.00  0.00    +0.074 C 
ATOM     11  C   UNL     1      34.419 -24.297 -13.180  0.00  0.00    +0.145 C 
BRANCH   7  12
ATOM     12  O   UNL     1      31.876 -23.211 -15.564  0.00  0.00    -0.471 OA
ATOM     13  C   UNL     1      30.841 -22.937 -14.623  0.00  0.00    +0.252 C 
ENDBRANCH   7  12
BRANCH   8  14
ATOM     14  O   UNL     1      36.615 -23.853 -16.061  0.00  0.00    -0.471 OA
ATOM     15  C   UNL     1      37.635 -22.941 -15.663  0.00  0.00    +0.252 C 
ENDBRANCH   8  14
BRANCH  11  16
ATOM     16  O   UNL     1      34.505 -24.676 -11.875  0.00  0.00    -0.471 OA
ATOM     17  C   UNL     1      35.772 -24.525 -11.237  0.00  0.00    +0.252 C 
ENDBRANCH  11  16
ENDBRANCH   5   6
ENDBRANCH   1   4
BRANCH   1  18
ATOM     18  C   UNL     1      35.947 -20.775 -19.898  0.00  0.00    +0.182 C 
BRANCH  18  19
ATOM     19  C   UNL     1      35.518 -19.769 -20.921  0.00  0.00    +0.003 C 
ATOM     20  C   UNL     1      35.463 -18.416 -20.588  0.00  0.00    +0.015 C 
ATOM     21  C   UNL     1      35.064 -17.478 -21.541  0.00  0.00    +0.079 C 
ATOM     22  C   UNL     1      35.172 -20.185 -22.206  0.00  0.00    +0.001 C 
ATOM     23  C   UNL     1      34.718 -17.895 -22.827  0.00  0.00    +0.152 C 
ATOM     24  C   UNL     1      34.772 -19.248 -23.160  0.00  0.00    +0.038 C 
BRANCH  23  25
ATOM     25  O   UNL     1      34.325 -16.995 -23.773  0.00  0.00    -0.470 OA
ATOM     26  C   UNL     1      34.680 -17.280 -25.124  0.00  0.00    +0.253 C 
ENDBRANCH  23  25
BRANCH  21  27
ATOM     27  N   UNL     1      35.013 -16.112 -21.191  0.00  0.00    -0.321 N 
ATOM     28  H   UNL     1      35.847 -15.589 -21.213  0.00  0.00    +0.147 HD
BRANCH  27  29
ATOM     29  C   UNL     1      33.805 -15.454 -20.804  0.00  0.00    +0.198 C 
BRANCH  29  31
ATOM     30  O   UNL     1      32.404 -13.810 -21.874  0.00  0.00    -0.248 OA
ATOM     31  C   UNL     1      33.486 -14.376 -21.800  0.00  0.00    +0.334 C 
BRANCH  31  32
ATOM     32  O   UNL     1      34.538 -14.082 -22.606  0.00  0.00    -0.479 OA
ATOM     33  H   UNL     1      34.538 -14.367 -23.498  0.00  0.00    +0.295 HD
ENDBRANCH  31  32
ENDBRANCH  29  31
ENDBRANCH  27  29
ENDBRANCH  21  27
ENDBRANCH  18  19
ENDBRANCH   1  18
TORSDOF 12
ENDMDL
MODEL 6
REMARK VINA RESULT:      -8.3      2.536     10.238
REMARK  Name = 6918736
REMARK  12 active torsions:
REMARK  status: ('A' for Active; 'I' for Inactive)
REMARK    1  A    between atoms: S_1  and  C_4
REMARK    2  A    between atoms: S_1  and  C_18
REMARK    3  A    between atoms: C_5  and  C_6
REMARK    4  A    between atoms: C_7  and  O_12
REMARK    5  A    between atoms: C_8  and  O_14
REMARK    6  A    between atoms: C_11  and  O_16
REMARK    7  A    between atoms: C_18  and  C_19
REMARK    8  A    between atoms: C_21  and  N_27
REMARK    9  A    between atoms: C_23  and  O_25
REMARK   10  A    between atoms: N_27  and  C_29
REMARK   11  A    between atoms: C_29  and  C_31
REMARK   12  A    between atoms: C_31  and  O_32
REMARK                            x       y       z     vdW  Elec       q    Type
REMARK                         _______ _______ _______ _____ _____    ______ ____
ROOT
ATOM      1  S   UNL     1      36.116 -18.483 -21.422  0.00  0.00    +0.014 S 
ATOM      2  O   UNL     1      37.499 -18.920 -21.509  0.00  0.00    -0.168 OA
ATOM      3  O   UNL     1      35.597 -17.936 -20.181  0.00  0.00    -0.168 OA
ENDROOT
BRANCH   1   4
ATOM      4  C   UNL     1      35.789 -17.384 -22.707  0.00  0.00    +0.123 C 
ATOM      5  C   UNL     1      34.523 -16.948 -22.847  0.00  0.00    +0.026 C 
BRANCH   5   6
ATOM      6  C   UNL     1      34.062 -16.012 -23.868  0.00  0.00    +0.069 C 
ATOM      7  C   UNL     1      33.627 -14.738 -23.500  0.00  0.00    +0.145 C 
ATOM      8  C   UNL     1      34.057 -16.389 -25.210  0.00  0.00    +0.145 C 
ATOM      9  C   UNL     1      33.188 -13.844 -24.475  0.00  0.00    +0.074 C 
ATOM     10  C   UNL     1      33.618 -15.495 -26.185  0.00  0.00    +0.074 C 
ATOM     11  C   UNL     1      33.182 -14.222 -25.818  0.00  0.00    +0.145 C 
BRANCH   7  12
ATOM     12  O   UNL     1      33.620 -14.341 -22.195  0.00  0.00    -0.471 OA
ATOM     13  C   UNL     1      32.362 -14.336 -21.526  0.00  0.00    +0.252 C 
ENDBRANCH   7  12
BRANCH   8  14
ATOM     14  O   UNL     1      34.477 -17.627 -25.599  0.00  0.00    -0.471 OA
ATOM     15  C   UNL     1      33.581 -18.714 -25.377  0.00  0.00    +0.252 C 
ENDBRANCH   8  14
BRANCH  11  16
ATOM     16  O   UNL     1      32.752 -13.348 -26.770  0.00  0.00    -0.471 OA
ATOM     17  C   UNL     1      33.675 -12.348 -27.197  0.00  0.00    +0.252 C 
ENDBRANCH  11  16
ENDBRANCH   5   6
ENDBRANCH   1   4
BRANCH   1  18
ATOM     18  C   UNL     1      35.102 -19.879 -21.843  0.00  0.00    +0.182 C 
BRANCH  18  19
ATOM     19  C   UNL     1      34.923 -20.701 -20.604  0.00  0.00    +0.003 C 
ATOM     20  C   UNL     1      36.032 -21.057 -19.837  0.00  0.00    +0.015 C 
ATOM     21  C   UNL     1      35.866 -21.824 -18.683  0.00  0.00    +0.079 C 
ATOM     22  C   UNL     1      33.647 -21.112 -20.218  0.00  0.00    +0.001 C 
ATOM     23  C   UNL     1      34.590 -22.234 -18.296  0.00  0.00    +0.152 C 
ATOM     24  C   UNL     1      33.481 -21.879 -19.064  0.00  0.00    +0.038 C 
BRANCH  23  25
ATOM     25  O   UNL     1      34.406 -22.983 -17.173  0.00  0.00    -0.470 OA
ATOM     26  C   UNL     1      33.061 -23.301 -16.820  0.00  0.00    +0.253 C 
ENDBRANCH  23  25
BRANCH  21  27
ATOM     27  N   UNL     1      36.997 -22.176 -17.916  0.00  0.00    -0.321 N 
ATOM     28  H   UNL     1      37.629 -22.835 -18.284  0.00  0.00    +0.147 HD
BRANCH  27  29
ATOM     29  C   UNL     1      37.265 -21.620 -16.627  0.00  0.00    +0.198 C 
BRANCH  29  31
ATOM     30  O   UNL     1      38.376 -23.400 -15.443  0.00  0.00    -0.248 OA
ATOM     31  C   UNL     1      37.369 -22.729 -15.620  0.00  0.00    +0.334 C 
BRANCH  31  32
ATOM     32  O   UNL     1      36.225 -22.899 -14.909  0.00  0.00    -0.479 OA
ATOM     33  H   UNL     1      35.911 -22.211 -14.356  0.00  0.00    +0.295 HD
ENDBRANCH  31  32
ENDBRANCH  29  31
ENDBRANCH  27  29
ENDBRANCH  21  27
ENDBRANCH  18  19
ENDBRANCH   1  18
TORSDOF 12
ENDMDL
MODEL 7
REMARK VINA RESULT:      -8.2      7.265     11.513
REMARK  Name = 6918736
REMARK  12 active torsions:
REMARK  status: ('A' for Active; 'I' for Inactive)
REMARK    1  A    between atoms: S_1  and  C_4
REMARK    2  A    between atoms: S_1  and  C_18
REMARK    3  A    between atoms: C_5  and  C_6
REMARK    4  A    between atoms: C_7  and  O_12
REMARK    5  A    between atoms: C_8  and  O_14
REMARK    6  A    between atoms: C_11  and  O_16
REMARK    7  A    between atoms: C_18  and  C_19
REMARK    8  A    between atoms: C_21  and  N_27
REMARK    9  A    between atoms: C_23  and  O_25
REMARK   10  A    between atoms: N_27  and  C_29
REMARK   11  A    between atoms: C_29  and  C_31
REMARK   12  A    between atoms: C_31  and  O_32
REMARK                            x       y       z     vdW  Elec       q    Type
REMARK                         _______ _______ _______ _____ _____    ______ ____
ROOT
ATOM      1  S   UNL     1      31.717 -11.465 -21.843  0.00  0.00    +0.014 S 
ATOM      2  O   UNL     1      30.428 -10.994 -22.320  0.00  0.00    -0.168 OA
ATOM      3  O   UNL     1      32.019 -11.463 -20.422  0.00  0.00    -0.168 OA
ENDROOT
BRANCH   1   4
ATOM      4  C   UNL     1      32.018 -13.034 -22.483  0.00  0.00    +0.123 C 
ATOM      5  C   UNL     1      33.142 -13.209 -23.205  0.00  0.00    +0.026 C 
BRANCH   5   6
ATOM      6  C   UNL     1      33.565 -14.465 -23.815  0.00  0.00    +0.069 C 
ATOM      7  C   UNL     1      33.275 -14.721 -25.156  0.00  0.00    +0.145 C 
ATOM      8  C   UNL     1      34.258 -15.410 -23.060  0.00  0.00    +0.145 C 
ATOM      9  C   UNL     1      33.680 -15.921 -25.739  0.00  0.00    +0.074 C 
ATOM     10  C   UNL     1      34.662 -16.610 -23.643  0.00  0.00    +0.074 C 
ATOM     11  C   UNL     1      34.373 -16.866 -24.983  0.00  0.00    +0.145 C 
BRANCH   7  12
ATOM     12  O   UNL     1      32.599 -13.817 -25.920  0.00  0.00    -0.471 OA
ATOM     13  C   UNL     1      33.254 -13.344 -27.095  0.00  0.00    +0.252 C 
ENDBRANCH   7  12
BRANCH   8  14
ATOM     14  O   UNL     1      34.555 -15.187 -21.747  0.00  0.00    -0.471 OA
ATOM     15  C   UNL     1      34.796 -16.333 -20.935  0.00  0.00    +0.252 C 
ENDBRANCH   8  14
BRANCH  11  16
ATOM     16  O   UNL     1      34.767 -18.039 -25.552  0.00  0.00    -0.471 OA
ATOM     17  C   UNL     1      34.631 -19.221 -24.765  0.00  0.00    +0.252 C 
ENDBRANCH  11  16
ENDBRANCH   5   6
ENDBRANCH   1   4
BRANCH   1  18
ATOM     18  C   UNL     1      32.959 -10.479 -22.642  0.00  0.00    +0.182 C 
BRANCH  18  19
ATOM     19  C   UNL     1      32.555  -9.043 -22.512  0.00  0.00    +0.003 C 
ATOM     20  C   UNL     1      32.212  -8.309 -23.647  0.00  0.00    +0.015 C 
ATOM     21  C   UNL     1      31.835  -6.971 -23.527  0.00  0.00    +0.079 C 
ATOM     22  C   UNL     1      32.520  -8.440 -21.255  0.00  0.00    +0.001 C 
ATOM     23  C   UNL     1      31.800  -6.368 -22.269  0.00  0.00    +0.152 C 
ATOM     24  C   UNL     1      32.143  -7.101 -21.134  0.00  0.00    +0.038 C 
BRANCH  23  25
ATOM     25  O   UNL     1      31.434  -5.062 -22.130  0.00  0.00    -0.470 OA
ATOM     26  C   UNL     1      30.163  -4.807 -21.536  0.00  0.00    +0.253 C 
ENDBRANCH  23  25
BRANCH  21  27
ATOM     27  N   UNL     1      31.492  -6.241 -24.684  0.00  0.00    -0.321 N 
ATOM     28  H   UNL     1      30.600  -6.376 -25.079  0.00  0.00    +0.147 HD
BRANCH  27  29
ATOM     29  C   UNL     1      32.382  -5.314 -25.310  0.00  0.00    +0.198 C 
BRANCH  29  31
ATOM     30  O   UNL     1      31.964  -3.266 -26.509  0.00  0.00    -0.248 OA
ATOM     31  C   UNL     1      31.638  -4.049 -25.628  0.00  0.00    +0.334 C 
BRANCH  31  32
ATOM     32  O   UNL     1      30.546  -3.873 -24.841  0.00  0.00    -0.479 OA
ATOM     33  H   UNL     1      30.306  -3.012 -24.560  0.00  0.00    +0.295 HD
ENDBRANCH  31  32
ENDBRANCH  29  31
ENDBRANCH  27  29
ENDBRANCH  21  27
ENDBRANCH  18  19
ENDBRANCH   1  18
TORSDOF 12
ENDMDL
MODEL 8
REMARK VINA RESULT:      -8.2      7.377     11.724
REMARK  Name = 6918736
REMARK  12 active torsions:
REMARK  status: ('A' for Active; 'I' for Inactive)
REMARK    1  A    between atoms: S_1  and  C_4
REMARK    2  A    between atoms: S_1  and  C_18
REMARK    3  A    between atoms: C_5  and  C_6
REMARK    4  A    between atoms: C_7  and  O_12
REMARK    5  A    between atoms: C_8  and  O_14
REMARK    6  A    between atoms: C_11  and  O_16
REMARK    7  A    between atoms: C_18  and  C_19
REMARK    8  A    between atoms: C_21  and  N_27
REMARK    9  A    between atoms: C_23  and  O_25
REMARK   10  A    between atoms: N_27  and  C_29
REMARK   11  A    between atoms: C_29  and  C_31
REMARK   12  A    between atoms: C_31  and  O_32
REMARK                            x       y       z     vdW  Elec       q    Type
REMARK                         _______ _______ _______ _____ _____    ______ ____
ROOT
ATOM      1  S   UNL     1      31.733 -11.349 -21.921  0.00  0.00    +0.014 S 
ATOM      2  O   UNL     1      30.450 -10.894 -22.428  0.00  0.00    -0.168 OA
ATOM      3  O   UNL     1      32.011 -11.317 -20.495  0.00  0.00    -0.168 OA
ENDROOT
BRANCH   1   4
ATOM      4  C   UNL     1      32.052 -12.929 -22.525  0.00  0.00    +0.123 C 
ATOM      5  C   UNL     1      33.168 -13.103 -23.260  0.00  0.00    +0.026 C 
BRANCH   5   6
ATOM      6  C   UNL     1      33.603 -14.368 -23.843  0.00  0.00    +0.069 C 
ATOM      7  C   UNL     1      34.343 -15.271 -23.079  0.00  0.00    +0.145 C 
ATOM      8  C   UNL     1      33.281 -14.674 -25.165  0.00  0.00    +0.145 C 
ATOM      9  C   UNL     1      34.758 -16.479 -23.637  0.00  0.00    +0.074 C 
ATOM     10  C   UNL     1      33.696 -15.882 -25.723  0.00  0.00    +0.074 C 
ATOM     11  C   UNL     1      34.435 -16.785 -24.959  0.00  0.00    +0.145 C 
BRANCH   7  12
ATOM     12  O   UNL     1      34.673 -14.999 -21.784  0.00  0.00    -0.471 OA
ATOM     13  C   UNL     1      34.697 -16.099 -20.878  0.00  0.00    +0.252 C 
ENDBRANCH   7  12
BRANCH   8  14
ATOM     14  O   UNL     1      32.560 -13.811 -25.936  0.00  0.00    -0.471 OA
ATOM     15  C   UNL     1      33.182 -13.331 -27.125  0.00  0.00    +0.252 C 
ENDBRANCH   8  14
BRANCH  11  16
ATOM     16  O   UNL     1      34.842 -17.965 -25.504  0.00  0.00    -0.471 OA
ATOM     17  C   UNL     1      34.551 -19.154 -24.770  0.00  0.00    +0.252 C 
ENDBRANCH  11  16
ENDBRANCH   5   6
ENDBRANCH   1   4
BRANCH   1  18
ATOM     18  C   UNL     1      32.984 -10.373 -22.719  0.00  0.00    +0.182 C 
BRANCH  18  19
ATOM     19  C   UNL     1      32.598  -8.933 -22.576  0.00  0.00    +0.003 C 
ATOM     20  C   UNL     1      32.205  -8.202 -23.697  0.00  0.00    +0.015 C 
ATOM     21  C   UNL     1      31.846  -6.860 -23.565  0.00  0.00    +0.079 C 
ATOM     22  C   UNL     1      32.632  -8.323 -21.323  0.00  0.00    +0.001 C 
ATOM     23  C   UNL     1      31.879  -6.250 -22.310  0.00  0.00    +0.152 C 
ATOM     24  C   UNL     1      32.272  -6.981 -21.190  0.00  0.00    +0.038 C 
BRANCH  23  25
ATOM     25  O   UNL     1      31.532  -4.941 -22.159  0.00  0.00    -0.470 OA
ATOM     26  C   UNL     1      30.241  -4.673 -21.616  0.00  0.00    +0.253 C 
ENDBRANCH  23  25
BRANCH  21  27
ATOM     27  N   UNL     1      31.451  -6.132 -24.707  0.00  0.00    -0.321 N 
ATOM     28  H   UNL     1      30.524  -6.224 -25.027  0.00  0.00    +0.147 HD
BRANCH  27  29
ATOM     29  C   UNL     1      32.337  -5.268 -25.422  0.00  0.00    +0.198 C 
BRANCH  29  31
ATOM     30  O   UNL     1      32.401  -2.889 -25.803  0.00  0.00    -0.248 OA
ATOM     31  C   UNL     1      31.790  -3.870 -25.402  0.00  0.00    +0.334 C 
BRANCH  31  32
ATOM     32  O   UNL     1      30.529  -3.809 -24.903  0.00  0.00    -0.479 OA
ATOM     33  H   UNL     1      30.376  -3.979 -23.995  0.00  0.00    +0.295 HD
ENDBRANCH  31  32
ENDBRANCH  29  31
ENDBRANCH  27  29
ENDBRANCH  21  27
ENDBRANCH  18  19
ENDBRANCH   1  18
TORSDOF 12
ENDMDL
MODEL 9
REMARK VINA RESULT:      -8.2      2.837     10.397
REMARK  Name = 6918736
REMARK  12 active torsions:
REMARK  status: ('A' for Active; 'I' for Inactive)
REMARK    1  A    between atoms: S_1  and  C_4
REMARK    2  A    between atoms: S_1  and  C_18
REMARK    3  A    between atoms: C_5  and  C_6
REMARK    4  A    between atoms: C_7  and  O_12
REMARK    5  A    between atoms: C_8  and  O_14
REMARK    6  A    between atoms: C_11  and  O_16
REMARK    7  A    between atoms: C_18  and  C_19
REMARK    8  A    between atoms: C_21  and  N_27
REMARK    9  A    between atoms: C_23  and  O_25
REMARK   10  A    between atoms: N_27  and  C_29
REMARK   11  A    between atoms: C_29  and  C_31
REMARK   12  A    between atoms: C_31  and  O_32
REMARK                            x       y       z     vdW  Elec       q    Type
REMARK                         _______ _______ _______ _____ _____    ______ ____
ROOT
ATOM      1  S   UNL     1      34.852 -18.833 -22.521  0.00  0.00    +0.014 S 
ATOM      2  O   UNL     1      33.564 -19.083 -21.896  0.00  0.00    -0.168 OA
ATOM      3  O   UNL     1      35.289 -19.638 -23.649  0.00  0.00    -0.168 OA
ENDROOT
BRANCH   1   4
ATOM      4  C   UNL     1      34.965 -17.166 -22.937  0.00  0.00    +0.123 C 
ATOM      5  C   UNL     1      33.822 -16.454 -22.973  0.00  0.00    +0.026 C 
BRANCH   5   6
ATOM      6  C   UNL     1      33.725 -15.034 -23.295  0.00  0.00    +0.069 C 
ATOM      7  C   UNL     1      33.761 -14.083 -22.275  0.00  0.00    +0.145 C 
ATOM      8  C   UNL     1      33.594 -14.627 -24.623  0.00  0.00    +0.145 C 
ATOM      9  C   UNL     1      33.669 -12.726 -22.583  0.00  0.00    +0.074 C 
ATOM     10  C   UNL     1      33.501 -13.270 -24.931  0.00  0.00    +0.074 C 
ATOM     11  C   UNL     1      33.538 -12.320 -23.911  0.00  0.00    +0.145 C 
BRANCH   7  12
ATOM     12  O   UNL     1      33.888 -14.451 -20.968  0.00  0.00    -0.471 OA
ATOM     13  C   UNL     1      32.698 -14.840 -20.287  0.00  0.00    +0.252 C 
ENDBRANCH   7  12
BRANCH   8  14
ATOM     14  O   UNL     1      33.555 -15.533 -25.641  0.00  0.00    -0.471 OA
ATOM     15  C   UNL     1      32.668 -15.255 -26.721  0.00  0.00    +0.252 C 
ENDBRANCH   8  14
BRANCH  11  16
ATOM     16  O   UNL     1      33.447 -10.995 -24.212  0.00  0.00    -0.471 OA
ATOM     17  C   UNL     1      32.814 -10.152 -23.250  0.00  0.00    +0.252 C 
ENDBRANCH  11  16
ENDBRANCH   5   6
ENDBRANCH   1   4
BRANCH   1  18
ATOM     18  C   UNL     1      36.086 -18.997 -21.254  0.00  0.00    +0.182 C 
BRANCH  18  19
ATOM     19  C   UNL     1      35.654 -20.100 -20.338  0.00  0.00    +0.003 C 
ATOM     20  C   UNL     1      36.568 -20.669 -19.452  0.00  0.00    +0.015 C 
ATOM     21  C   UNL     1      36.166 -21.697 -18.598  0.00  0.00    +0.079 C 
ATOM     22  C   UNL     1      34.337 -20.559 -20.371  0.00  0.00    +0.001 C 
ATOM     23  C   UNL     1      34.849 -22.156 -18.631  0.00  0.00    +0.152 C 
ATOM     24  C   UNL     1      33.935 -21.587 -19.518  0.00  0.00    +0.038 C 
BRANCH  23  25
ATOM     25  O   UNL     1      34.436 -23.159 -17.806  0.00  0.00    -0.470 OA
ATOM     26  C   UNL     1      33.068 -23.144 -17.404  0.00  0.00    +0.253 C 
ENDBRANCH  23  25
BRANCH  21  27
ATOM     27  N   UNL     1      37.102 -22.264 -17.706  0.00  0.00    -0.321 N 
ATOM     28  H   UNL     1      37.663 -23.008 -18.022  0.00  0.00    +0.147 HD
BRANCH  27  29
ATOM     29  C   UNL     1      37.270 -21.805 -16.363  0.00  0.00    +0.198 C 
BRANCH  29  31
ATOM     30  O   UNL     1      37.728 -22.977 -14.308  0.00  0.00    -0.248 OA
ATOM     31  C   UNL     1      37.240 -22.981 -15.430  0.00  0.00    +0.334 C 
BRANCH  31  32
ATOM     32  O   UNL     1      36.595 -24.052 -15.959  0.00  0.00    -0.479 OA
ATOM     33  H   UNL     1      36.434 -24.093 -16.881  0.00  0.00    +0.295 HD
ENDBRANCH  31  32
ENDBRANCH  29  31
ENDBRANCH  27  29
ENDBRANCH  21  27
ENDBRANCH  18  19
ENDBRANCH   1  18
TORSDOF 12
ENDMDL
