MODEL 1
REMARK VINA RESULT:     -10.6      0.000      0.000
REMARK  Name = 6920596
REMARK  3 active torsions:
REMARK  status: ('A' for Active; 'I' for Inactive)
REMARK    1  A    between atoms: N_2  and  C_7
REMARK    2  A    between atoms: C_4  and  C_15
REMARK    3  A    between atoms: N_14  and  C_18
REMARK                            x       y       z     vdW  Elec       q    Type
REMARK                         _______ _______ _______ _____ _____    ______ ____
ROOT
ATOM      1  O   UNL     1      32.097  -8.951 -19.321  0.00  0.00    -0.275 OA
ATOM      2  N   UNL     1      32.064  -9.516 -21.602  0.00  0.00    -0.281 N 
ATOM      3  C   UNL     1      31.415 -10.495 -22.442  0.00  0.00    +0.103 C 
ATOM      4  C   UNL     1      30.975 -11.574 -21.469  0.00  0.00    +0.106 C 
ATOM      5  C   UNL     1      30.839 -10.856 -20.126  0.00  0.00    +0.096 C 
ATOM      6  C   UNL     1      31.751  -9.659 -20.255  0.00  0.00    +0.226 C 
ENDROOT
BRANCH   2   7
ATOM      7  C   UNL     1      32.842  -8.439 -22.166  0.00  0.00    +0.075 C 
ATOM      8  C   UNL     1      33.804  -8.967 -23.234  0.00  0.00    +0.020 C 
ATOM      9  C   UNL     1      31.923  -7.354 -22.731  0.00  0.00    +0.020 C 
ATOM     10  C   UNL     1      34.598  -7.836 -23.883  0.00  0.00    +0.002 C 
ATOM     11  C   UNL     1      32.719  -6.225 -23.383  0.00  0.00    +0.002 C 
ATOM     12  C   UNL     1      33.680  -6.754 -24.443  0.00  0.00    +0.000 C 
ENDBRANCH   2   7
BRANCH   4  15
ATOM     13  O   UNL     1      32.519 -12.965 -20.315  0.00  0.00    -0.275 OA
ATOM     14  N   UNL     1      32.168 -13.289 -22.620  0.00  0.00    -0.284 N 
ATOM     15  C   UNL     1      31.979 -12.688 -21.381  0.00  0.00    +0.228 C 
ATOM     16  H   UNL     1      31.642 -12.923 -23.366  0.00  0.00    +0.155 HD
BRANCH  14  18
ATOM     17 CL   UNL     1      35.068 -17.126 -20.895  0.00  0.00    -0.082 Cl
ATOM     18  C   UNL     1      33.031 -14.366 -22.930  0.00  0.00    +0.047 C 
ATOM     19  C   UNL     1      33.336 -14.657 -24.250  0.00  0.00    -0.008 C 
ATOM     20  C   UNL     1      33.556 -15.115 -21.888  0.00  0.00    +0.026 C 
ATOM     21  C   UNL     1      34.188 -15.724 -24.536  0.00  0.00    -0.002 C 
ATOM     22  C   UNL     1      32.777 -13.858 -25.382  0.00  0.00    +0.032 C 
ATOM     23  C   UNL     1      34.408 -16.182 -22.174  0.00  0.00    +0.059 C 
ATOM     24  C   UNL     1      34.724 -16.487 -23.499  0.00  0.00    +0.011 C 
ENDBRANCH  14  18
ENDBRANCH   4  15
TORSDOF 3
ENDMDL
MODEL 2
REMARK VINA RESULT:     -10.2      1.485      2.127
REMARK  Name = 6920596
REMARK  3 active torsions:
REMARK  status: ('A' for Active; 'I' for Inactive)
REMARK    1  A    between atoms: N_2  and  C_7
REMARK    2  A    between atoms: C_4  and  C_15
REMARK    3  A    between atoms: N_14  and  C_18
REMARK                            x       y       z     vdW  Elec       q    Type
REMARK                         _______ _______ _______ _____ _____    ______ ____
ROOT
ATOM      1  O   UNL     1      32.559  -8.945 -19.785  0.00  0.00    -0.275 OA
ATOM      2  N   UNL     1      31.907  -9.083 -22.039  0.00  0.00    -0.281 N 
ATOM      3  C   UNL     1      31.156  -9.994 -22.871  0.00  0.00    +0.103 C 
ATOM      4  C   UNL     1      31.164 -11.293 -22.086  0.00  0.00    +0.106 C 
ATOM      5  C   UNL     1      31.354 -10.868 -20.630  0.00  0.00    +0.096 C 
ATOM      6  C   UNL     1      32.035  -9.522 -20.726  0.00  0.00    +0.226 C 
ENDROOT
BRANCH   2   7
ATOM      7  C   UNL     1      32.343  -7.798 -22.533  0.00  0.00    +0.075 C 
ATOM      8  C   UNL     1      33.397  -7.970 -23.631  0.00  0.00    +0.020 C 
ATOM      9  C   UNL     1      31.148  -6.982 -23.030  0.00  0.00    +0.020 C 
ATOM     10  C   UNL     1      33.833  -6.625 -24.206  0.00  0.00    +0.002 C 
ATOM     11  C   UNL     1      31.586  -5.638 -23.608  0.00  0.00    +0.002 C 
ATOM     12  C   UNL     1      32.639  -5.811 -24.699  0.00  0.00    +0.000 C 
ENDBRANCH   2   7
BRANCH   4  15
ATOM     13  O   UNL     1      33.211 -11.776 -23.193  0.00  0.00    -0.275 OA
ATOM     14  N   UNL     1      32.058 -13.504 -22.087  0.00  0.00    -0.284 N 
ATOM     15  C   UNL     1      32.273 -12.204 -22.527  0.00  0.00    +0.228 C 
ATOM     16  H   UNL     1      31.239 -13.656 -21.563  0.00  0.00    +0.155 HD
BRANCH  14  18
ATOM     17 CL   UNL     1      34.681 -16.348 -25.424  0.00  0.00    -0.082 Cl
ATOM     18  C   UNL     1      32.881 -14.634 -22.306  0.00  0.00    +0.047 C 
ATOM     19  C   UNL     1      33.239 -15.452 -21.245  0.00  0.00    -0.008 C 
ATOM     20  C   UNL     1      33.316 -14.897 -23.595  0.00  0.00    +0.026 C 
ATOM     21  C   UNL     1      34.052 -16.560 -21.480  0.00  0.00    -0.002 C 
ATOM     22  C   UNL     1      32.778 -15.179 -19.851  0.00  0.00    +0.032 C 
ATOM     23  C   UNL     1      34.129 -16.006 -23.830  0.00  0.00    +0.059 C 
ATOM     24  C   UNL     1      34.498 -16.837 -22.772  0.00  0.00    +0.011 C 
ENDBRANCH  14  18
ENDBRANCH   4  15
TORSDOF 3
ENDMDL
MODEL 3
REMARK VINA RESULT:     -10.0      7.062     11.762
REMARK  Name = 6920596
REMARK  3 active torsions:
REMARK  status: ('A' for Active; 'I' for Inactive)
REMARK    1  A    between atoms: N_2  and  C_7
REMARK    2  A    between atoms: C_4  and  C_15
REMARK    3  A    between atoms: N_14  and  C_18
REMARK                            x       y       z     vdW  Elec       q    Type
REMARK                         _______ _______ _______ _____ _____    ______ ____
ROOT
ATOM      1  O   UNL     1      37.241 -21.247 -17.189  0.00  0.00    -0.275 OA
ATOM      2  N   UNL     1      35.203 -22.206 -17.857  0.00  0.00    -0.281 N 
ATOM      3  C   UNL     1      34.568 -22.592 -19.096  0.00  0.00    +0.103 C 
ATOM      4  C   UNL     1      35.328 -21.810 -20.152  0.00  0.00    +0.106 C 
ATOM      5  C   UNL     1      36.699 -21.547 -19.530  0.00  0.00    +0.096 C 
ATOM      6  C   UNL     1      36.449 -21.618 -18.042  0.00  0.00    +0.226 C 
ENDROOT
BRANCH   2   7
ATOM      7  C   UNL     1      34.622 -22.541 -16.579  0.00  0.00    +0.075 C 
ATOM      8  C   UNL     1      33.266 -23.229 -16.764  0.00  0.00    +0.020 C 
ATOM      9  C   UNL     1      35.582 -23.411 -15.765  0.00  0.00    +0.020 C 
ATOM     10  C   UNL     1      32.659 -23.641 -15.425  0.00  0.00    +0.002 C 
ATOM     11  C   UNL     1      34.971 -23.825 -14.428  0.00  0.00    +0.002 C 
ATOM     12  C   UNL     1      33.619 -24.506 -14.614  0.00  0.00    +0.000 C 
ENDBRANCH   2   7
BRANCH   4  15
ATOM     13  O   UNL     1      33.523 -20.268 -20.051  0.00  0.00    -0.275 OA
ATOM     14  N   UNL     1      35.424 -19.741 -21.334  0.00  0.00    -0.284 N 
ATOM     15  C   UNL     1      34.639 -20.521 -20.495  0.00  0.00    +0.228 C 
ATOM     16  H   UNL     1      36.298 -20.118 -21.587  0.00  0.00    +0.155 HD
BRANCH  14  18
ATOM     17 CL   UNL     1      34.619 -14.775 -20.445  0.00  0.00    -0.082 Cl
ATOM     18  C   UNL     1      35.113 -18.468 -21.867  0.00  0.00    +0.047 C 
ATOM     19  C   UNL     1      34.898 -18.314 -23.228  0.00  0.00    -0.008 C 
ATOM     20  C   UNL     1      35.029 -17.390 -20.999  0.00  0.00    +0.026 C 
ATOM     21  C   UNL     1      34.593 -17.052 -23.733  0.00  0.00    -0.002 C 
ATOM     22  C   UNL     1      34.985 -19.468 -24.173  0.00  0.00    +0.032 C 
ATOM     23  C   UNL     1      34.724 -16.126 -21.506  0.00  0.00    +0.059 C 
ATOM     24  C   UNL     1      34.506 -15.957 -22.873  0.00  0.00    +0.011 C 
ENDBRANCH  14  18
ENDBRANCH   4  15
TORSDOF 3
ENDMDL
MODEL 4
REMARK VINA RESULT:     -10.0      4.926      7.903
REMARK  Name = 6920596
REMARK  3 active torsions:
REMARK  status: ('A' for Active; 'I' for Inactive)
REMARK    1  A    between atoms: N_2  and  C_7
REMARK    2  A    between atoms: C_4  and  C_15
REMARK    3  A    between atoms: N_14  and  C_18
REMARK                            x       y       z     vdW  Elec       q    Type
REMARK                         _______ _______ _______ _____ _____    ______ ____
ROOT
ATOM      1  O   UNL     1      33.600 -18.574 -25.188  0.00  0.00    -0.275 OA
ATOM      2  N   UNL     1      34.540 -16.869 -23.871  0.00  0.00    -0.281 N 
ATOM      3  C   UNL     1      35.694 -16.702 -23.018  0.00  0.00    +0.103 C 
ATOM      4  C   UNL     1      36.106 -18.125 -22.683  0.00  0.00    +0.106 C 
ATOM      5  C   UNL     1      35.573 -18.968 -23.840  0.00  0.00    +0.096 C 
ATOM      6  C   UNL     1      34.429 -18.152 -24.395  0.00  0.00    +0.226 C 
ENDROOT
BRANCH   2   7
ATOM      7  C   UNL     1      33.695 -15.752 -24.218  0.00  0.00    +0.075 C 
ATOM      8  C   UNL     1      34.129 -14.490 -23.466  0.00  0.00    +0.020 C 
ATOM      9  C   UNL     1      33.699 -15.528 -25.732  0.00  0.00    +0.020 C 
ATOM     10  C   UNL     1      33.281 -13.283 -23.861  0.00  0.00    +0.002 C 
ATOM     11  C   UNL     1      32.854 -14.317 -26.124  0.00  0.00    +0.002 C 
ATOM     12  C   UNL     1      33.285 -13.063 -25.371  0.00  0.00    +0.000 C 
ENDBRANCH   2   7
BRANCH   4  15
ATOM     13  O   UNL     1      34.949 -17.787 -20.635  0.00  0.00    -0.275 OA
ATOM     14  N   UNL     1      35.737 -19.937 -21.177  0.00  0.00    -0.284 N 
ATOM     15  C   UNL     1      35.523 -18.579 -21.376  0.00  0.00    +0.228 C 
ATOM     16  H   UNL     1      36.225 -20.410 -21.890  0.00  0.00    +0.155 HD
BRANCH  14  18
ATOM     17 CL   UNL     1      37.118 -22.487 -16.971  0.00  0.00    -0.082 Cl
ATOM     18  C   UNL     1      35.335 -20.719 -20.069  0.00  0.00    +0.047 C 
ATOM     19  C   UNL     1      33.997 -21.029 -19.883  0.00  0.00    -0.008 C 
ATOM     20  C   UNL     1      36.305 -21.161 -19.183  0.00  0.00    +0.026 C 
ATOM     21  C   UNL     1      33.620 -21.800 -18.784  0.00  0.00    -0.002 C 
ATOM     22  C   UNL     1      32.941 -20.559 -20.829  0.00  0.00    +0.032 C 
ATOM     23  C   UNL     1      35.928 -21.932 -18.083  0.00  0.00    +0.059 C 
ATOM     24  C   UNL     1      34.585 -22.251 -17.883  0.00  0.00    +0.011 C 
ENDBRANCH  14  18
ENDBRANCH   4  15
TORSDOF 3
ENDMDL
MODEL 5
REMARK VINA RESULT:      -9.9      3.159      7.894
REMARK  Name = 6920596
REMARK  3 active torsions:
REMARK  status: ('A' for Active; 'I' for Inactive)
REMARK    1  A    between atoms: N_2  and  C_7
REMARK    2  A    between atoms: C_4  and  C_15
REMARK    3  A    between atoms: N_14  and  C_18
REMARK                            x       y       z     vdW  Elec       q    Type
REMARK                         _______ _______ _______ _____ _____    ______ ____
ROOT
ATOM      1  O   UNL     1      34.308 -15.660 -26.200  0.00  0.00    -0.275 OA
ATOM      2  N   UNL     1      33.897 -15.751 -23.888  0.00  0.00    -0.281 N 
ATOM      3  C   UNL     1      33.016 -15.107 -22.941  0.00  0.00    +0.103 C 
ATOM      4  C   UNL     1      32.568 -13.848 -23.661  0.00  0.00    +0.106 C 
ATOM      5  C   UNL     1      32.709 -14.178 -25.147  0.00  0.00    +0.096 C 
ATOM      6  C   UNL     1      33.749 -15.273 -25.185  0.00  0.00    +0.226 C 
ENDROOT
BRANCH   2   7
ATOM      7  C   UNL     1      34.731 -16.864 -23.502  0.00  0.00    +0.075 C 
ATOM      8  C   UNL     1      34.783 -16.999 -21.977  0.00  0.00    +0.020 C 
ATOM      9  C   UNL     1      34.239 -18.155 -24.159  0.00  0.00    +0.020 C 
ATOM     10  C   UNL     1      35.616 -18.204 -21.548  0.00  0.00    +0.002 C 
ATOM     11  C   UNL     1      35.072 -19.360 -23.725  0.00  0.00    +0.002 C 
ATOM     12  C   UNL     1      35.125 -19.490 -22.206  0.00  0.00    +0.000 C 
ENDBRANCH   2   7
BRANCH   4  15
ATOM     13  O   UNL     1      34.468 -12.812 -22.679  0.00  0.00    -0.275 OA
ATOM     14  N   UNL     1      32.837 -11.480 -23.730  0.00  0.00    -0.284 N 
ATOM     15  C   UNL     1      33.415 -12.665 -23.292  0.00  0.00    +0.228 C 
ATOM     16  H   UNL     1      31.980 -11.564 -24.208  0.00  0.00    +0.155 HD
BRANCH  14  18
ATOM     17 CL   UNL     1      32.526  -7.017 -21.263  0.00  0.00    -0.082 Cl
ATOM     18  C   UNL     1      33.339 -10.167 -23.570  0.00  0.00    +0.047 C 
ATOM     19  C   UNL     1      34.392  -9.721 -24.353  0.00  0.00    -0.008 C 
ATOM     20  C   UNL     1      32.755  -9.346 -22.617  0.00  0.00    +0.026 C 
ATOM     21  C   UNL     1      34.873  -8.424 -24.179  0.00  0.00    -0.002 C 
ATOM     22  C   UNL     1      35.030 -10.595 -25.383  0.00  0.00    +0.032 C 
ATOM     23  C   UNL     1      33.237  -8.049 -22.443  0.00  0.00    +0.059 C 
ATOM     24  C   UNL     1      34.296  -7.588 -23.224  0.00  0.00    +0.011 C 
ENDBRANCH  14  18
ENDBRANCH   4  15
TORSDOF 3
ENDMDL
MODEL 6
REMARK VINA RESULT:      -9.7      3.083      7.896
REMARK  Name = 6920596
REMARK  3 active torsions:
REMARK  status: ('A' for Active; 'I' for Inactive)
REMARK    1  A    between atoms: N_2  and  C_7
REMARK    2  A    between atoms: C_4  and  C_15
REMARK    3  A    between atoms: N_14  and  C_18
REMARK                            x       y       z     vdW  Elec       q    Type
REMARK                         _______ _______ _______ _____ _____    ______ ____
ROOT
ATOM      1  O   UNL     1      34.226 -15.661 -25.938  0.00  0.00    -0.275 OA
ATOM      2  N   UNL     1      33.832 -15.442 -23.632  0.00  0.00    -0.281 N 
ATOM      3  C   UNL     1      32.897 -14.747 -22.777  0.00  0.00    +0.103 C 
ATOM      4  C   UNL     1      32.331 -13.657 -23.670  0.00  0.00    +0.106 C 
ATOM      5  C   UNL     1      32.497 -14.192 -25.092  0.00  0.00    +0.096 C 
ATOM      6  C   UNL     1      33.636 -15.179 -24.983  0.00  0.00    +0.226 C 
ENDROOT
BRANCH   2   7
ATOM      7  C   UNL     1      34.768 -16.402 -23.098  0.00  0.00    +0.075 C 
ATOM      8  C   UNL     1      34.460 -16.698 -21.627  0.00  0.00    +0.020 C 
ATOM      9  C   UNL     1      34.760 -17.681 -23.938  0.00  0.00    +0.020 C 
ATOM     10  C   UNL     1      35.406 -17.753 -21.057  0.00  0.00    +0.002 C 
ATOM     11  C   UNL     1      35.703 -18.737 -23.364  0.00  0.00    +0.002 C 
ATOM     12  C   UNL     1      35.398 -19.027 -21.898  0.00  0.00    +0.000 C 
ENDBRANCH   2   7
BRANCH   4  15
ATOM     13  O   UNL     1      34.218 -12.231 -23.889  0.00  0.00    -0.275 OA
ATOM     14  N   UNL     1      32.265 -11.415 -22.861  0.00  0.00    -0.284 N 
ATOM     15  C   UNL     1      33.063 -12.359 -23.496  0.00  0.00    +0.228 C 
ATOM     16  H   UNL     1      31.357 -11.707 -22.616  0.00  0.00    +0.155 HD
BRANCH  14  18
ATOM     17 CL   UNL     1      34.646  -7.103 -24.220  0.00  0.00    -0.082 Cl
ATOM     18  C   UNL     1      32.608 -10.084 -22.527  0.00  0.00    +0.047 C 
ATOM     19  C   UNL     1      32.191  -9.537 -21.323  0.00  0.00    -0.008 C 
ATOM     20  C   UNL     1      33.363  -9.348 -23.426  0.00  0.00    +0.026 C 
ATOM     21  C   UNL     1      32.537  -8.223 -21.012  0.00  0.00    -0.002 C 
ATOM     22  C   UNL     1      31.376 -10.319 -20.344  0.00  0.00    +0.032 C 
ATOM     23  C   UNL     1      33.710  -8.033 -23.115  0.00  0.00    +0.059 C 
ATOM     24  C   UNL     1      33.297  -7.470 -21.907  0.00  0.00    +0.011 C 
ENDBRANCH  14  18
ENDBRANCH   4  15
TORSDOF 3
ENDMDL
MODEL 7
REMARK VINA RESULT:      -9.4      4.556      9.595
REMARK  Name = 6920596
REMARK  3 active torsions:
REMARK  status: ('A' for Active; 'I' for Inactive)
REMARK    1  A    between atoms: N_2  and  C_7
REMARK    2  A    between atoms: C_4  and  C_15
REMARK    3  A    between atoms: N_14  and  C_18
REMARK                            x       y       z     vdW  Elec       q    Type
REMARK                         _______ _______ _______ _____ _____    ______ ____
ROOT
ATOM      1  O   UNL     1      37.470 -19.420 -20.630  0.00  0.00    -0.275 OA
ATOM      2  N   UNL     1      35.150 -19.441 -21.004  0.00  0.00    -0.281 N 
ATOM      3  C   UNL     1      34.236 -18.973 -22.020  0.00  0.00    +0.103 C 
ATOM      4  C   UNL     1      35.036 -17.926 -22.773  0.00  0.00    +0.106 C 
ATOM      5  C   UNL     1      36.497 -18.318 -22.553  0.00  0.00    +0.096 C 
ATOM      6  C   UNL     1      36.475 -19.113 -21.269  0.00  0.00    +0.226 C 
ENDROOT
BRANCH   2   7
ATOM      7  C   UNL     1      34.701 -20.274 -19.915  0.00  0.00    +0.075 C 
ATOM      8  C   UNL     1      33.256 -20.729 -20.141  0.00  0.00    +0.020 C 
ATOM      9  C   UNL     1      35.639 -21.470 -19.733  0.00  0.00    +0.020 C 
ATOM     10  C   UNL     1      32.778 -21.656 -19.027  0.00  0.00    +0.002 C 
ATOM     11  C   UNL     1      35.157 -22.399 -18.620  0.00  0.00    +0.002 C 
ATOM     12  C   UNL     1      33.716 -22.846 -18.845  0.00  0.00    +0.000 C 
ENDBRANCH   2   7
BRANCH   4  15
ATOM     13  O   UNL     1      35.308 -16.141 -21.229  0.00  0.00    -0.275 OA
ATOM     14  N   UNL     1      33.877 -15.864 -23.076  0.00  0.00    -0.284 N 
ATOM     15  C   UNL     1      34.769 -16.542 -22.255  0.00  0.00    +0.228 C 
ATOM     16  H   UNL     1      33.547 -16.357 -23.862  0.00  0.00    +0.155 HD
BRANCH  14  18
ATOM     17 CL   UNL     1      33.774 -11.058 -24.808  0.00  0.00    -0.082 Cl
ATOM     18  C   UNL     1      33.389 -14.546 -22.913  0.00  0.00    +0.047 C 
ATOM     19  C   UNL     1      32.541 -14.242 -21.859  0.00  0.00    -0.008 C 
ATOM     20  C   UNL     1      33.777 -13.578 -23.826  0.00  0.00    +0.026 C 
ATOM     21  C   UNL     1      32.070 -12.937 -21.716  0.00  0.00    -0.002 C 
ATOM     22  C   UNL     1      32.115 -15.276 -20.869  0.00  0.00    +0.032 C 
ATOM     23  C   UNL     1      33.305 -12.273 -23.682  0.00  0.00    +0.059 C 
ATOM     24  C   UNL     1      32.451 -11.953 -22.627  0.00  0.00    +0.011 C 
ENDBRANCH  14  18
ENDBRANCH   4  15
TORSDOF 3
ENDMDL
MODEL 8
REMARK VINA RESULT:      -8.8      3.964      9.017
REMARK  Name = 6920596
REMARK  3 active torsions:
REMARK  status: ('A' for Active; 'I' for Inactive)
REMARK    1  A    between atoms: N_2  and  C_7
REMARK    2  A    between atoms: C_4  and  C_15
REMARK    3  A    between atoms: N_14  and  C_18
REMARK                            x       y       z     vdW  Elec       q    Type
REMARK                         _______ _______ _______ _____ _____    ______ ____
ROOT
ATOM      1  O   UNL     1      37.209 -18.661 -21.789  0.00  0.00    -0.275 OA
ATOM      2  N   UNL     1      34.867 -18.668 -21.590  0.00  0.00    -0.281 N 
ATOM      3  C   UNL     1      33.740 -18.132 -22.316  0.00  0.00    +0.103 C 
ATOM      4  C   UNL     1      34.346 -17.027 -23.163  0.00  0.00    +0.106 C 
ATOM      5  C   UNL     1      35.812 -17.426 -23.334  0.00  0.00    +0.096 C 
ATOM      6  C   UNL     1      36.093 -18.314 -22.144  0.00  0.00    +0.226 C 
ENDROOT
BRANCH   2   7
ATOM      7  C   UNL     1      34.686 -19.581 -20.487  0.00  0.00    +0.075 C 
ATOM      8  C   UNL     1      33.287 -20.204 -20.525  0.00  0.00    +0.020 C 
ATOM      9  C   UNL     1      35.775 -20.656 -20.498  0.00  0.00    +0.020 C 
ATOM     10  C   UNL     1      33.092 -21.216 -19.398  0.00  0.00    +0.002 C 
ATOM     11  C   UNL     1      35.576 -21.670 -19.372  0.00  0.00    +0.002 C 
ATOM     12  C   UNL     1      34.180 -22.285 -19.409  0.00  0.00    +0.000 C 
ENDBRANCH   2   7
BRANCH   4  15
ATOM     13  O   UNL     1      34.889 -15.423 -21.496  0.00  0.00    -0.275 OA
ATOM     14  N   UNL     1      33.317 -14.876 -23.160  0.00  0.00    -0.284 N 
ATOM     15  C   UNL     1      34.230 -15.687 -22.497  0.00  0.00    +0.228 C 
ATOM     16  H   UNL     1      32.880 -15.268 -23.950  0.00  0.00    +0.155 HD
BRANCH  14  18
ATOM     17 CL   UNL     1      31.272 -11.705 -19.715  0.00  0.00    -0.082 Cl
ATOM     18  C   UNL     1      32.944 -13.552 -22.829  0.00  0.00    +0.047 C 
ATOM     19  C   UNL     1      33.157 -12.521 -23.731  0.00  0.00    -0.008 C 
ATOM     20  C   UNL     1      32.364 -13.317 -21.592  0.00  0.00    +0.026 C 
ATOM     21  C   UNL     1      32.783 -11.223 -23.386  0.00  0.00    -0.002 C 
ATOM     22  C   UNL     1      33.781 -12.761 -25.067  0.00  0.00    +0.032 C 
ATOM     23  C   UNL     1      31.990 -12.018 -21.247  0.00  0.00    +0.059 C 
ATOM     24  C   UNL     1      32.200 -10.970 -22.145  0.00  0.00    +0.011 C 
ENDBRANCH  14  18
ENDBRANCH   4  15
TORSDOF 3
ENDMDL
MODEL 9
REMARK VINA RESULT:      -8.8      4.400      9.199
REMARK  Name = 6920596
REMARK  3 active torsions:
REMARK  status: ('A' for Active; 'I' for Inactive)
REMARK    1  A    between atoms: N_2  and  C_7
REMARK    2  A    between atoms: C_4  and  C_15
REMARK    3  A    between atoms: N_14  and  C_18
REMARK                            x       y       z     vdW  Elec       q    Type
REMARK                         _______ _______ _______ _____ _____    ______ ____
ROOT
ATOM      1  O   UNL     1      36.283 -18.311 -20.610  0.00  0.00    -0.275 OA
ATOM      2  N   UNL     1      34.979 -19.355 -22.265  0.00  0.00    -0.281 N 
ATOM      3  C   UNL     1      34.830 -19.281 -23.699  0.00  0.00    +0.103 C 
ATOM      4  C   UNL     1      35.432 -17.934 -24.058  0.00  0.00    +0.106 C 
ATOM      5  C   UNL     1      36.421 -17.636 -22.932  0.00  0.00    +0.096 C 
ATOM      6  C   UNL     1      35.904 -18.444 -21.764  0.00  0.00    +0.226 C 
ENDROOT
BRANCH   2   7
ATOM      7  C   UNL     1      34.315 -20.376 -21.491  0.00  0.00    +0.075 C 
ATOM      8  C   UNL     1      35.335 -21.226 -20.727  0.00  0.00    +0.020 C 
ATOM      9  C   UNL     1      33.291 -19.749 -20.543  0.00  0.00    +0.020 C 
ATOM     10  C   UNL     1      34.651 -22.278 -19.859  0.00  0.00    +0.002 C 
ATOM     11  C   UNL     1      32.611 -20.803 -19.672  0.00  0.00    +0.002 C 
ATOM     12  C   UNL     1      33.628 -21.651 -18.916  0.00  0.00    +0.000 C 
ENDBRANCH   2   7
BRANCH   4  15
ATOM     13  O   UNL     1      33.471 -16.945 -24.964  0.00  0.00    -0.275 OA
ATOM     14  N   UNL     1      34.621 -15.851 -23.226  0.00  0.00    -0.284 N 
ATOM     15  C   UNL     1      34.384 -16.863 -24.149  0.00  0.00    +0.228 C 
ATOM     16  H   UNL     1      35.414 -15.962 -22.653  0.00  0.00    +0.155 HD
BRANCH  14  18
ATOM     17 CL   UNL     1      33.614 -11.042 -24.628  0.00  0.00    -0.082 Cl
ATOM     18  C   UNL     1      33.854 -14.682 -23.015  0.00  0.00    +0.047 C 
ATOM     19  C   UNL     1      32.891 -14.650 -22.018  0.00  0.00    -0.008 C 
ATOM     20  C   UNL     1      34.088 -13.581 -23.824  0.00  0.00    +0.026 C 
ATOM     21  C   UNL     1      32.144 -13.488 -21.826  0.00  0.00    -0.002 C 
ATOM     22  C   UNL     1      32.628 -15.829 -21.140  0.00  0.00    +0.032 C 
ATOM     23  C   UNL     1      33.340 -12.419 -23.632  0.00  0.00    +0.059 C 
ATOM     24  C   UNL     1      32.368 -12.373 -22.633  0.00  0.00    +0.011 C 
ENDBRANCH  14  18
ENDBRANCH   4  15
TORSDOF 3
ENDMDL
