MODEL 1
REMARK VINA RESULT:      -8.8      0.000      0.000
REMARK  Name = 446853
REMARK  5 active torsions:
REMARK  status: ('A' for Active; 'I' for Inactive)
REMARK    1  A    between atoms: S_1  and  C_5
REMARK    2  A    between atoms: S_1  and  N_13
REMARK    3  A    between atoms: C_6  and  C_10
REMARK    4  A    between atoms: C_10  and  O_11
REMARK    5  A    between atoms: N_13  and  C_16
REMARK                            x       y       z     vdW  Elec       q    Type
REMARK                         _______ _______ _______ _____ _____    ______ ____
ROOT
ATOM      1  S   UNL     1      35.428 -17.870 -21.823  0.00  0.00    +0.074 S 
ATOM      2  O   UNL     1      35.560 -17.521 -20.421  0.00  0.00    -0.150 OA
ATOM      3  O   UNL     1      36.596 -18.134 -22.639  0.00  0.00    -0.150 OA
ENDROOT
BRANCH   1   5
ATOM      4  S   UNL     1      33.681 -14.781 -24.142  0.00  0.00    -0.079 S 
ATOM      5  C   UNL     1      34.707 -16.427 -22.514  0.00  0.00    +0.138 C 
ATOM      6  C   UNL     1      34.351 -16.323 -23.818  0.00  0.00    +0.124 C 
ATOM      7  C   UNL     1      34.454 -15.280 -21.744  0.00  0.00    +0.028 C 
ATOM      8  C   UNL     1      33.887 -14.289 -22.516  0.00  0.00    +0.037 C 
BRANCH   6  10
ATOM      9  O   UNL     1      34.065 -18.450 -24.875  0.00  0.00    -0.244 OA
ATOM     10  C   UNL     1      34.454 -17.262 -24.890  0.00  0.00    +0.345 C 
BRANCH  10  11
ATOM     11  O   UNL     1      35.047 -16.745 -26.013  0.00  0.00    -0.477 OA
ATOM     12  H   UNL     1      34.534 -16.571 -26.776  0.00  0.00    +0.295 HD
ENDBRANCH  10  11
ENDBRANCH   6  10
ENDBRANCH   1   5
BRANCH   1  13
ATOM     13  N   UNL     1      34.271 -19.145 -21.990  0.00  0.00    -0.215 N 
ATOM     14  H   UNL     1      33.685 -19.210 -22.779  0.00  0.00    +0.174 HD
BRANCH  13  16
ATOM     15 CL   UNL     1      34.000 -23.110 -17.577  0.00  0.00    -0.082 Cl
ATOM     16  C   UNL     1      34.206 -20.099 -20.929  0.00  0.00    +0.065 C 
ATOM     17  C   UNL     1      32.980 -20.400 -20.337  0.00  0.00    +0.017 C 
ATOM     18  C   UNL     1      35.369 -20.729 -20.486  0.00  0.00    +0.017 C 
ATOM     19  C   UNL     1      32.916 -21.331 -19.301  0.00  0.00    +0.013 C 
ATOM     20  C   UNL     1      35.305 -21.659 -19.448  0.00  0.00    +0.013 C 
ATOM     21  C   UNL     1      34.079 -21.961 -18.857  0.00  0.00    +0.058 C 
ENDBRANCH  13  16
ENDBRANCH   1  13
TORSDOF 5
ENDMDL
MODEL 2
REMARK VINA RESULT:      -8.5      1.585      1.899
REMARK  Name = 446853
REMARK  5 active torsions:
REMARK  status: ('A' for Active; 'I' for Inactive)
REMARK    1  A    between atoms: S_1  and  C_5
REMARK    2  A    between atoms: S_1  and  N_13
REMARK    3  A    between atoms: C_6  and  C_10
REMARK    4  A    between atoms: C_10  and  O_11
REMARK    5  A    between atoms: N_13  and  C_16
REMARK                            x       y       z     vdW  Elec       q    Type
REMARK                         _______ _______ _______ _____ _____    ______ ____
ROOT
ATOM      1  S   UNL     1      33.673 -16.253 -21.200  0.00  0.00    +0.074 S 
ATOM      2  O   UNL     1      32.406 -16.386 -20.508  0.00  0.00    -0.150 OA
ATOM      3  O   UNL     1      34.852 -15.767 -20.512  0.00  0.00    -0.150 OA
ENDROOT
BRANCH   1   5
ATOM      4  S   UNL     1      33.213 -13.779 -24.613  0.00  0.00    -0.079 S 
ATOM      5  C   UNL     1      33.323 -15.039 -22.418  0.00  0.00    +0.138 C 
ATOM      6  C   UNL     1      33.729 -15.138 -23.709  0.00  0.00    +0.124 C 
ATOM      7  C   UNL     1      32.592 -13.878 -22.122  0.00  0.00    +0.028 C 
ATOM      8  C   UNL     1      32.454 -13.088 -23.243  0.00  0.00    +0.037 C 
BRANCH   6  10
ATOM      9  O   UNL     1      34.083 -16.884 -25.307  0.00  0.00    -0.244 OA
ATOM     10  C   UNL     1      34.482 -16.155 -24.372  0.00  0.00    +0.345 C 
BRANCH  10  11
ATOM     11  O   UNL     1      35.758 -16.292 -23.888  0.00  0.00    -0.477 OA
ATOM     12  H   UNL     1      35.898 -16.483 -22.983  0.00  0.00    +0.295 HD
ENDBRANCH  10  11
ENDBRANCH   6  10
ENDBRANCH   1   5
BRANCH   1  13
ATOM     13  N   UNL     1      34.026 -17.725 -22.039  0.00  0.00    -0.215 N 
ATOM     14  H   UNL     1      34.164 -17.744 -23.013  0.00  0.00    +0.174 HD
BRANCH  13  16
ATOM     15 CL   UNL     1      34.362 -22.661 -18.753  0.00  0.00    -0.082 Cl
ATOM     16  C   UNL     1      34.107 -18.912 -21.249  0.00  0.00    +0.065 C 
ATOM     17  C   UNL     1      32.941 -19.529 -20.795  0.00  0.00    +0.017 C 
ATOM     18  C   UNL     1      35.352 -19.455 -20.931  0.00  0.00    +0.017 C 
ATOM     19  C   UNL     1      33.020 -20.688 -20.024  0.00  0.00    +0.013 C 
ATOM     20  C   UNL     1      35.431 -20.614 -20.159  0.00  0.00    +0.013 C 
ATOM     21  C   UNL     1      34.265 -21.230 -19.706  0.00  0.00    +0.058 C 
ENDBRANCH  13  16
ENDBRANCH   1  13
TORSDOF 5
ENDMDL
MODEL 3
REMARK VINA RESULT:      -8.4      8.593     10.473
REMARK  Name = 446853
REMARK  5 active torsions:
REMARK  status: ('A' for Active; 'I' for Inactive)
REMARK    1  A    between atoms: S_1  and  C_5
REMARK    2  A    between atoms: S_1  and  N_13
REMARK    3  A    between atoms: C_6  and  C_10
REMARK    4  A    between atoms: C_10  and  O_11
REMARK    5  A    between atoms: N_13  and  C_16
REMARK                            x       y       z     vdW  Elec       q    Type
REMARK                         _______ _______ _______ _____ _____    ______ ____
ROOT
ATOM      1  S   UNL     1      35.785 -23.778 -15.324  0.00  0.00    +0.074 S 
ATOM      2  O   UNL     1      35.314 -25.131 -15.548  0.00  0.00    -0.150 OA
ATOM      3  O   UNL     1      36.718 -23.152 -16.239  0.00  0.00    -0.150 OA
ENDROOT
BRANCH   1   5
ATOM      4  S   UNL     1      38.404 -24.512 -12.070  0.00  0.00    -0.079 S 
ATOM      5  C   UNL     1      36.659 -23.918 -13.808  0.00  0.00    +0.138 C 
ATOM      6  C   UNL     1      37.839 -24.576 -13.686  0.00  0.00    +0.124 C 
ATOM      7  C   UNL     1      36.179 -23.349 -12.618  0.00  0.00    +0.028 C 
ATOM      8  C   UNL     1      37.043 -23.599 -11.574  0.00  0.00    +0.037 C 
BRANCH   6  10
ATOM      9  O   UNL     1      38.705 -26.511 -14.793  0.00  0.00    -0.244 OA
ATOM     10  C   UNL     1      38.622 -25.271 -14.656  0.00  0.00    +0.345 C 
BRANCH  10  11
ATOM     11  O   UNL     1      39.327 -24.438 -15.487  0.00  0.00    -0.477 OA
ATOM     12  H   UNL     1      39.369 -23.521 -15.305  0.00  0.00    +0.295 HD
ENDBRANCH  10  11
ENDBRANCH   6  10
ENDBRANCH   1   5
BRANCH   1  13
ATOM     13  N   UNL     1      34.432 -22.739 -15.035  0.00  0.00    -0.215 N 
ATOM     14  H   UNL     1      34.542 -21.768 -14.923  0.00  0.00    +0.174 HD
BRANCH  13  16
ATOM     15 CL   UNL     1      29.091 -25.320 -14.742  0.00  0.00    -0.082 Cl
ATOM     16  C   UNL     1      33.148 -23.360 -14.964  0.00  0.00    +0.065 C 
ATOM     17  C   UNL     1      32.264 -23.258 -16.038  0.00  0.00    +0.017 C 
ATOM     18  C   UNL     1      32.778 -24.069 -13.821  0.00  0.00    +0.017 C 
ATOM     19  C   UNL     1      31.010 -23.865 -15.970  0.00  0.00    +0.013 C 
ATOM     20  C   UNL     1      31.523 -24.675 -13.752  0.00  0.00    +0.013 C 
ATOM     21  C   UNL     1      30.640 -24.573 -14.827  0.00  0.00    +0.058 C 
ENDBRANCH  13  16
ENDBRANCH   1  13
TORSDOF 5
ENDMDL
MODEL 4
REMARK VINA RESULT:      -8.3      5.381      8.409
REMARK  Name = 446853
REMARK  5 active torsions:
REMARK  status: ('A' for Active; 'I' for Inactive)
REMARK    1  A    between atoms: S_1  and  C_5
REMARK    2  A    between atoms: S_1  and  N_13
REMARK    3  A    between atoms: C_6  and  C_10
REMARK    4  A    between atoms: C_10  and  O_11
REMARK    5  A    between atoms: N_13  and  C_16
REMARK                            x       y       z     vdW  Elec       q    Type
REMARK                         _______ _______ _______ _____ _____    ______ ____
ROOT
ATOM      1  S   UNL     1      33.792 -23.036 -18.115  0.00  0.00    +0.074 S 
ATOM      2  O   UNL     1      33.676 -24.323 -18.772  0.00  0.00    -0.150 OA
ATOM      3  O   UNL     1      35.088 -22.500 -17.749  0.00  0.00    -0.150 OA
ENDROOT
BRANCH   1   5
ATOM      4  S   UNL     1      32.472 -23.892 -14.178  0.00  0.00    -0.079 S 
ATOM      5  C   UNL     1      32.962 -23.302 -16.592  0.00  0.00    +0.138 C 
ATOM      6  C   UNL     1      33.584 -23.749 -15.472  0.00  0.00    +0.124 C 
ATOM      7  C   UNL     1      31.586 -23.065 -16.443  0.00  0.00    +0.028 C 
ATOM      8  C   UNL     1      31.178 -23.350 -15.158  0.00  0.00    +0.037 C 
BRANCH   6  10
ATOM      9  O   UNL     1      35.479 -25.209 -15.449  0.00  0.00    -0.244 OA
ATOM     10  C   UNL     1      34.950 -24.095 -15.241  0.00  0.00    +0.345 C 
BRANCH  10  11
ATOM     11  O   UNL     1      35.699 -23.060 -14.742  0.00  0.00    -0.477 OA
ATOM     12  H   UNL     1      35.952 -23.057 -13.840  0.00  0.00    +0.295 HD
ENDBRANCH  10  11
ENDBRANCH   6  10
ENDBRANCH   1   5
BRANCH   1  13
ATOM     13  N   UNL     1      32.877 -21.859 -18.992  0.00  0.00    -0.215 N 
ATOM     14  H   UNL     1      31.896 -21.815 -18.928  0.00  0.00    +0.174 HD
BRANCH  13  16
ATOM     15 CL   UNL     1      35.938 -18.092 -22.415  0.00  0.00    -0.082 Cl
ATOM     16  C   UNL     1      33.613 -20.953 -19.815  0.00  0.00    +0.065 C 
ATOM     17  C   UNL     1      35.002 -21.052 -19.892  0.00  0.00    +0.017 C 
ATOM     18  C   UNL     1      32.942 -19.970 -20.543  0.00  0.00    +0.017 C 
ATOM     19  C   UNL     1      35.721 -20.168 -20.696  0.00  0.00    +0.013 C 
ATOM     20  C   UNL     1      33.661 -19.084 -21.346  0.00  0.00    +0.013 C 
ATOM     21  C   UNL     1      35.050 -19.184 -21.423  0.00  0.00    +0.058 C 
ENDBRANCH  13  16
ENDBRANCH   1  13
TORSDOF 5
ENDMDL
MODEL 5
REMARK VINA RESULT:      -8.3      9.234     11.323
REMARK  Name = 446853
REMARK  5 active torsions:
REMARK  status: ('A' for Active; 'I' for Inactive)
REMARK    1  A    between atoms: S_1  and  C_5
REMARK    2  A    between atoms: S_1  and  N_13
REMARK    3  A    between atoms: C_6  and  C_10
REMARK    4  A    between atoms: C_10  and  O_11
REMARK    5  A    between atoms: N_13  and  C_16
REMARK                            x       y       z     vdW  Elec       q    Type
REMARK                         _______ _______ _______ _____ _____    ______ ____
ROOT
ATOM      1  S   UNL     1      34.919 -24.033 -13.547  0.00  0.00    +0.074 S 
ATOM      2  O   UNL     1      35.158 -22.800 -14.271  0.00  0.00    -0.150 OA
ATOM      3  O   UNL     1      34.631 -24.020 -12.127  0.00  0.00    -0.150 OA
ENDROOT
BRANCH   1   5
ATOM      4  S   UNL     1      38.857 -25.592 -13.342  0.00  0.00    -0.079 S 
ATOM      5  C   UNL     1      36.454 -24.872 -13.693  0.00  0.00    +0.138 C 
ATOM      6  C   UNL     1      37.538 -24.580 -12.932  0.00  0.00    +0.124 C 
ATOM      7  C   UNL     1      36.650 -25.908 -14.620  0.00  0.00    +0.028 C 
ATOM      8  C   UNL     1      37.935 -26.400 -14.538  0.00  0.00    +0.037 C 
BRANCH   6  10
ATOM      9  O   UNL     1      38.323 -22.516 -12.011  0.00  0.00    -0.244 OA
ATOM     10  C   UNL     1      37.718 -23.606 -11.903  0.00  0.00    +0.345 C 
BRANCH  10  11
ATOM     11  O   UNL     1      37.150 -23.963 -10.707  0.00  0.00    -0.477 OA
ATOM     12  H   UNL     1      37.693 -24.177  -9.976  0.00  0.00    +0.295 HD
ENDBRANCH  10  11
ENDBRANCH   6  10
ENDBRANCH   1   5
BRANCH   1  13
ATOM     13  N   UNL     1      33.743 -24.978 -14.395  0.00  0.00    -0.215 N 
ATOM     14  H   UNL     1      33.928 -25.904 -14.673  0.00  0.00    +0.174 HD
BRANCH  13  16
ATOM     15 CL   UNL     1      28.537 -22.363 -15.549  0.00  0.00    -0.082 Cl
ATOM     16  C   UNL     1      32.491 -24.349 -14.673  0.00  0.00    +0.065 C 
ATOM     17  C   UNL     1      32.360 -23.518 -15.784  0.00  0.00    +0.017 C 
ATOM     18  C   UNL     1      31.399 -24.567 -13.832  0.00  0.00    +0.017 C 
ATOM     19  C   UNL     1      31.137 -22.904 -16.056  0.00  0.00    +0.013 C 
ATOM     20  C   UNL     1      30.177 -23.952 -14.102  0.00  0.00    +0.013 C 
ATOM     21  C   UNL     1      30.046 -23.121 -15.215  0.00  0.00    +0.058 C 
ENDBRANCH  13  16
ENDBRANCH   1  13
TORSDOF 5
ENDMDL
MODEL 6
REMARK VINA RESULT:      -8.1      1.600      2.585
REMARK  Name = 446853
REMARK  5 active torsions:
REMARK  status: ('A' for Active; 'I' for Inactive)
REMARK    1  A    between atoms: S_1  and  C_5
REMARK    2  A    between atoms: S_1  and  N_13
REMARK    3  A    between atoms: C_6  and  C_10
REMARK    4  A    between atoms: C_10  and  O_11
REMARK    5  A    between atoms: N_13  and  C_16
REMARK                            x       y       z     vdW  Elec       q    Type
REMARK                         _______ _______ _______ _____ _____    ______ ____
ROOT
ATOM      1  S   UNL     1      34.846 -17.861 -23.170  0.00  0.00    +0.074 S 
ATOM      2  O   UNL     1      36.246 -17.515 -23.023  0.00  0.00    -0.150 OA
ATOM      3  O   UNL     1      34.441 -19.019 -23.941  0.00  0.00    -0.150 OA
ENDROOT
BRANCH   1   5
ATOM      4  S   UNL     1      33.155 -14.239 -24.583  0.00  0.00    -0.079 S 
ATOM      5  C   UNL     1      34.196 -16.483 -24.041  0.00  0.00    +0.138 C 
ATOM      6  C   UNL     1      33.700 -15.380 -23.429  0.00  0.00    +0.124 C 
ATOM      7  C   UNL     1      34.154 -16.444 -25.444  0.00  0.00    +0.028 C 
ATOM      8  C   UNL     1      33.601 -15.260 -25.883  0.00  0.00    +0.037 C 
BRANCH   6  10
ATOM      9  O   UNL     1      34.500 -14.717 -21.273  0.00  0.00    -0.244 OA
ATOM     10  C   UNL     1      33.575 -15.062 -22.042  0.00  0.00    +0.345 C 
BRANCH  10  11
ATOM     11  O   UNL     1      32.291 -15.164 -21.572  0.00  0.00    -0.477 OA
ATOM     12  H   UNL     1      32.104 -15.708 -20.833  0.00  0.00    +0.295 HD
ENDBRANCH  10  11
ENDBRANCH   6  10
ENDBRANCH   1   5
BRANCH   1  13
ATOM     13  N   UNL     1      34.092 -17.877 -21.613  0.00  0.00    -0.215 N 
ATOM     14  H   UNL     1      33.703 -17.063 -21.219  0.00  0.00    +0.174 HD
BRANCH  13  16
ATOM     15 CL   UNL     1      33.966 -23.080 -18.752  0.00  0.00    -0.082 Cl
ATOM     16  C   UNL     1      34.061 -19.129 -20.925  0.00  0.00    +0.065 C 
ATOM     17  C   UNL     1      32.841 -19.694 -20.558  0.00  0.00    +0.017 C 
ATOM     18  C   UNL     1      35.254 -19.786 -20.620  0.00  0.00    +0.017 C 
ATOM     19  C   UNL     1      32.811 -20.916 -19.887  0.00  0.00    +0.013 C 
ATOM     20  C   UNL     1      35.225 -21.008 -19.948  0.00  0.00    +0.013 C 
ATOM     21  C   UNL     1      34.003 -21.572 -19.582  0.00  0.00    +0.058 C 
ENDBRANCH  13  16
ENDBRANCH   1  13
TORSDOF 5
ENDMDL
MODEL 7
REMARK VINA RESULT:      -8.1      9.169     11.070
REMARK  Name = 446853
REMARK  5 active torsions:
REMARK  status: ('A' for Active; 'I' for Inactive)
REMARK    1  A    between atoms: S_1  and  C_5
REMARK    2  A    between atoms: S_1  and  N_13
REMARK    3  A    between atoms: C_6  and  C_10
REMARK    4  A    between atoms: C_10  and  O_11
REMARK    5  A    between atoms: N_13  and  C_16
REMARK                            x       y       z     vdW  Elec       q    Type
REMARK                         _______ _______ _______ _____ _____    ______ ____
ROOT
ATOM      1  S   UNL     1      35.147 -23.648 -14.816  0.00  0.00    +0.074 S 
ATOM      2  O   UNL     1      34.758 -24.391 -16.000  0.00  0.00    -0.150 OA
ATOM      3  O   UNL     1      35.686 -22.308 -14.921  0.00  0.00    -0.150 OA
ENDROOT
BRANCH   1   5
ATOM      4  S   UNL     1      38.211 -25.579 -12.611  0.00  0.00    -0.079 S 
ATOM      5  C   UNL     1      36.459 -24.617 -14.166  0.00  0.00    +0.138 C 
ATOM      6  C   UNL     1      36.937 -24.474 -12.905  0.00  0.00    +0.124 C 
ATOM      7  C   UNL     1      37.098 -25.609 -14.926  0.00  0.00    +0.028 C 
ATOM      8  C   UNL     1      38.090 -26.223 -14.193  0.00  0.00    +0.037 C 
BRANCH   6  10
ATOM      9  O   UNL     1      37.132 -22.529 -11.525  0.00  0.00    -0.244 OA
ATOM     10  C   UNL     1      36.549 -23.585 -11.857  0.00  0.00    +0.345 C 
BRANCH  10  11
ATOM     11  O   UNL     1      35.419 -23.986 -11.191  0.00  0.00    -0.477 OA
ATOM     12  H   UNL     1      35.025 -23.423 -10.555  0.00  0.00    +0.295 HD
ENDBRANCH  10  11
ENDBRANCH   6  10
ENDBRANCH   1   5
BRANCH   1  13
ATOM     13  N   UNL     1      33.861 -23.696 -13.660  0.00  0.00    -0.215 N 
ATOM     14  H   UNL     1      34.033 -23.625 -12.694  0.00  0.00    +0.174 HD
BRANCH  13  16
ATOM     15 CL   UNL     1      28.357 -24.312 -15.805  0.00  0.00    -0.082 Cl
ATOM     16  C   UNL     1      32.537 -23.844 -14.176  0.00  0.00    +0.065 C 
ATOM     17  C   UNL     1      31.821 -25.015 -13.932  0.00  0.00    +0.017 C 
ATOM     18  C   UNL     1      31.961 -22.816 -14.922  0.00  0.00    +0.017 C 
ATOM     19  C   UNL     1      30.528 -25.160 -14.435  0.00  0.00    +0.013 C 
ATOM     20  C   UNL     1      30.668 -22.961 -15.427  0.00  0.00    +0.013 C 
ATOM     21  C   UNL     1      29.952 -24.133 -15.183  0.00  0.00    +0.058 C 
ENDBRANCH  13  16
ENDBRANCH   1  13
TORSDOF 5
ENDMDL
MODEL 8
REMARK VINA RESULT:      -8.1      1.767      2.564
REMARK  Name = 446853
REMARK  5 active torsions:
REMARK  status: ('A' for Active; 'I' for Inactive)
REMARK    1  A    between atoms: S_1  and  C_5
REMARK    2  A    between atoms: S_1  and  N_13
REMARK    3  A    between atoms: C_6  and  C_10
REMARK    4  A    between atoms: C_10  and  O_11
REMARK    5  A    between atoms: N_13  and  C_16
REMARK                            x       y       z     vdW  Elec       q    Type
REMARK                         _______ _______ _______ _____ _____    ______ ____
ROOT
ATOM      1  S   UNL     1      34.589 -18.304 -21.289  0.00  0.00    +0.074 S 
ATOM      2  O   UNL     1      33.211 -18.224 -20.846  0.00  0.00    -0.150 OA
ATOM      3  O   UNL     1      35.632 -17.552 -20.620  0.00  0.00    -0.150 OA
ENDROOT
BRANCH   1   5
ATOM      4  S   UNL     1      34.227 -16.039 -24.855  0.00  0.00    -0.079 S 
ATOM      5  C   UNL     1      34.515 -17.636 -22.910  0.00  0.00    +0.138 C 
ATOM      6  C   UNL     1      34.206 -16.341 -23.169  0.00  0.00    +0.124 C 
ATOM      7  C   UNL     1      34.774 -18.416 -24.048  0.00  0.00    +0.028 C 
ATOM      8  C   UNL     1      34.651 -17.662 -25.195  0.00  0.00    +0.037 C 
BRANCH   6  10
ATOM      9  O   UNL     1      34.645 -14.333 -21.945  0.00  0.00    -0.244 OA
ATOM     10  C   UNL     1      33.885 -15.266 -22.286  0.00  0.00    +0.345 C 
BRANCH  10  11
ATOM     11  O   UNL     1      32.603 -15.322 -21.802  0.00  0.00    -0.477 OA
ATOM     12  H   UNL     1      32.212 -16.150 -21.607  0.00  0.00    +0.295 HD
ENDBRANCH  10  11
ENDBRANCH   6  10
ENDBRANCH   1   5
BRANCH   1  13
ATOM     13  N   UNL     1      35.047 -19.965 -21.445  0.00  0.00    -0.215 N 
ATOM     14  H   UNL     1      35.399 -20.326 -22.290  0.00  0.00    +0.174 HD
BRANCH  13  16
ATOM     15 CL   UNL     1      34.386 -23.388 -16.637  0.00  0.00    -0.082 Cl
ATOM     16  C   UNL     1      34.888 -20.788 -20.289  0.00  0.00    +0.065 C 
ATOM     17  C   UNL     1      33.629 -21.287 -19.956  0.00  0.00    +0.017 C 
ATOM     18  C   UNL     1      35.993 -21.094 -19.494  0.00  0.00    +0.017 C 
ATOM     19  C   UNL     1      33.474 -22.091 -18.827  0.00  0.00    +0.013 C 
ATOM     20  C   UNL     1      35.837 -21.897 -18.364  0.00  0.00    +0.013 C 
ATOM     21  C   UNL     1      34.578 -22.396 -18.031  0.00  0.00    +0.058 C 
ENDBRANCH  13  16
ENDBRANCH   1  13
TORSDOF 5
ENDMDL
MODEL 9
REMARK VINA RESULT:      -8.1      8.993     10.528
REMARK  Name = 446853
REMARK  5 active torsions:
REMARK  status: ('A' for Active; 'I' for Inactive)
REMARK    1  A    between atoms: S_1  and  C_5
REMARK    2  A    between atoms: S_1  and  N_13
REMARK    3  A    between atoms: C_6  and  C_10
REMARK    4  A    between atoms: C_10  and  O_11
REMARK    5  A    between atoms: N_13  and  C_16
REMARK                            x       y       z     vdW  Elec       q    Type
REMARK                         _______ _______ _______ _____ _____    ______ ____
ROOT
ATOM      1  S   UNL     1      34.641 -23.733 -14.549  0.00  0.00    +0.074 S 
ATOM      2  O   UNL     1      34.664 -25.039 -15.180  0.00  0.00    -0.150 OA
ATOM      3  O   UNL     1      34.971 -22.538 -15.299  0.00  0.00    -0.150 OA
ENDROOT
BRANCH   1   5
ATOM      4  S   UNL     1      38.143 -24.189 -12.203  0.00  0.00    -0.079 S 
ATOM      5  C   UNL     1      35.899 -23.869 -13.333  0.00  0.00    +0.138 C 
ATOM      6  C   UNL     1      37.198 -24.124 -13.629  0.00  0.00    +0.124 C 
ATOM      7  C   UNL     1      35.629 -23.720 -11.963  0.00  0.00    +0.028 C 
ATOM      8  C   UNL     1      36.778 -23.872 -11.219  0.00  0.00    +0.037 C 
BRANCH   6  10
ATOM      9  O   UNL     1      38.609 -23.538 -15.470  0.00  0.00    -0.244 OA
ATOM     10  C   UNL     1      37.843 -24.335 -14.886  0.00  0.00    +0.345 C 
BRANCH  10  11
ATOM     11  O   UNL     1      37.550 -25.549 -15.452  0.00  0.00    -0.477 OA
ATOM     12  H   UNL     1      36.928 -26.118 -15.045  0.00  0.00    +0.295 HD
ENDBRANCH  10  11
ENDBRANCH   6  10
ENDBRANCH   1   5
BRANCH   1  13
ATOM     13  N   UNL     1      33.144 -23.527 -13.709  0.00  0.00    -0.215 N 
ATOM     14  H   UNL     1      33.116 -23.273 -12.758  0.00  0.00    +0.174 HD
BRANCH  13  16
ATOM     15 CL   UNL     1      28.173 -24.428 -16.832  0.00  0.00    -0.082 Cl
ATOM     16  C   UNL     1      31.948 -23.744 -14.460  0.00  0.00    +0.065 C 
ATOM     17  C   UNL     1      31.589 -22.853 -15.471  0.00  0.00    +0.017 C 
ATOM     18  C   UNL     1      31.141 -24.847 -14.182  0.00  0.00    +0.017 C 
ATOM     19  C   UNL     1      30.422 -23.065 -16.205  0.00  0.00    +0.013 C 
ATOM     20  C   UNL     1      29.973 -25.058 -14.915  0.00  0.00    +0.013 C 
ATOM     21  C   UNL     1      29.614 -24.168 -15.926  0.00  0.00    +0.058 C 
ENDBRANCH  13  16
ENDBRANCH   1  13
TORSDOF 5
ENDMDL
