MODEL 1
REMARK VINA RESULT:      -8.2      0.000      0.000
REMARK  Name = 151437
REMARK  7 active torsions:
REMARK  status: ('A' for Active; 'I' for Inactive)
REMARK    1  A    between atoms: C_2  and  O_6
REMARK    2  A    between atoms: C_3  and  O_8
REMARK    3  A    between atoms: C_4  and  C_20
REMARK    4  A    between atoms: C_5  and  O_10
REMARK    5  A    between atoms: O_10  and  C_11
REMARK    6  A    between atoms: C_16  and  N_19
REMARK    7  A    between atoms: C_20  and  O_21
REMARK                            x       y       z     vdW  Elec       q    Type
REMARK                         _______ _______ _______ _____ _____    ______ ____
ROOT
ATOM      1  O   UNL     1      35.877 -24.466 -13.120  0.00  0.00    -0.316 OA
ATOM      2  C   UNL     1      37.381 -24.953 -14.907  0.00  0.00    +0.173 C 
ATOM      3  C   UNL     1      36.005 -25.488 -15.248  0.00  0.00    +0.210 C 
ATOM      4  C   UNL     1      37.277 -24.598 -13.426  0.00  0.00    +0.177 C 
ATOM      5  C   UNL     1      35.099 -24.720 -14.298  0.00  0.00    +0.318 C 
ENDROOT
BRANCH   2   6
ATOM      6  O   UNL     1      37.636 -23.769 -15.662  0.00  0.00    -0.379 OA
ATOM      7  H   UNL     1      38.521 -23.434 -15.448  0.00  0.00    +0.211 HD
ENDBRANCH   2   6
BRANCH   3   8
ATOM      8  O   UNL     1      35.959 -26.876 -14.939  0.00  0.00    -0.377 OA
ATOM      9  H   UNL     1      36.606 -27.350 -15.484  0.00  0.00    +0.211 HD
ENDBRANCH   3   8
BRANCH   5  10
ATOM     10  O   UNL     1      34.707 -23.497 -14.911  0.00  0.00    -0.451 OA
BRANCH  10  11
ATOM     11  C   UNL     1      33.377 -23.354 -15.204  0.00  0.00    +0.141 C 
ATOM     12  C   UNL     1      32.442 -23.344 -14.175  0.00  0.00    +0.039 C 
ATOM     13  C   UNL     1      32.974 -23.218 -16.528  0.00  0.00    +0.039 C 
ATOM     14  C   UNL     1      31.087 -23.197 -14.474  0.00  0.00    +0.027 C 
ATOM     15  C   UNL     1      31.619 -23.071 -16.827  0.00  0.00    +0.027 C 
ATOM     16  C   UNL     1      30.676 -23.062 -15.800  0.00  0.00    +0.143 C 
BRANCH  16  19
ATOM     17  O   UNL     1      28.464 -23.655 -15.526  0.00  0.00    -0.126 OA
ATOM     18  O   UNL     1      28.948 -22.048 -16.941  0.00  0.00    -0.126 OA
ATOM     19  N   UNL     1      29.297 -22.915 -16.104  0.00  0.00    +0.058 N 
ENDBRANCH  16  19
ENDBRANCH  10  11
ENDBRANCH   5  10
BRANCH   4  20
ATOM     20  C   UNL     1      37.851 -25.673 -12.512  0.00  0.00    +0.169 C 
BRANCH  20  21
ATOM     21  O   UNL     1      36.784 -26.449 -11.997  0.00  0.00    -0.379 OA
ATOM     22  H   UNL     1      37.031 -27.387 -12.009  0.00  0.00    +0.211 HD
ENDBRANCH  20  21
ENDBRANCH   4  20
TORSDOF 7
ENDMDL
MODEL 2
REMARK VINA RESULT:      -8.2      7.860     10.416
REMARK  Name = 151437
REMARK  7 active torsions:
REMARK  status: ('A' for Active; 'I' for Inactive)
REMARK    1  A    between atoms: C_2  and  O_6
REMARK    2  A    between atoms: C_3  and  O_8
REMARK    3  A    between atoms: C_4  and  C_20
REMARK    4  A    between atoms: C_5  and  O_10
REMARK    5  A    between atoms: O_10  and  C_11
REMARK    6  A    between atoms: C_16  and  N_19
REMARK    7  A    between atoms: C_20  and  O_21
REMARK                            x       y       z     vdW  Elec       q    Type
REMARK                         _______ _______ _______ _____ _____    ______ ____
ROOT
ATOM      1  O   UNL     1      32.635 -15.937 -21.733  0.00  0.00    -0.316 OA
ATOM      2  C   UNL     1      34.629 -14.905 -22.542  0.00  0.00    +0.173 C 
ATOM      3  C   UNL     1      34.944 -15.689 -21.285  0.00  0.00    +0.210 C 
ATOM      4  C   UNL     1      33.103 -14.868 -22.576  0.00  0.00    +0.177 C 
ATOM      5  C   UNL     1      33.756 -16.632 -21.169  0.00  0.00    +0.318 C 
ENDROOT
BRANCH   2   6
ATOM      6  O   UNL     1      35.112 -15.613 -23.683  0.00  0.00    -0.379 OA
ATOM      7  H   UNL     1      36.072 -15.729 -23.608  0.00  0.00    +0.211 HD
ENDBRANCH   2   6
BRANCH   3   8
ATOM      8  O   UNL     1      34.960 -14.799 -20.176  0.00  0.00    -0.377 OA
ATOM      9  H   UNL     1      34.826 -13.891 -20.489  0.00  0.00    +0.211 HD
ENDBRANCH   3   8
BRANCH   5  10
ATOM     10  O   UNL     1      34.029 -17.820 -21.904  0.00  0.00    -0.451 OA
BRANCH  10  11
ATOM     11  C   UNL     1      34.153 -18.976 -21.181  0.00  0.00    +0.141 C 
ATOM     12  C   UNL     1      33.017 -19.604 -20.684  0.00  0.00    +0.039 C 
ATOM     13  C   UNL     1      35.416 -19.512 -20.950  0.00  0.00    +0.039 C 
ATOM     14  C   UNL     1      33.143 -20.783 -19.948  0.00  0.00    +0.027 C 
ATOM     15  C   UNL     1      35.543 -20.691 -20.215  0.00  0.00    +0.027 C 
ATOM     16  C   UNL     1      34.407 -21.325 -19.713  0.00  0.00    +0.143 C 
BRANCH  16  19
ATOM     17  O   UNL     1      33.888 -23.537 -19.319  0.00  0.00    -0.126 OA
ATOM     18  O   UNL     1      35.295 -22.536 -17.963  0.00  0.00    -0.126 OA
ATOM     19  N   UNL     1      34.536 -22.523 -18.962  0.00  0.00    +0.058 N 
ENDBRANCH  16  19
ENDBRANCH  10  11
ENDBRANCH   5  10
BRANCH   4  20
ATOM     20  C   UNL     1      32.524 -13.567 -22.037  0.00  0.00    +0.169 C 
BRANCH  20  21
ATOM     21  O   UNL     1      32.370 -13.684 -20.634  0.00  0.00    -0.379 OA
ATOM     22  H   UNL     1      32.769 -14.516 -20.334  0.00  0.00    +0.211 HD
ENDBRANCH  20  21
ENDBRANCH   4  20
TORSDOF 7
ENDMDL
MODEL 3
REMARK VINA RESULT:      -8.0      1.348      2.555
REMARK  Name = 151437
REMARK  7 active torsions:
REMARK  status: ('A' for Active; 'I' for Inactive)
REMARK    1  A    between atoms: C_2  and  O_6
REMARK    2  A    between atoms: C_3  and  O_8
REMARK    3  A    between atoms: C_4  and  C_20
REMARK    4  A    between atoms: C_5  and  O_10
REMARK    5  A    between atoms: O_10  and  C_11
REMARK    6  A    between atoms: C_16  and  N_19
REMARK    7  A    between atoms: C_20  and  O_21
REMARK                            x       y       z     vdW  Elec       q    Type
REMARK                         _______ _______ _______ _____ _____    ______ ____
ROOT
ATOM      1  O   UNL     1      35.898 -25.389 -14.488  0.00  0.00    -0.316 OA
ATOM      2  C   UNL     1      36.978 -25.008 -12.395  0.00  0.00    +0.173 C 
ATOM      3  C   UNL     1      36.401 -23.704 -12.907  0.00  0.00    +0.210 C 
ATOM      4  C   UNL     1      36.879 -25.947 -13.595  0.00  0.00    +0.177 C 
ATOM      5  C   UNL     1      35.383 -24.169 -13.939  0.00  0.00    +0.318 C 
ENDROOT
BRANCH   2   6
ATOM      6  O   UNL     1      36.166 -25.508 -11.333  0.00  0.00    -0.379 OA
ATOM      7  H   UNL     1      36.281 -26.469 -11.264  0.00  0.00    +0.211 HD
ENDBRANCH   2   6
BRANCH   3   8
ATOM      8  O   UNL     1      37.431 -22.962 -13.549  0.00  0.00    -0.377 OA
ATOM      9  H   UNL     1      37.455 -23.192 -14.490  0.00  0.00    +0.211 HD
ENDBRANCH   3   8
BRANCH   5  10
ATOM     10  O   UNL     1      34.135 -24.397 -13.295  0.00  0.00    -0.451 OA
BRANCH  10  11
ATOM     11  C   UNL     1      33.009 -24.187 -14.045  0.00  0.00    +0.141 C 
ATOM     12  C   UNL     1      33.031 -23.254 -15.076  0.00  0.00    +0.039 C 
ATOM     13  C   UNL     1      31.853 -24.909 -13.770  0.00  0.00    +0.039 C 
ATOM     14  C   UNL     1      31.884 -23.040 -15.841  0.00  0.00    +0.027 C 
ATOM     15  C   UNL     1      30.705 -24.697 -14.535  0.00  0.00    +0.027 C 
ATOM     16  C   UNL     1      30.721 -23.761 -15.570  0.00  0.00    +0.143 C 
BRANCH  16  19
ATOM     17  O   UNL     1      29.482 -22.513 -17.061  0.00  0.00    -0.126 OA
ATOM     18  O   UNL     1      28.624 -24.385 -16.299  0.00  0.00    -0.126 OA
ATOM     19  N   UNL     1      29.553 -23.543 -16.347  0.00  0.00    +0.058 N 
ENDBRANCH  16  19
ENDBRANCH  10  11
ENDBRANCH   5  10
BRANCH   4  20
ATOM     20  C   UNL     1      38.187 -26.074 -14.365  0.00  0.00    +0.169 C 
BRANCH  20  21
ATOM     21  O   UNL     1      37.908 -26.595 -15.652  0.00  0.00    -0.379 OA
ATOM     22  H   UNL     1      38.381 -27.434 -15.770  0.00  0.00    +0.211 HD
ENDBRANCH  20  21
ENDBRANCH   4  20
TORSDOF 7
ENDMDL
MODEL 4
REMARK VINA RESULT:      -7.6      7.982     10.652
REMARK  Name = 151437
REMARK  7 active torsions:
REMARK  status: ('A' for Active; 'I' for Inactive)
REMARK    1  A    between atoms: C_2  and  O_6
REMARK    2  A    between atoms: C_3  and  O_8
REMARK    3  A    between atoms: C_4  and  C_20
REMARK    4  A    between atoms: C_5  and  O_10
REMARK    5  A    between atoms: O_10  and  C_11
REMARK    6  A    between atoms: C_16  and  N_19
REMARK    7  A    between atoms: C_20  and  O_21
REMARK                            x       y       z     vdW  Elec       q    Type
REMARK                         _______ _______ _______ _____ _____    ______ ____
ROOT
ATOM      1  O   UNL     1      34.035 -15.954 -23.223  0.00  0.00    -0.316 OA
ATOM      2  C   UNL     1      33.872 -14.730 -21.181  0.00  0.00    +0.173 C 
ATOM      3  C   UNL     1      33.246 -16.097 -20.998  0.00  0.00    +0.210 C 
ATOM      4  C   UNL     1      34.066 -14.617 -22.691  0.00  0.00    +0.177 C 
ATOM      5  C   UNL     1      33.828 -16.892 -22.158  0.00  0.00    +0.318 C 
ENDROOT
BRANCH   2   6
ATOM      6  O   UNL     1      35.145 -14.694 -20.536  0.00  0.00    -0.379 OA
ATOM      7  H   UNL     1      35.025 -14.479 -19.597  0.00  0.00    +0.211 HD
ENDBRANCH   2   6
BRANCH   3   8
ATOM      8  O   UNL     1      31.837 -15.985 -21.151  0.00  0.00    -0.377 OA
ATOM      9  H   UNL     1      31.489 -15.365 -20.492  0.00  0.00    +0.211 HD
ENDBRANCH   3   8
BRANCH   5  10
ATOM     10  O   UNL     1      35.063 -17.473 -21.755  0.00  0.00    -0.451 OA
BRANCH  10  11
ATOM     11  C   UNL     1      34.995 -18.681 -21.115  0.00  0.00    +0.141 C 
ATOM     12  C   UNL     1      33.759 -19.277 -20.897  0.00  0.00    +0.039 C 
ATOM     13  C   UNL     1      36.165 -19.302 -20.690  0.00  0.00    +0.039 C 
ATOM     14  C   UNL     1      33.689 -20.509 -20.246  0.00  0.00    +0.027 C 
ATOM     15  C   UNL     1      36.097 -20.535 -20.039  0.00  0.00    +0.027 C 
ATOM     16  C   UNL     1      34.859 -21.137 -19.817  0.00  0.00    +0.143 C 
BRANCH  16  19
ATOM     17  O   UNL     1      35.382 -22.530 -18.055  0.00  0.00    -0.126 OA
ATOM     18  O   UNL     1      34.136 -23.323 -19.679  0.00  0.00    -0.126 OA
ATOM     19  N   UNL     1      34.789 -22.390 -19.152  0.00  0.00    +0.058 N 
ENDBRANCH  16  19
ENDBRANCH  10  11
ENDBRANCH   5  10
BRANCH   4  20
ATOM     20  C   UNL     1      32.965 -13.820 -23.378  0.00  0.00    +0.169 C 
BRANCH  20  21
ATOM     21  O   UNL     1      32.057 -13.358 -22.394  0.00  0.00    -0.379 OA
ATOM     22  H   UNL     1      31.339 -14.002 -22.289  0.00  0.00    +0.211 HD
ENDBRANCH  20  21
ENDBRANCH   4  20
TORSDOF 7
ENDMDL
MODEL 5
REMARK VINA RESULT:      -7.6      3.250      7.134
REMARK  Name = 151437
REMARK  7 active torsions:
REMARK  status: ('A' for Active; 'I' for Inactive)
REMARK    1  A    between atoms: C_2  and  O_6
REMARK    2  A    between atoms: C_3  and  O_8
REMARK    3  A    between atoms: C_4  and  C_20
REMARK    4  A    between atoms: C_5  and  O_10
REMARK    5  A    between atoms: O_10  and  C_11
REMARK    6  A    between atoms: C_16  and  N_19
REMARK    7  A    between atoms: C_20  and  O_21
REMARK                            x       y       z     vdW  Elec       q    Type
REMARK                         _______ _______ _______ _____ _____    ______ ____
ROOT
ATOM      1  O   UNL     1      33.252 -23.321 -15.277  0.00  0.00    -0.316 OA
ATOM      2  C   UNL     1      31.713 -23.439 -13.456  0.00  0.00    +0.173 C 
ATOM      3  C   UNL     1      32.527 -24.716 -13.510  0.00  0.00    +0.210 C 
ATOM      4  C   UNL     1      32.024 -22.752 -14.784  0.00  0.00    +0.177 C 
ATOM      5  C   UNL     1      33.724 -24.317 -14.359  0.00  0.00    +0.318 C 
ENDROOT
BRANCH   2   6
ATOM      6  O   UNL     1      32.173 -22.621 -12.381  0.00  0.00    -0.379 OA
ATOM      7  H   UNL     1      33.029 -22.230 -12.616  0.00  0.00    +0.211 HD
ENDBRANCH   2   6
BRANCH   3   8
ATOM      8  O   UNL     1      31.773 -25.717 -14.182  0.00  0.00    -0.377 OA
ATOM      9  H   UNL     1      32.274 -26.547 -14.190  0.00  0.00    +0.211 HD
ENDBRANCH   3   8
BRANCH   5  10
ATOM     10  O   UNL     1      34.738 -23.780 -13.517  0.00  0.00    -0.451 OA
BRANCH  10  11
ATOM     11  C   UNL     1      36.016 -24.218 -13.736  0.00  0.00    +0.141 C 
ATOM     12  C   UNL     1      36.754 -23.692 -14.790  0.00  0.00    +0.039 C 
ATOM     13  C   UNL     1      36.565 -25.186 -12.901  0.00  0.00    +0.039 C 
ATOM     14  C   UNL     1      38.057 -24.137 -15.013  0.00  0.00    +0.027 C 
ATOM     15  C   UNL     1      37.869 -25.632 -13.123  0.00  0.00    +0.027 C 
ATOM     16  C   UNL     1      38.614 -25.108 -14.180  0.00  0.00    +0.143 C 
BRANCH  16  19
ATOM     17  O   UNL     1      40.882 -24.736 -14.367  0.00  0.00    -0.126 OA
ATOM     18  O   UNL     1      40.132 -26.781 -14.642  0.00  0.00    -0.126 OA
ATOM     19  N   UNL     1      39.939 -25.563 -14.407  0.00  0.00    +0.058 N 
ENDBRANCH  16  19
ENDBRANCH  10  11
ENDBRANCH   5  10
BRANCH   4  20
ATOM     20  C   UNL     1      30.952 -22.979 -15.841  0.00  0.00    +0.169 C 
BRANCH  20  21
ATOM     21  O   UNL     1      29.820 -23.563 -15.222  0.00  0.00    -0.379 OA
ATOM     22  H   UNL     1      29.850 -23.394 -14.267  0.00  0.00    +0.211 HD
ENDBRANCH  20  21
ENDBRANCH   4  20
TORSDOF 7
ENDMDL
MODEL 6
REMARK VINA RESULT:      -7.6      6.843      9.194
REMARK  Name = 151437
REMARK  7 active torsions:
REMARK  status: ('A' for Active; 'I' for Inactive)
REMARK    1  A    between atoms: C_2  and  O_6
REMARK    2  A    between atoms: C_3  and  O_8
REMARK    3  A    between atoms: C_4  and  C_20
REMARK    4  A    between atoms: C_5  and  O_10
REMARK    5  A    between atoms: O_10  and  C_11
REMARK    6  A    between atoms: C_16  and  N_19
REMARK    7  A    between atoms: C_20  and  O_21
REMARK                            x       y       z     vdW  Elec       q    Type
REMARK                         _______ _______ _______ _____ _____    ______ ____
ROOT
ATOM      1  O   UNL     1      34.339 -19.245 -23.191  0.00  0.00    -0.316 OA
ATOM      2  C   UNL     1      35.858 -17.502 -22.601  0.00  0.00    +0.173 C 
ATOM      3  C   UNL     1      35.008 -17.856 -21.398  0.00  0.00    +0.210 C 
ATOM      4  C   UNL     1      35.162 -18.210 -23.761  0.00  0.00    +0.177 C 
ATOM      5  C   UNL     1      34.464 -19.229 -21.762  0.00  0.00    +0.318 C 
ENDROOT
BRANCH   2   6
ATOM      6  O   UNL     1      37.170 -18.038 -22.437  0.00  0.00    -0.379 OA
ATOM      7  H   UNL     1      37.124 -19.008 -22.432  0.00  0.00    +0.211 HD
ENDBRANCH   2   6
BRANCH   3   8
ATOM      8  O   UNL     1      33.937 -16.926 -21.298  0.00  0.00    -0.377 OA
ATOM      9  H   UNL     1      33.512 -17.014 -20.431  0.00  0.00    +0.211 HD
ENDBRANCH   3   8
BRANCH   5  10
ATOM     10  O   UNL     1      35.382 -20.226 -21.329  0.00  0.00    -0.451 OA
BRANCH  10  11
ATOM     11  C   UNL     1      35.018 -20.965 -20.235  0.00  0.00    +0.141 C 
ATOM     12  C   UNL     1      33.675 -21.247 -20.010  0.00  0.00    +0.039 C 
ATOM     13  C   UNL     1      35.994 -21.426 -19.359  0.00  0.00    +0.039 C 
ATOM     14  C   UNL     1      33.304 -22.000 -18.896  0.00  0.00    +0.027 C 
ATOM     15  C   UNL     1      35.624 -22.180 -18.245  0.00  0.00    +0.027 C 
ATOM     16  C   UNL     1      34.278 -22.466 -18.013  0.00  0.00    +0.143 C 
BRANCH  16  19
ATOM     17  O   UNL     1      32.702 -23.215 -16.506  0.00  0.00    -0.126 OA
ATOM     18  O   UNL     1      34.775 -23.901 -16.278  0.00  0.00    -0.126 OA
ATOM     19  N   UNL     1      33.901 -23.230 -16.878  0.00  0.00    +0.058 N 
ENDBRANCH  16  19
ENDBRANCH  10  11
ENDBRANCH   5  10
BRANCH   4  20
ATOM     20  C   UNL     1      34.255 -17.290 -24.567  0.00  0.00    +0.169 C 
BRANCH  20  21
ATOM     21  O   UNL     1      34.887 -16.998 -25.801  0.00  0.00    -0.379 OA
ATOM     22  H   UNL     1      34.344 -17.338 -26.530  0.00  0.00    +0.211 HD
ENDBRANCH  20  21
ENDBRANCH   4  20
TORSDOF 7
ENDMDL
MODEL 7
REMARK VINA RESULT:      -7.5      1.651      2.125
REMARK  Name = 151437
REMARK  7 active torsions:
REMARK  status: ('A' for Active; 'I' for Inactive)
REMARK    1  A    between atoms: C_2  and  O_6
REMARK    2  A    between atoms: C_3  and  O_8
REMARK    3  A    between atoms: C_4  and  C_20
REMARK    4  A    between atoms: C_5  and  O_10
REMARK    5  A    between atoms: O_10  and  C_11
REMARK    6  A    between atoms: C_16  and  N_19
REMARK    7  A    between atoms: C_20  and  O_21
REMARK                            x       y       z     vdW  Elec       q    Type
REMARK                         _______ _______ _______ _____ _____    ______ ____
ROOT
ATOM      1  O   UNL     1      34.026 -24.077 -12.629  0.00  0.00    -0.316 OA
ATOM      2  C   UNL     1      36.126 -23.741 -13.713  0.00  0.00    +0.173 C 
ATOM      3  C   UNL     1      35.217 -24.547 -14.618  0.00  0.00    +0.210 C 
ATOM      4  C   UNL     1      35.404 -23.752 -12.368  0.00  0.00    +0.177 C 
ATOM      5  C   UNL     1      33.837 -24.277 -14.037  0.00  0.00    +0.318 C 
ENDROOT
BRANCH   2   6
ATOM      6  O   UNL     1      36.214 -22.400 -14.193  0.00  0.00    -0.379 OA
ATOM      7  H   UNL     1      35.362 -22.139 -14.579  0.00  0.00    +0.211 HD
ENDBRANCH   2   6
BRANCH   3   8
ATOM      8  O   UNL     1      35.534 -25.927 -14.481  0.00  0.00    -0.377 OA
ATOM      9  H   UNL     1      36.093 -26.053 -13.699  0.00  0.00    +0.211 HD
ENDBRANCH   3   8
BRANCH   5  10
ATOM     10  O   UNL     1      33.296 -23.107 -14.640  0.00  0.00    -0.451 OA
BRANCH  10  11
ATOM     11  C   UNL     1      32.001 -23.183 -15.077  0.00  0.00    +0.141 C 
ATOM     12  C   UNL     1      31.710 -22.951 -16.417  0.00  0.00    +0.039 C 
ATOM     13  C   UNL     1      30.987 -23.492 -14.176  0.00  0.00    +0.039 C 
ATOM     14  C   UNL     1      30.390 -23.030 -16.862  0.00  0.00    +0.027 C 
ATOM     15  C   UNL     1      29.667 -23.571 -14.621  0.00  0.00    +0.027 C 
ATOM     16  C   UNL     1      29.369 -23.339 -15.964  0.00  0.00    +0.143 C 
BRANCH  16  19
ATOM     17  O   UNL     1      27.124 -22.861 -15.742  0.00  0.00    -0.126 OA
ATOM     18  O   UNL     1      27.776 -24.037 -17.477  0.00  0.00    -0.126 OA
ATOM     19  N   UNL     1      28.025 -23.416 -16.416  0.00  0.00    +0.058 N 
ENDBRANCH  16  19
ENDBRANCH  10  11
ENDBRANCH   5  10
BRANCH   4  20
ATOM     20  C   UNL     1      35.951 -24.796 -11.404  0.00  0.00    +0.169 C 
BRANCH  20  21
ATOM     21  O   UNL     1      36.072 -24.211 -10.120  0.00  0.00    -0.379 OA
ATOM     22  H   UNL     1      35.617 -23.354 -10.111  0.00  0.00    +0.211 HD
ENDBRANCH  20  21
ENDBRANCH   4  20
TORSDOF 7
ENDMDL
MODEL 8
REMARK VINA RESULT:      -7.3      9.191     10.696
REMARK  Name = 151437
REMARK  7 active torsions:
REMARK  status: ('A' for Active; 'I' for Inactive)
REMARK    1  A    between atoms: C_2  and  O_6
REMARK    2  A    between atoms: C_3  and  O_8
REMARK    3  A    between atoms: C_4  and  C_20
REMARK    4  A    between atoms: C_5  and  O_10
REMARK    5  A    between atoms: O_10  and  C_11
REMARK    6  A    between atoms: C_16  and  N_19
REMARK    7  A    between atoms: C_20  and  O_21
REMARK                            x       y       z     vdW  Elec       q    Type
REMARK                         _______ _______ _______ _____ _____    ______ ____
ROOT
ATOM      1  O   UNL     1      35.689 -17.824 -20.710  0.00  0.00    -0.316 OA
ATOM      2  C   UNL     1      35.026 -19.555 -22.213  0.00  0.00    +0.173 C 
ATOM      3  C   UNL     1      33.793 -18.869 -21.662  0.00  0.00    +0.210 C 
ATOM      4  C   UNL     1      36.158 -19.036 -21.329  0.00  0.00    +0.177 C 
ATOM      5  C   UNL     1      34.346 -17.554 -21.135  0.00  0.00    +0.318 C 
ENDROOT
BRANCH   2   6
ATOM      6  O   UNL     1      35.246 -19.137 -23.560  0.00  0.00    -0.379 OA
ATOM      7  H   UNL     1      36.059 -19.546 -23.896  0.00  0.00    +0.211 HD
ENDBRANCH   2   6
BRANCH   3   8
ATOM      8  O   UNL     1      33.278 -19.640 -20.583  0.00  0.00    -0.377 OA
ATOM      9  H   UNL     1      33.072 -19.055 -19.838  0.00  0.00    +0.211 HD
ENDBRANCH   3   8
BRANCH   5  10
ATOM     10  O   UNL     1      34.338 -16.590 -22.182  0.00  0.00    -0.451 OA
BRANCH  10  11
ATOM     11  C   UNL     1      33.631 -15.439 -21.953  0.00  0.00    +0.141 C 
ATOM     12  C   UNL     1      33.220 -14.658 -23.027  0.00  0.00    +0.039 C 
ATOM     13  C   UNL     1      33.329 -15.064 -20.649  0.00  0.00    +0.039 C 
ATOM     14  C   UNL     1      32.499 -13.487 -22.795  0.00  0.00    +0.027 C 
ATOM     15  C   UNL     1      32.607 -13.892 -20.415  0.00  0.00    +0.027 C 
ATOM     16  C   UNL     1      32.193 -13.104 -21.489  0.00  0.00    +0.143 C 
BRANCH  16  19
ATOM     17  O   UNL     1      31.044 -11.248 -22.233  0.00  0.00    -0.126 OA
ATOM     18  O   UNL     1      31.250 -11.551 -20.068  0.00  0.00    -0.126 OA
ATOM     19  N   UNL     1      31.461 -11.910 -21.252  0.00  0.00    +0.058 N 
ENDBRANCH  16  19
ENDBRANCH  10  11
ENDBRANCH   5  10
BRANCH   4  20
ATOM     20  C   UNL     1      36.542 -20.005 -20.219  0.00  0.00    +0.169 C 
BRANCH  20  21
ATOM     21  O   UNL     1      35.812 -21.206 -20.391  0.00  0.00    -0.379 OA
ATOM     22  H   UNL     1      34.923 -20.999 -20.721  0.00  0.00    +0.211 HD
ENDBRANCH  20  21
ENDBRANCH   4  20
TORSDOF 7
ENDMDL
MODEL 9
REMARK VINA RESULT:      -7.1      6.870      9.169
REMARK  Name = 151437
REMARK  7 active torsions:
REMARK  status: ('A' for Active; 'I' for Inactive)
REMARK    1  A    between atoms: C_2  and  O_6
REMARK    2  A    between atoms: C_3  and  O_8
REMARK    3  A    between atoms: C_4  and  C_20
REMARK    4  A    between atoms: C_5  and  O_10
REMARK    5  A    between atoms: O_10  and  C_11
REMARK    6  A    between atoms: C_16  and  N_19
REMARK    7  A    between atoms: C_20  and  O_21
REMARK                            x       y       z     vdW  Elec       q    Type
REMARK                         _______ _______ _______ _____ _____    ______ ____
ROOT
ATOM      1  O   UNL     1      34.319 -17.771 -21.376  0.00  0.00    -0.316 OA
ATOM      2  C   UNL     1      35.045 -18.183 -23.612  0.00  0.00    +0.173 C 
ATOM      3  C   UNL     1      35.985 -18.872 -22.644  0.00  0.00    +0.210 C 
ATOM      4  C   UNL     1      34.210 -17.267 -22.721  0.00  0.00    +0.177 C 
ATOM      5  C   UNL     1      35.167 -18.928 -21.362  0.00  0.00    +0.318 C 
ENDROOT
BRANCH   2   6
ATOM      6  O   UNL     1      34.195 -19.151 -24.226  0.00  0.00    -0.379 OA
ATOM      7  H   UNL     1      34.725 -19.914 -24.506  0.00  0.00    +0.211 HD
ENDBRANCH   2   6
BRANCH   3   8
ATOM      8  O   UNL     1      37.130 -18.052 -22.447  0.00  0.00    -0.377 OA
ATOM      9  H   UNL     1      37.787 -18.535 -21.922  0.00  0.00    +0.211 HD
ENDBRANCH   3   8
BRANCH   5  10
ATOM     10  O   UNL     1      34.387 -20.119 -21.356  0.00  0.00    -0.451 OA
BRANCH  10  11
ATOM     11  C   UNL     1      34.447 -20.887 -20.224  0.00  0.00    +0.141 C 
ATOM     12  C   UNL     1      35.672 -21.112 -19.608  0.00  0.00    +0.039 C 
ATOM     13  C   UNL     1      33.280 -21.435 -19.701  0.00  0.00    +0.039 C 
ATOM     14  C   UNL     1      35.733 -21.894 -18.453  0.00  0.00    +0.027 C 
ATOM     15  C   UNL     1      33.340 -22.216 -18.547  0.00  0.00    +0.027 C 
ATOM     16  C   UNL     1      34.567 -22.446 -17.924  0.00  0.00    +0.143 C 
BRANCH  16  19
ATOM     17  O   UNL     1      33.560 -23.665 -16.245  0.00  0.00    -0.126 OA
ATOM     18  O   UNL     1      35.750 -23.507 -16.252  0.00  0.00    -0.126 OA
ATOM     19  N   UNL     1      34.629 -23.244 -16.751  0.00  0.00    +0.058 N 
ENDBRANCH  16  19
ENDBRANCH  10  11
ENDBRANCH   5  10
BRANCH   4  20
ATOM     20  C   UNL     1      34.702 -15.826 -22.716  0.00  0.00    +0.169 C 
BRANCH  20  21
ATOM     21  O   UNL     1      35.629 -15.659 -23.774  0.00  0.00    -0.379 OA
ATOM     22  H   UNL     1      36.531 -15.659 -23.416  0.00  0.00    +0.211 HD
ENDBRANCH  20  21
ENDBRANCH   4  20
TORSDOF 7
ENDMDL
