MODEL 1
REMARK VINA RESULT:      -7.1      0.000      0.000
REMARK  Name = 2214
REMARK  3 active torsions:
REMARK  status: ('A' for Active; 'I' for Inactive)
REMARK    1  A    between atoms: C_1  and  C_8
REMARK    2  A    between atoms: C_2  and  O_10
REMARK    3  A    between atoms: C_5  and  O_12
REMARK                            x       y       z     vdW  Elec       q    Type
REMARK                         _______ _______ _______ _____ _____    ______ ____
ROOT
ATOM      1  C   UNL     1      34.889 -18.679 -22.270  0.00  0.00    +0.038 C 
ATOM      2  C   UNL     1      34.948 -16.579 -23.463  0.00  0.00    +0.172 C 
ATOM      3  C   UNL     1      35.011 -17.289 -22.265  0.00  0.00    +0.043 C 
ATOM      4  C   UNL     1      34.705 -19.358 -23.474  0.00  0.00    +0.006 C 
ATOM      5  C   UNL     1      34.764 -17.258 -24.668  0.00  0.00    +0.168 C 
ATOM      6  C   UNL     1      34.642 -18.648 -24.673  0.00  0.00    +0.040 C 
ENDROOT
BRANCH   1   8
ATOM      7  O   UNL     1      35.997 -19.449 -20.334  0.00  0.00    -0.291 OA
ATOM      8  C   UNL     1      34.955 -19.420 -21.021  0.00  0.00    +0.174 C 
ATOM      9  C   UNL     1      33.738 -20.190 -20.518  0.00  0.00    +0.077 C 
ENDBRANCH   1   8
BRANCH   2  10
ATOM     10  O   UNL     1      35.068 -15.223 -23.445  0.00  0.00    -0.468 OA
ATOM     11  C   UNL     1      34.328 -14.520 -22.449  0.00  0.00    +0.253 C 
ENDBRANCH   2  10
BRANCH   5  12
ATOM     12  O   UNL     1      34.700 -16.577 -25.845  0.00  0.00    -0.503 OA
ATOM     13  H   UNL     1      33.875 -16.260 -26.158  0.00  0.00    +0.292 HD
ENDBRANCH   5  12
TORSDOF 3
ENDMDL
MODEL 2
REMARK VINA RESULT:      -7.0      2.493      5.702
REMARK  Name = 2214
REMARK  3 active torsions:
REMARK  status: ('A' for Active; 'I' for Inactive)
REMARK    1  A    between atoms: C_1  and  C_8
REMARK    2  A    between atoms: C_2  and  O_10
REMARK    3  A    between atoms: C_5  and  O_12
REMARK                            x       y       z     vdW  Elec       q    Type
REMARK                         _______ _______ _______ _____ _____    ______ ____
ROOT
ATOM      1  C   UNL     1      35.036 -19.559 -21.067  0.00  0.00    +0.038 C 
ATOM      2  C   UNL     1      34.934 -21.414 -19.522  0.00  0.00    +0.172 C 
ATOM      3  C   UNL     1      35.682 -20.515 -20.282  0.00  0.00    +0.043 C 
ATOM      4  C   UNL     1      33.643 -19.502 -21.091  0.00  0.00    +0.006 C 
ATOM      5  C   UNL     1      33.540 -21.357 -19.546  0.00  0.00    +0.168 C 
ATOM      6  C   UNL     1      32.895 -20.401 -20.331  0.00  0.00    +0.040 C 
ENDROOT
BRANCH   1   8
ATOM      7  O   UNL     1      37.062 -18.596 -21.800  0.00  0.00    -0.291 OA
ATOM      8  C   UNL     1      35.816 -18.621 -21.859  0.00  0.00    +0.174 C 
ATOM      9  C   UNL     1      35.118 -17.634 -22.788  0.00  0.00    +0.077 C 
ENDBRANCH   1   8
BRANCH   2  10
ATOM     10  O   UNL     1      35.576 -22.343 -18.760  0.00  0.00    -0.468 OA
ATOM     11  C   UNL     1      36.506 -21.858 -17.794  0.00  0.00    +0.253 C 
ENDBRANCH   2  10
BRANCH   5  12
ATOM     12  O   UNL     1      32.798 -22.230 -18.810  0.00  0.00    -0.503 OA
ATOM     13  H   UNL     1      33.217 -22.789 -18.185  0.00  0.00    +0.292 HD
ENDBRANCH   5  12
TORSDOF 3
ENDMDL
MODEL 3
REMARK VINA RESULT:      -6.7      1.715      2.051
REMARK  Name = 2214
REMARK  3 active torsions:
REMARK  status: ('A' for Active; 'I' for Inactive)
REMARK    1  A    between atoms: C_1  and  C_8
REMARK    2  A    between atoms: C_2  and  O_10
REMARK    3  A    between atoms: C_5  and  O_12
REMARK                            x       y       z     vdW  Elec       q    Type
REMARK                         _______ _______ _______ _____ _____    ______ ____
ROOT
ATOM      1  C   UNL     1      34.868 -16.933 -22.730  0.00  0.00    +0.038 C 
ATOM      2  C   UNL     1      33.811 -15.256 -24.110  0.00  0.00    +0.172 C 
ATOM      3  C   UNL     1      34.252 -15.688 -22.859  0.00  0.00    +0.043 C 
ATOM      4  C   UNL     1      35.043 -17.745 -23.851  0.00  0.00    +0.006 C 
ATOM      5  C   UNL     1      33.985 -16.067 -25.230  0.00  0.00    +0.168 C 
ATOM      6  C   UNL     1      34.601 -17.312 -25.101  0.00  0.00    +0.040 C 
ENDROOT
BRANCH   1   8
ATOM      7  O   UNL     1      35.185 -16.683 -20.406  0.00  0.00    -0.291 OA
ATOM      8  C   UNL     1      35.329 -17.385 -21.427  0.00  0.00    +0.174 C 
ATOM      9  C   UNL     1      36.009 -18.742 -21.279  0.00  0.00    +0.077 C 
ENDBRANCH   1   8
BRANCH   2  10
ATOM     10  O   UNL     1      33.210 -14.038 -24.223  0.00  0.00    -0.468 OA
ATOM     11  C   UNL     1      32.558 -13.526 -23.062  0.00  0.00    +0.253 C 
ENDBRANCH   2  10
BRANCH   5  12
ATOM     12  O   UNL     1      33.558 -15.657 -26.457  0.00  0.00    -0.503 OA
ATOM     13  H   UNL     1      34.023 -15.921 -27.227  0.00  0.00    +0.292 HD
ENDBRANCH   5  12
TORSDOF 3
ENDMDL
MODEL 4
REMARK VINA RESULT:      -6.5      1.653      1.941
REMARK  Name = 2214
REMARK  3 active torsions:
REMARK  status: ('A' for Active; 'I' for Inactive)
REMARK    1  A    between atoms: C_1  and  C_8
REMARK    2  A    between atoms: C_2  and  O_10
REMARK    3  A    between atoms: C_5  and  O_12
REMARK                            x       y       z     vdW  Elec       q    Type
REMARK                         _______ _______ _______ _____ _____    ______ ____
ROOT
ATOM      1  C   UNL     1      34.246 -19.164 -21.364  0.00  0.00    +0.038 C 
ATOM      2  C   UNL     1      34.329 -16.822 -21.954  0.00  0.00    +0.172 C 
ATOM      3  C   UNL     1      33.859 -17.844 -21.129  0.00  0.00    +0.043 C 
ATOM      4  C   UNL     1      35.102 -19.461 -22.424  0.00  0.00    +0.006 C 
ATOM      5  C   UNL     1      35.185 -17.120 -23.014  0.00  0.00    +0.168 C 
ATOM      6  C   UNL     1      35.571 -18.440 -23.249  0.00  0.00    +0.040 C 
ENDROOT
BRANCH   1   8
ATOM      7  O   UNL     1      32.536 -20.421 -20.334  0.00  0.00    -0.291 OA
ATOM      8  C   UNL     1      33.757 -20.229 -20.504  0.00  0.00    +0.174 C 
ATOM      9  C   UNL     1      34.738 -21.145 -19.780  0.00  0.00    +0.077 C 
ENDBRANCH   1   8
BRANCH   2  10
ATOM     10  O   UNL     1      33.944 -15.538 -21.714  0.00  0.00    -0.468 OA
ATOM     11  C   UNL     1      34.503 -14.897 -20.568  0.00  0.00    +0.253 C 
ENDBRANCH   2  10
BRANCH   5  12
ATOM     12  O   UNL     1      35.650 -16.131 -23.828  0.00  0.00    -0.503 OA
ATOM     13  H   UNL     1      35.847 -16.318 -24.725  0.00  0.00    +0.292 HD
ENDBRANCH   5  12
TORSDOF 3
ENDMDL
MODEL 5
REMARK VINA RESULT:      -6.5      2.544      3.834
REMARK  Name = 2214
REMARK  3 active torsions:
REMARK  status: ('A' for Active; 'I' for Inactive)
REMARK    1  A    between atoms: C_1  and  C_8
REMARK    2  A    between atoms: C_2  and  O_10
REMARK    3  A    between atoms: C_5  and  O_12
REMARK                            x       y       z     vdW  Elec       q    Type
REMARK                         _______ _______ _______ _____ _____    ______ ____
ROOT
ATOM      1  C   UNL     1      33.811 -15.260 -22.651  0.00  0.00    +0.038 C 
ATOM      2  C   UNL     1      34.169 -16.330 -24.787  0.00  0.00    +0.172 C 
ATOM      3  C   UNL     1      34.289 -16.337 -23.398  0.00  0.00    +0.043 C 
ATOM      4  C   UNL     1      33.212 -14.177 -23.294  0.00  0.00    +0.006 C 
ATOM      5  C   UNL     1      33.571 -15.246 -25.430  0.00  0.00    +0.168 C 
ATOM      6  C   UNL     1      33.092 -14.169 -24.683  0.00  0.00    +0.040 C 
ENDROOT
BRANCH   1   8
ATOM      7  O   UNL     1      34.992 -15.620 -20.640  0.00  0.00    -0.291 OA
ATOM      8  C   UNL     1      33.935 -15.268 -21.202  0.00  0.00    +0.174 C 
ATOM      9  C   UNL     1      32.761 -14.842 -20.327  0.00  0.00    +0.077 C 
ENDBRANCH   1   8
BRANCH   2  10
ATOM     10  O   UNL     1      34.640 -17.387 -25.506  0.00  0.00    -0.468 OA
ATOM     11  C   UNL     1      34.469 -18.684 -24.938  0.00  0.00    +0.253 C 
ENDBRANCH   2  10
BRANCH   5  12
ATOM     12  O   UNL     1      33.448 -15.226 -26.787  0.00  0.00    -0.503 OA
ATOM     13  H   UNL     1      32.665 -15.545 -27.190  0.00  0.00    +0.292 HD
ENDBRANCH   5  12
TORSDOF 3
ENDMDL
MODEL 6
REMARK VINA RESULT:      -6.5      1.664      4.770
REMARK  Name = 2214
REMARK  3 active torsions:
REMARK  status: ('A' for Active; 'I' for Inactive)
REMARK    1  A    between atoms: C_1  and  C_8
REMARK    2  A    between atoms: C_2  and  O_10
REMARK    3  A    between atoms: C_5  and  O_12
REMARK                            x       y       z     vdW  Elec       q    Type
REMARK                         _______ _______ _______ _____ _____    ______ ____
ROOT
ATOM      1  C   UNL     1      34.325 -15.999 -23.890  0.00  0.00    +0.038 C 
ATOM      2  C   UNL     1      34.968 -16.836 -21.717  0.00  0.00    +0.172 C 
ATOM      3  C   UNL     1      34.775 -17.044 -23.083  0.00  0.00    +0.043 C 
ATOM      4  C   UNL     1      34.068 -14.747 -23.332  0.00  0.00    +0.006 C 
ATOM      5  C   UNL     1      34.712 -15.584 -21.159  0.00  0.00    +0.168 C 
ATOM      6  C   UNL     1      34.262 -14.539 -21.966  0.00  0.00    +0.040 C 
ENDROOT
BRANCH   1   8
ATOM      7  O   UNL     1      34.688 -17.149 -25.918  0.00  0.00    -0.291 OA
ATOM      8  C   UNL     1      34.123 -16.214 -25.314  0.00  0.00    +0.174 C 
ATOM      9  C   UNL     1      33.208 -15.290 -26.110  0.00  0.00    +0.077 C 
ENDBRANCH   1   8
BRANCH   2  10
ATOM     10  O   UNL     1      35.408 -17.864 -20.939  0.00  0.00    -0.468 OA
ATOM     11  C   UNL     1      35.252 -19.183 -21.459  0.00  0.00    +0.253 C 
ENDBRANCH   2  10
BRANCH   5  12
ATOM     12  O   UNL     1      34.896 -15.368 -19.826  0.00  0.00    -0.503 OA
ATOM     13  H   UNL     1      35.744 -15.492 -19.445  0.00  0.00    +0.292 HD
ENDBRANCH   5  12
TORSDOF 3
ENDMDL
MODEL 7
REMARK VINA RESULT:      -6.4      8.728     11.155
REMARK  Name = 2214
REMARK  3 active torsions:
REMARK  status: ('A' for Active; 'I' for Inactive)
REMARK    1  A    between atoms: C_1  and  C_8
REMARK    2  A    between atoms: C_2  and  O_10
REMARK    3  A    between atoms: C_5  and  O_12
REMARK                            x       y       z     vdW  Elec       q    Type
REMARK                         _______ _______ _______ _____ _____    ______ ____
ROOT
ATOM      1  C   UNL     1      29.327 -23.861 -15.830  0.00  0.00    +0.038 C 
ATOM      2  C   UNL     1      31.709 -23.713 -15.459  0.00  0.00    +0.172 C 
ATOM      3  C   UNL     1      30.565 -23.298 -16.141  0.00  0.00    +0.043 C 
ATOM      4  C   UNL     1      29.233 -24.837 -14.839  0.00  0.00    +0.006 C 
ATOM      5  C   UNL     1      31.616 -24.689 -14.467  0.00  0.00    +0.168 C 
ATOM      6  C   UNL     1      30.377 -25.251 -14.157  0.00  0.00    +0.040 C 
ENDROOT
BRANCH   1   8
ATOM      7  O   UNL     1      27.773 -23.976 -17.602  0.00  0.00    -0.291 OA
ATOM      8  C   UNL     1      28.134 -23.429 -16.540  0.00  0.00    +0.174 C 
ATOM      9  C   UNL     1      27.288 -22.282 -15.997  0.00  0.00    +0.077 C 
ENDBRANCH   1   8
BRANCH   2  10
ATOM     10  O   UNL     1      32.913 -23.156 -15.771  0.00  0.00    -0.468 OA
ATOM     11  C   UNL     1      33.354 -23.281 -17.122  0.00  0.00    +0.253 C 
ENDBRANCH   2  10
BRANCH   5  12
ATOM     12  O   UNL     1      32.725 -25.103 -13.795  0.00  0.00    -0.503 OA
ATOM     13  H   UNL     1      33.560 -24.724 -13.991  0.00  0.00    +0.292 HD
ENDBRANCH   5  12
TORSDOF 3
ENDMDL
MODEL 8
REMARK VINA RESULT:      -6.4     11.651     12.594
REMARK  Name = 2214
REMARK  3 active torsions:
REMARK  status: ('A' for Active; 'I' for Inactive)
REMARK    1  A    between atoms: C_1  and  C_8
REMARK    2  A    between atoms: C_2  and  O_10
REMARK    3  A    between atoms: C_5  and  O_12
REMARK                            x       y       z     vdW  Elec       q    Type
REMARK                         _______ _______ _______ _____ _____    ______ ____
ROOT
ATOM      1  C   UNL     1      37.144 -24.507 -12.906  0.00  0.00    +0.038 C 
ATOM      2  C   UNL     1      38.209 -26.108 -14.369  0.00  0.00    +0.172 C 
ATOM      3  C   UNL     1      38.270 -25.242 -13.277  0.00  0.00    +0.043 C 
ATOM      4  C   UNL     1      35.957 -24.639 -13.627  0.00  0.00    +0.006 C 
ATOM      5  C   UNL     1      37.022 -26.240 -15.089  0.00  0.00    +0.168 C 
ATOM      6  C   UNL     1      35.896 -25.505 -14.718  0.00  0.00    +0.040 C 
ENDROOT
BRANCH   1   8
ATOM      7  O   UNL     1      38.110 -22.750 -11.664  0.00  0.00    -0.291 OA
ATOM      8  C   UNL     1      37.207 -23.604 -11.769  0.00  0.00    +0.174 C 
ATOM      9  C   UNL     1      36.159 -23.685 -10.663  0.00  0.00    +0.077 C 
ENDBRANCH   1   8
BRANCH   2  10
ATOM     10  O   UNL     1      39.315 -26.820 -14.721  0.00  0.00    -0.468 OA
ATOM     11  C   UNL     1      40.567 -26.137 -14.678  0.00  0.00    +0.253 C 
ENDBRANCH   2  10
BRANCH   5  12
ATOM     12  O   UNL     1      36.949 -27.082 -16.158  0.00  0.00    -0.503 OA
ATOM     13  H   UNL     1      37.719 -27.524 -16.458  0.00  0.00    +0.292 HD
ENDBRANCH   5  12
TORSDOF 3
ENDMDL
MODEL 9
REMARK VINA RESULT:      -6.3      2.111      3.606
REMARK  Name = 2214
REMARK  3 active torsions:
REMARK  status: ('A' for Active; 'I' for Inactive)
REMARK    1  A    between atoms: C_1  and  C_8
REMARK    2  A    between atoms: C_2  and  O_10
REMARK    3  A    between atoms: C_5  and  O_12
REMARK                            x       y       z     vdW  Elec       q    Type
REMARK                         _______ _______ _______ _____ _____    ______ ____
ROOT
ATOM      1  C   UNL     1      34.304 -16.320 -22.008  0.00  0.00    +0.038 C 
ATOM      2  C   UNL     1      33.486 -14.585 -23.478  0.00  0.00    +0.172 C 
ATOM      3  C   UNL     1      34.319 -15.681 -23.248  0.00  0.00    +0.043 C 
ATOM      4  C   UNL     1      33.457 -15.863 -20.999  0.00  0.00    +0.006 C 
ATOM      5  C   UNL     1      32.639 -14.129 -22.468  0.00  0.00    +0.168 C 
ATOM      6  C   UNL     1      32.625 -14.768 -21.228  0.00  0.00    +0.040 C 
ENDROOT
BRANCH   1   8
ATOM      7  O   UNL     1      35.538 -17.771 -20.617  0.00  0.00    -0.291 OA
ATOM      8  C   UNL     1      35.171 -17.462 -21.768  0.00  0.00    +0.174 C 
ATOM      9  C   UNL     1      35.659 -18.315 -22.934  0.00  0.00    +0.077 C 
ENDBRANCH   1   8
BRANCH   2  10
ATOM     10  O   UNL     1      33.510 -13.970 -24.693  0.00  0.00    -0.468 OA
ATOM     11  C   UNL     1      33.007 -14.710 -25.804  0.00  0.00    +0.253 C 
ENDBRANCH   2  10
BRANCH   5  12
ATOM     12  O   UNL     1      31.822 -13.059 -22.679  0.00  0.00    -0.503 OA
ATOM     13  H   UNL     1      31.033 -12.968 -22.182  0.00  0.00    +0.292 HD
ENDBRANCH   5  12
TORSDOF 3
ENDMDL
