MODEL 1
REMARK VINA RESULT:      -9.7      0.000      0.000
REMARK  Name = 6458152
REMARK  2 active torsions:
REMARK  status: ('A' for Active; 'I' for Inactive)
REMARK    1  A    between atoms: N_3  and  C_15
REMARK    2  A    between atoms: C_15  and  C_20
REMARK                            x       y       z     vdW  Elec       q    Type
REMARK                         _______ _______ _______ _____ _____    ______ ____
ROOT
ATOM      1  S   UNL     1      33.153 -22.983 -17.303  0.00  0.00    -0.077 S 
ATOM      2  O   UNL     1      34.465 -24.119 -12.693  0.00  0.00    -0.274 OA
ATOM      3  N   UNL     1      36.177 -23.758 -14.243  0.00  0.00    -0.245 N 
ATOM      4  N   UNL     1      35.707 -23.194 -16.528  0.00  0.00    -0.245 NA
ATOM      5  C   UNL     1      32.461 -23.591 -14.898  0.00  0.00    -0.028 C 
ATOM      6  C   UNL     1      31.567 -23.869 -13.724  0.00  0.00    +0.023 C 
ATOM      7  C   UNL     1      30.112 -24.119 -14.150  0.00  0.00    +0.005 C 
ATOM      8  C   UNL     1      29.644 -23.100 -15.198  0.00  0.00    +0.006 C 
ATOM      9  C   UNL     1      30.490 -23.178 -16.476  0.00  0.00    +0.032 C 
ATOM     10  C   UNL     1      31.947 -23.261 -16.139  0.00  0.00    +0.001 C 
ATOM     11  C   UNL     1      33.892 -23.587 -14.917  0.00  0.00    +0.141 C 
ATOM     12  C   UNL     1      34.397 -23.277 -16.170  0.00  0.00    +0.097 C 
ATOM     13  C   UNL     1      34.832 -23.851 -13.833  0.00  0.00    +0.237 C 
ATOM     14  C   UNL     1      36.530 -23.437 -15.555  0.00  0.00    +0.223 C 
ENDROOT
BRANCH   3  15
ATOM     15  C   UNL     1      37.219 -24.000 -13.259  0.00  0.00    +0.199 C 
BRANCH  15  20
ATOM     16  N   UNL     1      39.470 -24.890 -13.702  0.00  0.00    -0.112 NA
ATOM     17  N   UNL     1      37.723 -26.230 -14.237  0.00  0.00    -0.089 NA
ATOM     18  N   UNL     1      39.827 -26.073 -14.224  0.00  0.00    -0.140 N 
ATOM     19  N   UNL     1      38.825 -26.898 -14.556  0.00  0.00    -0.022 NA
ATOM     20  C   UNL     1      38.167 -25.062 -13.744  0.00  0.00    +0.071 C 
ATOM     21  H   UNL     1      40.772 -26.319 -14.355  0.00  0.00    +0.197 HD
ENDBRANCH  15  20
ENDBRANCH   3  15
TORSDOF 2
ENDMDL
MODEL 2
REMARK VINA RESULT:      -9.6      2.873      4.446
REMARK  Name = 6458152
REMARK  2 active torsions:
REMARK  status: ('A' for Active; 'I' for Inactive)
REMARK    1  A    between atoms: N_3  and  C_15
REMARK    2  A    between atoms: C_15  and  C_20
REMARK                            x       y       z     vdW  Elec       q    Type
REMARK                         _______ _______ _______ _____ _____    ______ ____
ROOT
ATOM      1  S   UNL     1      33.273 -23.162 -17.174  0.00  0.00    -0.077 S 
ATOM      2  O   UNL     1      37.945 -22.945 -15.630  0.00  0.00    -0.274 OA
ATOM      3  N   UNL     1      36.415 -24.086 -14.280  0.00  0.00    -0.245 N 
ATOM      4  N   UNL     1      34.103 -24.284 -14.890  0.00  0.00    -0.245 NA
ATOM      5  C   UNL     1      35.685 -22.341 -17.549  0.00  0.00    -0.028 C 
ATOM      6  C   UNL     1      36.851 -21.676 -18.222  0.00  0.00    +0.023 C 
ATOM      7  C   UNL     1      36.407 -20.717 -19.337  0.00  0.00    +0.005 C 
ATOM      8  C   UNL     1      35.314 -21.337 -20.218  0.00  0.00    +0.006 C 
ATOM      9  C   UNL     1      34.056 -21.668 -19.404  0.00  0.00    +0.032 C 
ATOM     10  C   UNL     1      34.424 -22.339 -18.116  0.00  0.00    +0.001 C 
ATOM     11  C   UNL     1      35.692 -23.066 -16.315  0.00  0.00    +0.141 C 
ATOM     12  C   UNL     1      34.439 -23.560 -15.991  0.00  0.00    +0.097 C 
ATOM     13  C   UNL     1      36.803 -23.336 -15.408  0.00  0.00    +0.237 C 
ATOM     14  C   UNL     1      35.100 -24.511 -14.091  0.00  0.00    +0.223 C 
ENDROOT
BRANCH   3  15
ATOM     15  C   UNL     1      37.427 -24.424 -13.293  0.00  0.00    +0.199 C 
BRANCH  15  20
ATOM     16  N   UNL     1      37.235 -22.943 -11.337  0.00  0.00    -0.112 NA
ATOM     17  N   UNL     1      36.199 -24.952 -11.196  0.00  0.00    -0.089 NA
ATOM     18  N   UNL     1      36.596 -23.149 -10.177  0.00  0.00    -0.140 N 
ATOM     19  N   UNL     1      35.969 -24.326 -10.049  0.00  0.00    -0.022 NA
ATOM     20  C   UNL     1      36.945 -24.092 -11.907  0.00  0.00    +0.071 C 
ATOM     21  H   UNL     1      36.589 -22.473  -9.459  0.00  0.00    +0.197 HD
ENDBRANCH  15  20
ENDBRANCH   3  15
TORSDOF 2
ENDMDL
MODEL 3
REMARK VINA RESULT:      -9.5      2.433      3.820
REMARK  Name = 6458152
REMARK  2 active torsions:
REMARK  status: ('A' for Active; 'I' for Inactive)
REMARK    1  A    between atoms: N_3  and  C_15
REMARK    2  A    between atoms: C_15  and  C_20
REMARK                            x       y       z     vdW  Elec       q    Type
REMARK                         _______ _______ _______ _____ _____    ______ ____
ROOT
ATOM      1  S   UNL     1      33.253 -23.176 -17.186  0.00  0.00    -0.077 S 
ATOM      2  O   UNL     1      37.918 -22.697 -15.675  0.00  0.00    -0.274 OA
ATOM      3  N   UNL     1      36.439 -23.835 -14.267  0.00  0.00    -0.245 N 
ATOM      4  N   UNL     1      34.135 -24.156 -14.855  0.00  0.00    -0.245 NA
ATOM      5  C   UNL     1      35.629 -22.276 -17.609  0.00  0.00    -0.028 C 
ATOM      6  C   UNL     1      36.766 -21.597 -18.318  0.00  0.00    +0.023 C 
ATOM      7  C   UNL     1      36.279 -20.710 -19.475  0.00  0.00    +0.005 C 
ATOM      8  C   UNL     1      35.210 -21.414 -20.321  0.00  0.00    +0.006 C 
ATOM      9  C   UNL     1      33.969 -21.758 -19.486  0.00  0.00    +0.032 C 
ATOM     10  C   UNL     1      34.367 -22.352 -18.170  0.00  0.00    +0.001 C 
ATOM     11  C   UNL     1      35.669 -22.942 -16.343  0.00  0.00    +0.141 C 
ATOM     12  C   UNL     1      34.439 -23.471 -15.991  0.00  0.00    +0.097 C 
ATOM     13  C   UNL     1      36.793 -23.124 -15.430  0.00  0.00    +0.237 C 
ATOM     14  C   UNL     1      35.143 -24.304 -14.052  0.00  0.00    +0.223 C 
ENDROOT
BRANCH   3  15
ATOM     15  C   UNL     1      37.467 -24.085 -13.269  0.00  0.00    +0.199 C 
BRANCH  15  20
ATOM     16  N   UNL     1      39.753 -24.910 -13.654  0.00  0.00    -0.112 NA
ATOM     17  N   UNL     1      38.060 -26.237 -14.365  0.00  0.00    -0.089 NA
ATOM     18  N   UNL     1      40.157 -26.050 -14.233  0.00  0.00    -0.140 N 
ATOM     19  N   UNL     1      39.188 -26.866 -14.669  0.00  0.00    -0.022 NA
ATOM     20  C   UNL     1      38.457 -25.098 -13.774  0.00  0.00    +0.071 C 
ATOM     21  H   UNL     1      41.112 -26.273 -14.332  0.00  0.00    +0.197 HD
ENDBRANCH  15  20
ENDBRANCH   3  15
TORSDOF 2
ENDMDL
MODEL 4
REMARK VINA RESULT:      -9.4      9.060     10.631
REMARK  Name = 6458152
REMARK  2 active torsions:
REMARK  status: ('A' for Active; 'I' for Inactive)
REMARK    1  A    between atoms: N_3  and  C_15
REMARK    2  A    between atoms: C_15  and  C_20
REMARK                            x       y       z     vdW  Elec       q    Type
REMARK                         _______ _______ _______ _____ _____    ______ ____
ROOT
ATOM      1  S   UNL     1      34.055 -16.579 -25.414  0.00  0.00    -0.077 S 
ATOM      2  O   UNL     1      35.044 -16.876 -20.598  0.00  0.00    -0.274 OA
ATOM      3  N   UNL     1      35.402 -18.790 -21.893  0.00  0.00    -0.245 N 
ATOM      4  N   UNL     1      34.972 -18.810 -24.253  0.00  0.00    -0.245 NA
ATOM      5  C   UNL     1      34.104 -15.454 -23.097  0.00  0.00    -0.028 C 
ATOM      6  C   UNL     1      33.961 -14.382 -22.056  0.00  0.00    +0.023 C 
ATOM      7  C   UNL     1      33.118 -13.198 -22.555  0.00  0.00    +0.005 C 
ATOM      8  C   UNL     1      33.507 -12.783 -23.980  0.00  0.00    +0.006 C 
ATOM      9  C   UNL     1      33.285 -13.927 -24.980  0.00  0.00    +0.032 C 
ATOM     10  C   UNL     1      33.806 -15.217 -24.428  0.00  0.00    +0.001 C 
ATOM     11  C   UNL     1      34.573 -16.793 -22.907  0.00  0.00    +0.141 C 
ATOM     12  C   UNL     1      34.588 -17.515 -24.089  0.00  0.00    +0.097 C 
ATOM     13  C   UNL     1      35.016 -17.451 -21.682  0.00  0.00    +0.237 C 
ATOM     14  C   UNL     1      35.357 -19.383 -23.155  0.00  0.00    +0.223 C 
ENDROOT
BRANCH   3  15
ATOM     15  C   UNL     1      35.865 -19.564 -20.752  0.00  0.00    +0.199 C 
BRANCH  15  20
ATOM     16  N   UNL     1      35.046 -21.627 -19.691  0.00  0.00    -0.112 NA
ATOM     17  N   UNL     1      33.478 -20.134 -20.354  0.00  0.00    -0.089 NA
ATOM     18  N   UNL     1      33.786 -22.010 -19.439  0.00  0.00    -0.140 N 
ATOM     19  N   UNL     1      32.824 -21.156 -19.815  0.00  0.00    -0.022 NA
ATOM     20  C   UNL     1      34.773 -20.470 -20.251  0.00  0.00    +0.071 C 
ATOM     21  H   UNL     1      33.579 -22.869 -19.004  0.00  0.00    +0.197 HD
ENDBRANCH  15  20
ENDBRANCH   3  15
TORSDOF 2
ENDMDL
MODEL 5
REMARK VINA RESULT:      -9.2      1.518      2.115
REMARK  Name = 6458152
REMARK  2 active torsions:
REMARK  status: ('A' for Active; 'I' for Inactive)
REMARK    1  A    between atoms: N_3  and  C_15
REMARK    2  A    between atoms: C_15  and  C_20
REMARK                            x       y       z     vdW  Elec       q    Type
REMARK                         _______ _______ _______ _____ _____    ______ ____
ROOT
ATOM      1  S   UNL     1      32.983 -22.982 -17.274  0.00  0.00    -0.077 S 
ATOM      2  O   UNL     1      33.578 -24.830 -12.747  0.00  0.00    -0.274 OA
ATOM      3  N   UNL     1      35.478 -24.651 -14.097  0.00  0.00    -0.245 N 
ATOM      4  N   UNL     1      35.360 -23.770 -16.326  0.00  0.00    -0.245 NA
ATOM      5  C   UNL     1      31.946 -23.692 -15.026  0.00  0.00    -0.028 C 
ATOM      6  C   UNL     1      30.899 -23.911 -13.972  0.00  0.00    +0.023 C 
ATOM      7  C   UNL     1      29.475 -23.824 -14.542  0.00  0.00    +0.005 C 
ATOM      8  C   UNL     1      29.314 -22.630 -15.491  0.00  0.00    +0.006 C 
ATOM      9  C   UNL     1      30.259 -22.737 -16.696  0.00  0.00    +0.032 C 
ATOM     10  C   UNL     1      31.632 -23.139 -16.255  0.00  0.00    +0.001 C 
ATOM     11  C   UNL     1      33.347 -23.966 -14.929  0.00  0.00    +0.141 C 
ATOM     12  C   UNL     1      34.027 -23.631 -16.088  0.00  0.00    +0.097 C 
ATOM     13  C   UNL     1      34.105 -24.521 -13.812  0.00  0.00    +0.237 C 
ATOM     14  C   UNL     1      36.018 -24.270 -15.326  0.00  0.00    +0.223 C 
ENDROOT
BRANCH   3  15
ATOM     15  C   UNL     1      36.350 -25.194 -13.069  0.00  0.00    +0.199 C 
BRANCH  15  20
ATOM     16  N   UNL     1      36.477 -23.154 -11.699  0.00  0.00    -0.112 NA
ATOM     17  N   UNL     1      38.443 -24.018 -12.420  0.00  0.00    -0.089 NA
ATOM     18  N   UNL     1      37.555 -22.461 -11.306  0.00  0.00    -0.140 N 
ATOM     19  N   UNL     1      38.742 -22.936 -11.711  0.00  0.00    -0.022 NA
ATOM     20  C   UNL     1      37.103 -24.091 -12.377  0.00  0.00    +0.071 C 
ATOM     21  H   UNL     1      37.480 -21.650 -10.753  0.00  0.00    +0.197 HD
ENDBRANCH  15  20
ENDBRANCH   3  15
TORSDOF 2
ENDMDL
MODEL 6
REMARK VINA RESULT:      -9.1     12.136     14.275
REMARK  Name = 6458152
REMARK  2 active torsions:
REMARK  status: ('A' for Active; 'I' for Inactive)
REMARK    1  A    between atoms: N_3  and  C_15
REMARK    2  A    between atoms: C_15  and  C_20
REMARK                            x       y       z     vdW  Elec       q    Type
REMARK                         _______ _______ _______ _____ _____    ______ ____
ROOT
ATOM      1  S   UNL     1      34.370 -17.748 -25.419  0.00  0.00    -0.077 S 
ATOM      2  O   UNL     1      33.812 -13.931 -22.355  0.00  0.00    -0.274 OA
ATOM      3  N   UNL     1      33.305 -13.587 -24.611  0.00  0.00    -0.245 N 
ATOM      4  N   UNL     1      33.521 -15.343 -26.232  0.00  0.00    -0.245 NA
ATOM      5  C   UNL     1      34.550 -16.785 -23.036  0.00  0.00    -0.028 C 
ATOM      6  C   UNL     1      34.804 -16.742 -21.557  0.00  0.00    +0.023 C 
ATOM      7  C   UNL     1      35.621 -17.951 -21.074  0.00  0.00    +0.005 C 
ATOM      8  C   UNL     1      35.113 -19.262 -21.688  0.00  0.00    +0.006 C 
ATOM      9  C   UNL     1      35.223 -19.247 -23.218  0.00  0.00    +0.032 C 
ATOM     10  C   UNL     1      34.731 -17.944 -23.769  0.00  0.00    +0.001 C 
ATOM     11  C   UNL     1      34.076 -15.721 -23.868  0.00  0.00    +0.141 C 
ATOM     12  C   UNL     1      33.941 -16.110 -25.190  0.00  0.00    +0.097 C 
ATOM     13  C   UNL     1      33.733 -14.349 -23.507  0.00  0.00    +0.237 C 
ATOM     14  C   UNL     1      33.226 -14.125 -25.896  0.00  0.00    +0.223 C 
ENDROOT
BRANCH   3  15
ATOM     15  C   UNL     1      32.933 -12.198 -24.391  0.00  0.00    +0.199 C 
BRANCH  15  20
ATOM     16  N   UNL     1      34.568 -10.432 -23.882  0.00  0.00    -0.112 NA
ATOM     17  N   UNL     1      34.626 -11.298 -25.974  0.00  0.00    -0.089 NA
ATOM     18  N   UNL     1      35.509  -9.893 -24.671  0.00  0.00    -0.140 N 
ATOM     19  N   UNL     1      35.579 -10.376 -25.919  0.00  0.00    -0.022 NA
ATOM     20  C   UNL     1      34.071 -11.283 -24.752  0.00  0.00    +0.071 C 
ATOM     21  H   UNL     1      36.113  -9.183 -24.351  0.00  0.00    +0.197 HD
ENDBRANCH  15  20
ENDBRANCH   3  15
TORSDOF 2
ENDMDL
MODEL 7
REMARK VINA RESULT:      -9.1      3.880      6.142
REMARK  Name = 6458152
REMARK  2 active torsions:
REMARK  status: ('A' for Active; 'I' for Inactive)
REMARK    1  A    between atoms: N_3  and  C_15
REMARK    2  A    between atoms: C_15  and  C_20
REMARK                            x       y       z     vdW  Elec       q    Type
REMARK                         _______ _______ _______ _____ _____    ______ ____
ROOT
ATOM      1  S   UNL     1      35.224 -23.130 -14.862  0.00  0.00    -0.077 S 
ATOM      2  O   UNL     1      33.141 -22.442 -19.272  0.00  0.00    -0.274 OA
ATOM      3  N   UNL     1      35.425 -21.982 -19.074  0.00  0.00    -0.245 N 
ATOM      4  N   UNL     1      36.590 -22.267 -16.996  0.00  0.00    -0.245 NA
ATOM      5  C   UNL     1      33.115 -23.186 -16.340  0.00  0.00    -0.028 C 
ATOM      6  C   UNL     1      31.682 -23.406 -16.730  0.00  0.00    +0.023 C 
ATOM      7  C   UNL     1      30.764 -23.554 -15.506  0.00  0.00    +0.005 C 
ATOM      8  C   UNL     1      31.379 -24.474 -14.443  0.00  0.00    +0.006 C 
ATOM      9  C   UNL     1      32.712 -23.920 -13.922  0.00  0.00    +0.032 C 
ATOM     10  C   UNL     1      33.565 -23.445 -15.057  0.00  0.00    +0.001 C 
ATOM     11  C   UNL     1      34.185 -22.740 -17.179  0.00  0.00    +0.141 C 
ATOM     12  C   UNL     1      35.387 -22.659 -16.496  0.00  0.00    +0.097 C 
ATOM     13  C   UNL     1      34.163 -22.384 -18.594  0.00  0.00    +0.237 C 
ATOM     14  C   UNL     1      36.552 -21.948 -18.253  0.00  0.00    +0.223 C 
ENDROOT
BRANCH   3  15
ATOM     15  C   UNL     1      35.543 -21.597 -20.471  0.00  0.00    +0.199 C 
BRANCH  15  20
ATOM     16  N   UNL     1      36.281 -19.250 -20.455  0.00  0.00    -0.112 NA
ATOM     17  N   UNL     1      34.108 -19.629 -20.969  0.00  0.00    -0.089 NA
ATOM     18  N   UNL     1      35.577 -18.137 -20.710  0.00  0.00    -0.140 N 
ATOM     19  N   UNL     1      34.285 -18.314 -21.019  0.00  0.00    -0.022 NA
ATOM     20  C   UNL     1      35.311 -20.120 -20.634  0.00  0.00    +0.071 C 
ATOM     21  H   UNL     1      35.987 -17.242 -20.672  0.00  0.00    +0.197 HD
ENDBRANCH  15  20
ENDBRANCH   3  15
TORSDOF 2
ENDMDL
MODEL 8
REMARK VINA RESULT:      -9.1      3.842      7.023
REMARK  Name = 6458152
REMARK  2 active torsions:
REMARK  status: ('A' for Active; 'I' for Inactive)
REMARK    1  A    between atoms: N_3  and  C_15
REMARK    2  A    between atoms: C_15  and  C_20
REMARK                            x       y       z     vdW  Elec       q    Type
REMARK                         _______ _______ _______ _____ _____    ______ ____
ROOT
ATOM      1  S   UNL     1      35.341 -22.992 -16.093  0.00  0.00    -0.077 S 
ATOM      2  O   UNL     1      31.742 -24.632 -13.157  0.00  0.00    -0.274 OA
ATOM      3  N   UNL     1      31.152 -23.970 -15.321  0.00  0.00    -0.245 N 
ATOM      4  N   UNL     1      32.786 -23.150 -16.875  0.00  0.00    -0.245 NA
ATOM      5  C   UNL     1      34.606 -23.894 -13.795  0.00  0.00    -0.028 C 
ATOM      6  C   UNL     1      34.716 -24.374 -12.376  0.00  0.00    +0.023 C 
ATOM      7  C   UNL     1      36.059 -23.988 -11.737  0.00  0.00    +0.005 C 
ATOM      8  C   UNL     1      37.236 -24.247 -12.687  0.00  0.00    +0.006 C 
ATOM      9  C   UNL     1      37.113 -23.418 -13.973  0.00  0.00    +0.032 C 
ATOM     10  C   UNL     1      35.716 -23.480 -14.508  0.00  0.00    +0.001 C 
ATOM     11  C   UNL     1      33.424 -23.825 -14.599  0.00  0.00    +0.141 C 
ATOM     12  C   UNL     1      33.684 -23.343 -15.872  0.00  0.00    +0.097 C 
ATOM     13  C   UNL     1      32.052 -24.186 -14.258  0.00  0.00    +0.237 C 
ATOM     14  C   UNL     1      31.570 -23.470 -16.554  0.00  0.00    +0.223 C 
ENDROOT
BRANCH   3  15
ATOM     15  C   UNL     1      29.748 -24.288 -15.114  0.00  0.00    +0.199 C 
BRANCH  15  20
ATOM     16  N   UNL     1      28.423 -23.947 -17.159  0.00  0.00    -0.112 NA
ATOM     17  N   UNL     1      28.536 -22.203 -15.718  0.00  0.00    -0.089 NA
ATOM     18  N   UNL     1      27.743 -22.862 -17.558  0.00  0.00    -0.140 N 
ATOM     19  N   UNL     1      27.782 -21.805 -16.735  0.00  0.00    -0.022 NA
ATOM     20  C   UNL     1      28.881 -23.464 -16.025  0.00  0.00    +0.071 C 
ATOM     21  H   UNL     1      27.244 -22.844 -18.408  0.00  0.00    +0.197 HD
ENDBRANCH  15  20
ENDBRANCH   3  15
TORSDOF 2
ENDMDL
MODEL 9
REMARK VINA RESULT:      -8.9      9.556     11.222
REMARK  Name = 6458152
REMARK  2 active torsions:
REMARK  status: ('A' for Active; 'I' for Inactive)
REMARK    1  A    between atoms: N_3  and  C_15
REMARK    2  A    between atoms: C_15  and  C_20
REMARK                            x       y       z     vdW  Elec       q    Type
REMARK                         _______ _______ _______ _____ _____    ______ ____
ROOT
ATOM      1  S   UNL     1      34.187 -13.996 -22.235  0.00  0.00    -0.077 S 
ATOM      2  O   UNL     1      34.489 -18.557 -24.071  0.00  0.00    -0.274 OA
ATOM      3  N   UNL     1      35.074 -18.256 -21.827  0.00  0.00    -0.245 N 
ATOM      4  N   UNL     1      34.980 -16.099 -20.780  0.00  0.00    -0.245 NA
ATOM      5  C   UNL     1      33.933 -15.588 -24.244  0.00  0.00    -0.028 C 
ATOM      6  C   UNL     1      33.618 -16.046 -25.639  0.00  0.00    +0.023 C 
ATOM      7  C   UNL     1      33.503 -14.870 -26.622  0.00  0.00    +0.005 C 
ATOM      8  C   UNL     1      32.684 -13.715 -26.033  0.00  0.00    +0.006 C 
ATOM      9  C   UNL     1      33.335 -13.154 -24.761  0.00  0.00    +0.032 C 
ATOM     10  C   UNL     1      33.779 -14.267 -23.862  0.00  0.00    +0.001 C 
ATOM     11  C   UNL     1      34.377 -16.391 -23.145  0.00  0.00    +0.141 C 
ATOM     12  C   UNL     1      34.561 -15.645 -21.993  0.00  0.00    +0.097 C 
ATOM     13  C   UNL     1      34.641 -17.825 -23.097  0.00  0.00    +0.237 C 
ATOM     14  C   UNL     1      35.215 -17.375 -20.755  0.00  0.00    +0.223 C 
ENDROOT
BRANCH   3  15
ATOM     15  C   UNL     1      35.374 -19.667 -21.641  0.00  0.00    +0.199 C 
BRANCH  15  20
ATOM     16  N   UNL     1      33.086 -20.045 -20.818  0.00  0.00    -0.112 NA
ATOM     17  N   UNL     1      34.747 -21.159 -19.753  0.00  0.00    -0.089 NA
ATOM     18  N   UNL     1      32.664 -20.827 -19.814  0.00  0.00    -0.140 N 
ATOM     19  N   UNL     1      33.614 -21.506 -19.155  0.00  0.00    -0.022 NA
ATOM     20  C   UNL     1      34.372 -20.302 -20.717  0.00  0.00    +0.071 C 
ATOM     21  H   UNL     1      31.711 -20.898 -19.574  0.00  0.00    +0.197 HD
ENDBRANCH  15  20
ENDBRANCH   3  15
TORSDOF 2
ENDMDL
