MODEL 1
REMARK VINA RESULT:      -7.0      0.000      0.000
REMARK  Name = 448513
REMARK  3 active torsions:
REMARK  status: ('A' for Active; 'I' for Inactive)
REMARK    1  A    between atoms: C_1  and  C_13
REMARK    2  A    between atoms: C_2  and  C_9
REMARK    3  A    between atoms: C_13  and  O_14
REMARK                            x       y       z     vdW  Elec       q    Type
REMARK                         _______ _______ _______ _____ _____    ______ ____
ROOT
ATOM      1  C   UNL     1      34.938 -18.944 -21.162  0.00  0.00    +0.007 C 
ATOM      2  C   UNL     1      34.031 -21.222 -19.831  0.00  0.00    +0.031 C 
ATOM      3  C   UNL     1      35.853 -19.841 -20.613  0.00  0.00    -0.002 C 
ATOM      4  C   UNL     1      33.569 -19.186 -21.045  0.00  0.00    -0.002 C 
ATOM      5  C   UNL     1      35.400 -20.980 -19.948  0.00  0.00    +0.002 C 
ATOM      6  C   UNL     1      33.115 -20.324 -20.380  0.00  0.00    +0.002 C 
ENDROOT
BRANCH   2   9
ATOM      7  N   UNL     1      32.522 -22.345 -18.210  0.00  0.00    -0.343 N 
ATOM      8  N   UNL     1      34.120 -23.582 -19.385  0.00  0.00    -0.285 NA
ATOM      9  C   UNL     1      33.559 -22.410 -19.140  0.00  0.00    +0.117 C 
ATOM     10  H   UNL     1      32.218 -23.163 -17.753  0.00  0.00    +0.144 HD
ATOM     11  H   UNL     1      32.094 -21.482 -18.011  0.00  0.00    +0.144 HD
ATOM     12  H   UNL     1      33.801 -24.388 -18.918  0.00  0.00    +0.188 HD
ENDBRANCH   2   9
BRANCH   1  13
ATOM     13  C   UNL     1      35.423 -17.726 -21.872  0.00  0.00    +0.164 C 
BRANCH  13  14
ATOM     14  O   UNL     1      36.349 -18.155 -22.863  0.00  0.00    -0.377 OA
ATOM     15  H   UNL     1      35.957 -18.874 -23.382  0.00  0.00    +0.211 HD
ENDBRANCH  13  14
ENDBRANCH   1  13
TORSDOF 3
ENDMDL
MODEL 2
REMARK VINA RESULT:      -7.0      3.601      4.691
REMARK  Name = 448513
REMARK  3 active torsions:
REMARK  status: ('A' for Active; 'I' for Inactive)
REMARK    1  A    between atoms: C_1  and  C_13
REMARK    2  A    between atoms: C_2  and  C_9
REMARK    3  A    between atoms: C_13  and  O_14
REMARK                            x       y       z     vdW  Elec       q    Type
REMARK                         _______ _______ _______ _____ _____    ______ ____
ROOT
ATOM      1  C   UNL     1      34.127 -21.377 -19.596  0.00  0.00    +0.007 C 
ATOM      2  C   UNL     1      34.952 -19.183 -21.110  0.00  0.00    +0.031 C 
ATOM      3  C   UNL     1      35.488 -21.127 -19.779  0.00  0.00    -0.002 C 
ATOM      4  C   UNL     1      33.180 -20.529 -20.170  0.00  0.00    -0.002 C 
ATOM      5  C   UNL     1      35.900 -20.030 -20.535  0.00  0.00    +0.002 C 
ATOM      6  C   UNL     1      33.592 -19.433 -20.927  0.00  0.00    +0.002 C 
ENDROOT
BRANCH   2   9
ATOM      7  N   UNL     1      36.160 -18.198 -23.043  0.00  0.00    -0.343 N 
ATOM      8  N   UNL     1      35.038 -16.818 -21.526  0.00  0.00    -0.285 NA
ATOM      9  C   UNL     1      35.382 -18.039 -21.897  0.00  0.00    +0.117 C 
ATOM     10  H   UNL     1      36.439 -17.408 -23.561  0.00  0.00    +0.144 HD
ATOM     11  H   UNL     1      36.429 -19.099 -23.334  0.00  0.00    +0.144 HD
ATOM     12  H   UNL     1      35.328 -16.042 -22.058  0.00  0.00    +0.188 HD
ENDBRANCH   2   9
BRANCH   1  13
ATOM     13  C   UNL     1      33.687 -22.550 -18.787  0.00  0.00    +0.164 C 
BRANCH  13  14
ATOM     14  O   UNL     1      33.992 -23.719 -19.539  0.00  0.00    -0.377 OA
ATOM     15  H   UNL     1      33.169 -24.169 -19.783  0.00  0.00    +0.211 HD
ENDBRANCH  13  14
ENDBRANCH   1  13
TORSDOF 3
ENDMDL
MODEL 3
REMARK VINA RESULT:      -6.3      2.462      3.445
REMARK  Name = 448513
REMARK  3 active torsions:
REMARK  status: ('A' for Active; 'I' for Inactive)
REMARK    1  A    between atoms: C_1  and  C_13
REMARK    2  A    between atoms: C_2  and  C_9
REMARK    3  A    between atoms: C_13  and  O_14
REMARK                            x       y       z     vdW  Elec       q    Type
REMARK                         _______ _______ _______ _____ _____    ______ ____
ROOT
ATOM      1  C   UNL     1      34.689 -17.105 -23.578  0.00  0.00    +0.007 C 
ATOM      2  C   UNL     1      35.161 -18.987 -21.574  0.00  0.00    +0.031 C 
ATOM      3  C   UNL     1      34.659 -18.466 -23.879  0.00  0.00    -0.002 C 
ATOM      4  C   UNL     1      34.956 -16.684 -22.275  0.00  0.00    -0.002 C 
ATOM      5  C   UNL     1      34.895 -19.407 -22.877  0.00  0.00    +0.002 C 
ATOM      6  C   UNL     1      35.192 -17.625 -21.273  0.00  0.00    +0.002 C 
ENDROOT
BRANCH   2   9
ATOM      7  N   UNL     1      34.394 -20.813 -20.076  0.00  0.00    -0.343 N 
ATOM      8  N   UNL     1      36.607 -20.066 -19.987  0.00  0.00    -0.285 NA
ATOM      9  C   UNL     1      35.406 -19.968 -20.529  0.00  0.00    +0.117 C 
ATOM     10  H   UNL     1      34.583 -21.470 -19.367  0.00  0.00    +0.144 HD
ATOM     11  H   UNL     1      33.492 -20.753 -20.465  0.00  0.00    +0.144 HD
ATOM     12  H   UNL     1      36.775 -20.730 -19.279  0.00  0.00    +0.188 HD
ENDBRANCH   2   9
BRANCH   1  13
ATOM     13  C   UNL     1      34.437 -16.099 -24.650  0.00  0.00    +0.164 C 
BRANCH  13  14
ATOM     14  O   UNL     1      34.777 -16.710 -25.890  0.00  0.00    -0.377 OA
ATOM     15  H   UNL     1      35.382 -16.131 -26.379  0.00  0.00    +0.211 HD
ENDBRANCH  13  14
ENDBRANCH   1  13
TORSDOF 3
ENDMDL
MODEL 4
REMARK VINA RESULT:      -6.3      1.404      1.674
REMARK  Name = 448513
REMARK  3 active torsions:
REMARK  status: ('A' for Active; 'I' for Inactive)
REMARK    1  A    between atoms: C_1  and  C_13
REMARK    2  A    between atoms: C_2  and  C_9
REMARK    3  A    between atoms: C_13  and  O_14
REMARK                            x       y       z     vdW  Elec       q    Type
REMARK                         _______ _______ _______ _____ _____    ______ ____
ROOT
ATOM      1  C   UNL     1      34.986 -18.587 -21.590  0.00  0.00    +0.007 C 
ATOM      2  C   UNL     1      35.190 -20.797 -19.898  0.00  0.00    +0.031 C 
ATOM      3  C   UNL     1      36.238 -19.009 -21.141  0.00  0.00    -0.002 C 
ATOM      4  C   UNL     1      33.836 -19.271 -21.192  0.00  0.00    -0.002 C 
ATOM      5  C   UNL     1      36.340 -20.114 -20.296  0.00  0.00    +0.002 C 
ATOM      6  C   UNL     1      33.938 -20.375 -20.346  0.00  0.00    +0.002 C 
ENDROOT
BRANCH   2   9
ATOM      7  N   UNL     1      36.219 -21.982 -17.974  0.00  0.00    -0.343 N 
ATOM      8  N   UNL     1      34.511 -22.996 -19.206  0.00  0.00    -0.285 NA
ATOM      9  C   UNL     1      35.297 -21.949 -19.019  0.00  0.00    +0.117 C 
ATOM     10  H   UNL     1      36.273 -22.773 -17.390  0.00  0.00    +0.144 HD
ATOM     11  H   UNL     1      36.815 -21.214 -17.820  0.00  0.00    +0.144 HD
ATOM     12  H   UNL     1      34.582 -23.777 -18.611  0.00  0.00    +0.188 HD
ENDBRANCH   2   9
BRANCH   1  13
ATOM     13  C   UNL     1      34.878 -17.406 -22.493  0.00  0.00    +0.164 C 
BRANCH  13  14
ATOM     14  O   UNL     1      34.987 -16.243 -21.681  0.00  0.00    -0.377 OA
ATOM     15  H   UNL     1      34.794 -15.457 -22.215  0.00  0.00    +0.211 HD
ENDBRANCH  13  14
ENDBRANCH   1  13
TORSDOF 3
ENDMDL
MODEL 5
REMARK VINA RESULT:      -6.3      2.421      3.436
REMARK  Name = 448513
REMARK  3 active torsions:
REMARK  status: ('A' for Active; 'I' for Inactive)
REMARK    1  A    between atoms: C_1  and  C_13
REMARK    2  A    between atoms: C_2  and  C_9
REMARK    3  A    between atoms: C_13  and  O_14
REMARK                            x       y       z     vdW  Elec       q    Type
REMARK                         _______ _______ _______ _____ _____    ______ ____
ROOT
ATOM      1  C   UNL     1      34.730 -17.100 -23.559  0.00  0.00    +0.007 C 
ATOM      2  C   UNL     1      34.999 -19.022 -21.554  0.00  0.00    +0.031 C 
ATOM      3  C   UNL     1      34.840 -16.706 -22.225  0.00  0.00    -0.002 C 
ATOM      4  C   UNL     1      34.754 -18.455 -23.890  0.00  0.00    -0.002 C 
ATOM      5  C   UNL     1      34.975 -17.667 -21.223  0.00  0.00    +0.002 C 
ATOM      6  C   UNL     1      34.888 -19.416 -22.888  0.00  0.00    +0.002 C 
ENDROOT
BRANCH   2   9
ATOM      7  N   UNL     1      36.372 -20.268 -19.903  0.00  0.00    -0.343 N 
ATOM      8  N   UNL     1      34.090 -20.725 -20.123  0.00  0.00    -0.285 NA
ATOM      9  C   UNL     1      35.142 -20.023 -20.510  0.00  0.00    +0.117 C 
ATOM     10  H   UNL     1      36.445 -20.952 -19.197  0.00  0.00    +0.144 HD
ATOM     11  H   UNL     1      37.168 -19.758 -20.179  0.00  0.00    +0.144 HD
ATOM     12  H   UNL     1      34.185 -21.403 -19.416  0.00  0.00    +0.188 HD
ENDBRANCH   2   9
BRANCH   1  13
ATOM     13  C   UNL     1      34.584 -16.072 -24.629  0.00  0.00    +0.164 C 
BRANCH  13  14
ATOM     14  O   UNL     1      34.773 -16.732 -25.876  0.00  0.00    -0.377 OA
ATOM     15  H   UNL     1      34.151 -17.472 -25.947  0.00  0.00    +0.211 HD
ENDBRANCH  13  14
ENDBRANCH   1  13
TORSDOF 3
ENDMDL
MODEL 6
REMARK VINA RESULT:      -6.2      4.509      5.699
REMARK  Name = 448513
REMARK  3 active torsions:
REMARK  status: ('A' for Active; 'I' for Inactive)
REMARK    1  A    between atoms: C_1  and  C_13
REMARK    2  A    between atoms: C_2  and  C_9
REMARK    3  A    between atoms: C_13  and  O_14
REMARK                            x       y       z     vdW  Elec       q    Type
REMARK                         _______ _______ _______ _____ _____    ______ ____
ROOT
ATOM      1  C   UNL     1      35.198 -19.068 -21.609  0.00  0.00    +0.007 C 
ATOM      2  C   UNL     1      34.615 -17.138 -23.538  0.00  0.00    +0.031 C 
ATOM      3  C   UNL     1      34.985 -19.448 -22.934  0.00  0.00    -0.002 C 
ATOM      4  C   UNL     1      35.119 -17.722 -21.249  0.00  0.00    -0.002 C 
ATOM      5  C   UNL     1      34.694 -18.484 -23.898  0.00  0.00    +0.002 C 
ATOM      6  C   UNL     1      34.827 -16.758 -22.213  0.00  0.00    +0.002 C 
ENDROOT
BRANCH   2   9
ATOM      7  N   UNL     1      33.878 -14.857 -24.187  0.00  0.00    -0.343 N 
ATOM      8  N   UNL     1      34.446 -16.424 -25.826  0.00  0.00    -0.285 NA
ATOM      9  C   UNL     1      34.313 -16.133 -24.544  0.00  0.00    +0.117 C 
ATOM     10  H   UNL     1      33.680 -14.192 -24.886  0.00  0.00    +0.144 HD
ATOM     11  H   UNL     1      33.770 -14.622 -23.237  0.00  0.00    +0.144 HD
ATOM     12  H   UNL     1      34.242 -15.744 -26.509  0.00  0.00    +0.188 HD
ENDBRANCH   2   9
BRANCH   1  13
ATOM     13  C   UNL     1      35.508 -20.099 -20.578  0.00  0.00    +0.164 C 
BRANCH  13  14
ATOM     14  O   UNL     1      36.723 -19.714 -19.947  0.00  0.00    -0.377 OA
ATOM     15  H   UNL     1      36.770 -18.747 -19.900  0.00  0.00    +0.211 HD
ENDBRANCH  13  14
ENDBRANCH   1  13
TORSDOF 3
ENDMDL
MODEL 7
REMARK VINA RESULT:      -6.2      8.985      9.555
REMARK  Name = 448513
REMARK  3 active torsions:
REMARK  status: ('A' for Active; 'I' for Inactive)
REMARK    1  A    between atoms: C_1  and  C_13
REMARK    2  A    between atoms: C_2  and  C_9
REMARK    3  A    between atoms: C_13  and  O_14
REMARK                            x       y       z     vdW  Elec       q    Type
REMARK                         _______ _______ _______ _____ _____    ______ ____
ROOT
ATOM      1  C   UNL     1      39.182 -25.658 -14.016  0.00  0.00    +0.007 C 
ATOM      2  C   UNL     1      36.803 -24.946 -12.744  0.00  0.00    +0.031 C 
ATOM      3  C   UNL     1      37.966 -26.158 -14.481  0.00  0.00    -0.002 C 
ATOM      4  C   UNL     1      39.208 -24.802 -12.915  0.00  0.00    -0.002 C 
ATOM      5  C   UNL     1      36.777 -25.802 -13.845  0.00  0.00    +0.002 C 
ATOM      6  C   UNL     1      38.019 -24.447 -12.278  0.00  0.00    +0.002 C 
ENDROOT
BRANCH   2   9
ATOM      7  N   UNL     1      34.622 -23.759 -12.709  0.00  0.00    -0.343 N 
ATOM      8  N   UNL     1      35.314 -25.008 -10.859  0.00  0.00    -0.285 NA
ATOM      9  C   UNL     1      35.563 -24.574 -12.082  0.00  0.00    +0.117 C 
ATOM     10  H   UNL     1      33.789 -23.520 -12.242  0.00  0.00    +0.144 HD
ATOM     11  H   UNL     1      34.791 -23.423 -13.619  0.00  0.00    +0.144 HD
ATOM     12  H   UNL     1      34.475 -24.757 -10.409  0.00  0.00    +0.188 HD
ENDBRANCH   2   9
BRANCH   1  13
ATOM     13  C   UNL     1      40.453 -26.040 -14.696  0.00  0.00    +0.164 C 
BRANCH  13  14
ATOM     14  O   UNL     1      40.253 -25.864 -16.094  0.00  0.00    -0.377 OA
ATOM     15  H   UNL     1      40.611 -26.630 -16.569  0.00  0.00    +0.211 HD
ENDBRANCH  13  14
ENDBRANCH   1  13
TORSDOF 3
ENDMDL
MODEL 8
REMARK VINA RESULT:      -6.2      5.402      6.651
REMARK  Name = 448513
REMARK  3 active torsions:
REMARK  status: ('A' for Active; 'I' for Inactive)
REMARK    1  A    between atoms: C_1  and  C_13
REMARK    2  A    between atoms: C_2  and  C_9
REMARK    3  A    between atoms: C_13  and  O_14
REMARK                            x       y       z     vdW  Elec       q    Type
REMARK                         _______ _______ _______ _____ _____    ______ ____
ROOT
ATOM      1  C   UNL     1      35.451 -17.718 -22.680  0.00  0.00    +0.007 C 
ATOM      2  C   UNL     1      34.124 -16.033 -24.464  0.00  0.00    +0.031 C 
ATOM      3  C   UNL     1      35.039 -16.451 -22.267  0.00  0.00    -0.002 C 
ATOM      4  C   UNL     1      35.199 -18.142 -23.985  0.00  0.00    -0.002 C 
ATOM      5  C   UNL     1      34.376 -15.609 -23.159  0.00  0.00    +0.002 C 
ATOM      6  C   UNL     1      34.536 -17.300 -24.877  0.00  0.00    +0.002 C 
ENDROOT
BRANCH   2   9
ATOM      7  N   UNL     1      32.928 -13.921 -24.987  0.00  0.00    -0.343 N 
ATOM      8  N   UNL     1      33.266 -15.527 -26.651  0.00  0.00    -0.285 NA
ATOM      9  C   UNL     1      33.432 -15.155 -25.393  0.00  0.00    +0.117 C 
ATOM     10  H   UNL     1      32.462 -13.342 -25.634  0.00  0.00    +0.144 HD
ATOM     11  H   UNL     1      33.038 -13.627 -24.053  0.00  0.00    +0.144 HD
ATOM     12  H   UNL     1      32.797 -14.933 -27.282  0.00  0.00    +0.188 HD
ENDBRANCH   2   9
BRANCH   1  13
ATOM     13  C   UNL     1      36.160 -18.618 -21.726  0.00  0.00    +0.164 C 
BRANCH  13  14
ATOM     14  O   UNL     1      35.318 -18.779 -20.590  0.00  0.00    -0.377 OA
ATOM     15  H   UNL     1      35.834 -18.632 -19.783  0.00  0.00    +0.211 HD
ENDBRANCH  13  14
ENDBRANCH   1  13
TORSDOF 3
ENDMDL
MODEL 9
REMARK VINA RESULT:      -6.1      4.562      5.950
REMARK  Name = 448513
REMARK  3 active torsions:
REMARK  status: ('A' for Active; 'I' for Inactive)
REMARK    1  A    between atoms: C_1  and  C_13
REMARK    2  A    between atoms: C_2  and  C_9
REMARK    3  A    between atoms: C_13  and  O_14
REMARK                            x       y       z     vdW  Elec       q    Type
REMARK                         _______ _______ _______ _____ _____    ______ ____
ROOT
ATOM      1  C   UNL     1      33.595 -15.273 -25.072  0.00  0.00    +0.007 C 
ATOM      2  C   UNL     1      34.949 -16.785 -23.159  0.00  0.00    +0.031 C 
ATOM      3  C   UNL     1      33.798 -14.757 -23.793  0.00  0.00    -0.002 C 
ATOM      4  C   UNL     1      34.068 -16.545 -25.395  0.00  0.00    -0.002 C 
ATOM      5  C   UNL     1      34.476 -15.513 -22.836  0.00  0.00    +0.002 C 
ATOM      6  C   UNL     1      34.745 -17.301 -24.438  0.00  0.00    +0.002 C 
ENDROOT
BRANCH   2   9
ATOM      7  N   UNL     1      35.284 -17.547 -20.819  0.00  0.00    -0.343 N 
ATOM      8  N   UNL     1      36.679 -18.328 -22.524  0.00  0.00    -0.285 NA
ATOM      9  C   UNL     1      35.656 -17.572 -22.162  0.00  0.00    +0.117 C 
ATOM     10  H   UNL     1      35.777 -18.089 -20.161  0.00  0.00    +0.144 HD
ATOM     11  H   UNL     1      34.527 -16.988 -20.529  0.00  0.00    +0.144 HD
ATOM     12  H   UNL     1      37.159 -18.862 -21.850  0.00  0.00    +0.188 HD
ENDBRANCH   2   9
BRANCH   1  13
ATOM     13  C   UNL     1      32.870 -14.465 -26.094  0.00  0.00    +0.164 C 
BRANCH  13  14
ATOM     14  O   UNL     1      33.610 -14.554 -27.306  0.00  0.00    -0.377 OA
ATOM     15  H   UNL     1      34.226 -15.300 -27.254  0.00  0.00    +0.211 HD
ENDBRANCH  13  14
ENDBRANCH   1  13
TORSDOF 3
ENDMDL
