MODEL 1
REMARK VINA RESULT:     -10.8      0.000      0.000
REMARK  Name = 24856362
REMARK  8 active torsions:
REMARK  status: ('A' for Active; 'I' for Inactive)
REMARK    1  A    between atoms: S_1  and  N_5
REMARK    2  A    between atoms: S_1  and  C_21
REMARK    3  A    between atoms: N_4  and  C_12
REMARK    4  A    between atoms: C_12  and  C_13
REMARK    5  A    between atoms: C_13  and  C_18
REMARK    6  A    between atoms: C_24  and  C_27
REMARK    7  A    between atoms: C_27  and  C_32
REMARK    8  A    between atoms: C_27  and  O_33
REMARK                            x       y       z     vdW  Elec       q    Type
REMARK                         _______ _______ _______ _____ _____    ______ ____
ROOT
ATOM      1  S   UNL     1      33.421 -22.924 -18.471  0.00  0.00    +0.063 S 
ATOM      2  O   UNL     1      32.071 -22.593 -18.078  0.00  0.00    -0.153 OA
ATOM      3  O   UNL     1      33.728 -24.175 -19.127  0.00  0.00    -0.153 OA
ENDROOT
BRANCH   1   5
ATOM      4  N   UNL     1      36.479 -23.169 -15.092  0.00  0.00    +0.389 N 
ATOM      5  N   UNL     1      34.454 -22.748 -17.108  0.00  0.00    -0.161 NA
ATOM      6  C   UNL     1      35.054 -23.134 -14.734  0.00  0.00    -0.059 C 
ATOM      7  C   UNL     1      36.733 -22.305 -16.250  0.00  0.00    -0.058 C 
ATOM      8  C   UNL     1      34.170 -23.607 -15.904  0.00  0.00    +0.059 C 
ATOM      9  C   UNL     1      35.911 -22.765 -17.449  0.00  0.00    +0.073 C 
ATOM     10  C   UNL     1      32.702 -23.519 -15.486  0.00  0.00    +0.017 C 
ATOM     11  H   UNL     1      36.728 -24.126 -15.340  0.00  0.00    -0.080 HD
BRANCH   4  12
ATOM     12  C   UNL     1      37.304 -22.760 -13.955  0.00  0.00    -0.068 C 
BRANCH  12  13
ATOM     13  C   UNL     1      37.848 -23.945 -13.225  0.00  0.00    +0.050 C 
ATOM     14  C   UNL     1      37.048 -24.436 -12.055  0.00  0.00    +0.007 C 
ATOM     15  C   UNL     1      38.339 -23.704 -11.828  0.00  0.00    +0.007 C 
BRANCH  13  18
ATOM     16  O   UNL     1      39.401 -24.606 -14.861  0.00  0.00    -0.275 OA
ATOM     17  N   UNL     1      38.214 -26.256 -13.770  0.00  0.00    -0.329 N 
ATOM     18  C   UNL     1      38.566 -24.954 -14.034  0.00  0.00    +0.216 C 
ATOM     19  H   UNL     1      38.643 -26.993 -14.263  0.00  0.00    +0.145 HD
ATOM     20  H   UNL     1      37.532 -26.452 -13.087  0.00  0.00    +0.145 HD
ENDBRANCH  13  18
ENDBRANCH  12  13
ENDBRANCH   4  12
ENDBRANCH   1   5
BRANCH   1  21
ATOM     21  C   UNL     1      34.030 -21.612 -19.483  0.00  0.00    +0.122 C 
ATOM     22  C   UNL     1      35.404 -21.446 -19.654  0.00  0.00    +0.020 C 
ATOM     23  C   UNL     1      33.138 -20.745 -20.111  0.00  0.00    +0.020 C 
ATOM     24  C   UNL     1      34.994 -19.541 -21.084  0.00  0.00    +0.010 C 
ATOM     25  C   UNL     1      35.887 -20.410 -20.455  0.00  0.00    -0.000 C 
ATOM     26  C   UNL     1      33.619 -19.709 -20.912  0.00  0.00    -0.000 C 
BRANCH  24  27
ATOM     27  C   UNL     1      35.510 -18.434 -21.939  0.00  0.00    +0.194 C 
ATOM     28  C   UNL     1      35.221 -18.630 -23.448  0.00  0.00    +0.043 C 
BRANCH  27  32
ATOM     29  F   UNL     1      33.613 -17.020 -21.504  0.00  0.00    -0.167 F 
ATOM     30  F   UNL     1      35.407 -16.070 -22.289  0.00  0.00    -0.167 F 
ATOM     31  F   UNL     1      35.362 -16.779 -20.226  0.00  0.00    -0.167 F 
ATOM     32  C   UNL     1      34.965 -17.064 -21.488  0.00  0.00    +0.423 C 
ENDBRANCH  27  32
BRANCH  27  33
ATOM     33  O   UNL     1      36.951 -18.328 -21.847  0.00  0.00    -0.375 OA
ATOM     34  H   UNL     1      37.347 -19.207 -21.955  0.00  0.00    +0.211 HD
ENDBRANCH  27  33
ENDBRANCH  24  27
ENDBRANCH   1  21
TORSDOF 8
ENDMDL
MODEL 2
REMARK VINA RESULT:     -10.1      1.206      1.804
REMARK  Name = 24856362
REMARK  8 active torsions:
REMARK  status: ('A' for Active; 'I' for Inactive)
REMARK    1  A    between atoms: S_1  and  N_5
REMARK    2  A    between atoms: S_1  and  C_21
REMARK    3  A    between atoms: N_4  and  C_12
REMARK    4  A    between atoms: C_12  and  C_13
REMARK    5  A    between atoms: C_13  and  C_18
REMARK    6  A    between atoms: C_24  and  C_27
REMARK    7  A    between atoms: C_27  and  C_32
REMARK    8  A    between atoms: C_27  and  O_33
REMARK                            x       y       z     vdW  Elec       q    Type
REMARK                         _______ _______ _______ _____ _____    ______ ____
ROOT
ATOM      1  S   UNL     1      33.418 -22.919 -18.410  0.00  0.00    +0.063 S 
ATOM      2  O   UNL     1      32.074 -22.571 -18.008  0.00  0.00    -0.153 OA
ATOM      3  O   UNL     1      33.706 -24.179 -19.056  0.00  0.00    -0.153 OA
ENDROOT
BRANCH   1   5
ATOM      4  N   UNL     1      36.505 -23.162 -15.057  0.00  0.00    +0.389 N 
ATOM      5  N   UNL     1      34.464 -22.741 -17.058  0.00  0.00    -0.161 NA
ATOM      6  C   UNL     1      35.083 -23.112 -14.687  0.00  0.00    -0.059 C 
ATOM      7  C   UNL     1      36.754 -22.310 -16.225  0.00  0.00    -0.058 C 
ATOM      8  C   UNL     1      34.184 -23.587 -15.844  0.00  0.00    +0.059 C 
ATOM      9  C   UNL     1      35.917 -22.773 -17.412  0.00  0.00    +0.073 C 
ATOM     10  C   UNL     1      32.721 -23.483 -15.414  0.00  0.00    +0.017 C 
ATOM     11  H   UNL     1      36.743 -24.124 -15.299  0.00  0.00    -0.080 HD
BRANCH   4  12
ATOM     12  C   UNL     1      37.343 -22.751 -13.931  0.00  0.00    -0.068 C 
BRANCH  12  13
ATOM     13  C   UNL     1      37.471 -23.845 -12.921  0.00  0.00    +0.050 C 
ATOM     14  C   UNL     1      38.746 -24.635 -12.947  0.00  0.00    +0.007 C 
ATOM     15  C   UNL     1      37.472 -25.249 -13.451  0.00  0.00    +0.007 C 
BRANCH  13  18
ATOM     16  O   UNL     1      37.342 -22.842 -10.800  0.00  0.00    -0.275 OA
ATOM     17  N   UNL     1      35.678 -24.325 -11.396  0.00  0.00    -0.329 N 
ATOM     18  C   UNL     1      36.836 -23.615 -11.606  0.00  0.00    +0.216 C 
ATOM     19  H   UNL     1      35.190 -24.233 -10.546  0.00  0.00    +0.145 HD
ATOM     20  H   UNL     1      35.337 -24.928 -12.097  0.00  0.00    +0.145 HD
ENDBRANCH  13  18
ENDBRANCH  12  13
ENDBRANCH   4  12
ENDBRANCH   1   5
BRANCH   1  21
ATOM     21  C   UNL     1      34.030 -21.624 -19.440  0.00  0.00    +0.122 C 
ATOM     22  C   UNL     1      33.144 -20.711 -20.012  0.00  0.00    +0.020 C 
ATOM     23  C   UNL     1      35.399 -21.511 -19.679  0.00  0.00    +0.020 C 
ATOM     24  C   UNL     1      34.998 -19.573 -21.065  0.00  0.00    +0.010 C 
ATOM     25  C   UNL     1      33.628 -19.686 -20.825  0.00  0.00    -0.000 C 
ATOM     26  C   UNL     1      35.884 -20.486 -20.491  0.00  0.00    -0.000 C 
BRANCH  24  27
ATOM     27  C   UNL     1      35.514 -18.478 -21.934  0.00  0.00    +0.194 C 
ATOM     28  C   UNL     1      35.221 -18.691 -23.440  0.00  0.00    +0.043 C 
BRANCH  27  32
ATOM     29  F   UNL     1      35.344 -16.782 -20.237  0.00  0.00    -0.167 F 
ATOM     30  F   UNL     1      33.624 -17.066 -21.541  0.00  0.00    -0.167 F 
ATOM     31  F   UNL     1      35.434 -16.124 -22.312  0.00  0.00    -0.167 F 
ATOM     32  C   UNL     1      34.974 -17.101 -21.498  0.00  0.00    +0.423 C 
ENDBRANCH  27  32
BRANCH  27  33
ATOM     33  O   UNL     1      36.956 -18.374 -21.847  0.00  0.00    -0.375 OA
ATOM     34  H   UNL     1      37.318 -19.202 -21.495  0.00  0.00    +0.211 HD
ENDBRANCH  27  33
ENDBRANCH  24  27
ENDBRANCH   1  21
TORSDOF 8
ENDMDL
MODEL 3
REMARK VINA RESULT:      -9.0      1.770      2.130
REMARK  Name = 24856362
REMARK  8 active torsions:
REMARK  status: ('A' for Active; 'I' for Inactive)
REMARK    1  A    between atoms: S_1  and  N_5
REMARK    2  A    between atoms: S_1  and  C_21
REMARK    3  A    between atoms: N_4  and  C_12
REMARK    4  A    between atoms: C_12  and  C_13
REMARK    5  A    between atoms: C_13  and  C_18
REMARK    6  A    between atoms: C_24  and  C_27
REMARK    7  A    between atoms: C_27  and  C_32
REMARK    8  A    between atoms: C_27  and  O_33
REMARK                            x       y       z     vdW  Elec       q    Type
REMARK                         _______ _______ _______ _____ _____    ______ ____
ROOT
ATOM      1  S   UNL     1      34.785 -22.369 -19.876  0.00  0.00    +0.063 S 
ATOM      2  O   UNL     1      33.500 -23.031 -19.909  0.00  0.00    -0.153 OA
ATOM      3  O   UNL     1      35.904 -22.862 -20.645  0.00  0.00    -0.153 OA
ENDROOT
BRANCH   1   5
ATOM      4  N   UNL     1      36.520 -22.588 -15.660  0.00  0.00    +0.389 N 
ATOM      5  N   UNL     1      35.276 -22.196 -18.238  0.00  0.00    -0.161 NA
ATOM      6  C   UNL     1      35.059 -22.658 -15.812  0.00  0.00    -0.059 C 
ATOM      7  C   UNL     1      37.088 -21.656 -16.640  0.00  0.00    -0.058 C 
ATOM      8  C   UNL     1      34.663 -23.127 -17.225  0.00  0.00    +0.059 C 
ATOM      9  C   UNL     1      36.759 -22.107 -18.059  0.00  0.00    +0.073 C 
ATOM     10  C   UNL     1      33.139 -23.149 -17.333  0.00  0.00    +0.017 C 
ATOM     11  H   UNL     1      36.908 -23.516 -15.830  0.00  0.00    -0.080 HD
BRANCH   4  12
ATOM     12  C   UNL     1      36.876 -22.185 -14.300  0.00  0.00    -0.068 C 
BRANCH  12  13
ATOM     13  C   UNL     1      37.026 -23.371 -13.404  0.00  0.00    +0.050 C 
ATOM     14  C   UNL     1      36.095 -23.445 -12.230  0.00  0.00    +0.007 C 
ATOM     15  C   UNL     1      37.541 -23.105 -12.019  0.00  0.00    +0.007 C 
BRANCH  13  18
ATOM     16  O   UNL     1      36.580 -25.499 -14.295  0.00  0.00    -0.275 OA
ATOM     17  N   UNL     1      38.765 -24.760 -14.308  0.00  0.00    -0.329 N 
ATOM     18  C   UNL     1      37.422 -24.645 -14.043  0.00  0.00    +0.216 C 
ATOM     19  H   UNL     1      39.116 -25.576 -14.732  0.00  0.00    +0.145 HD
ATOM     20  H   UNL     1      39.378 -24.024 -14.072  0.00  0.00    +0.145 HD
ENDBRANCH  13  18
ENDBRANCH  12  13
ENDBRANCH   4  12
ENDBRANCH   1   5
BRANCH   1  21
ATOM     21  C   UNL     1      34.535 -20.674 -20.297  0.00  0.00    +0.122 C 
ATOM     22  C   UNL     1      35.632 -19.852 -20.556  0.00  0.00    +0.020 C 
ATOM     23  C   UNL     1      33.242 -20.158 -20.373  0.00  0.00    +0.020 C 
ATOM     24  C   UNL     1      34.141 -17.995 -20.966  0.00  0.00    +0.010 C 
ATOM     25  C   UNL     1      35.435 -18.512 -20.890  0.00  0.00    -0.000 C 
ATOM     26  C   UNL     1      33.044 -18.818 -20.708  0.00  0.00    -0.000 C 
BRANCH  24  27
ATOM     27  C   UNL     1      33.931 -16.562 -21.323  0.00  0.00    +0.194 C 
ATOM     28  C   UNL     1      34.767 -15.580 -20.463  0.00  0.00    +0.043 C 
BRANCH  27  32
ATOM     29  F   UNL     1      34.159 -17.432 -23.554  0.00  0.00    -0.167 F 
ATOM     30  F   UNL     1      35.434 -15.757 -23.000  0.00  0.00    -0.167 F 
ATOM     31  F   UNL     1      33.301 -15.441 -23.332  0.00  0.00    -0.167 F 
ATOM     32  C   UNL     1      34.211 -16.299 -22.816  0.00  0.00    +0.423 C 
ENDBRANCH  27  32
BRANCH  27  33
ATOM     33  O   UNL     1      32.556 -16.165 -21.109  0.00  0.00    -0.375 OA
ATOM     34  H   UNL     1      31.976 -16.933 -21.223  0.00  0.00    +0.211 HD
ENDBRANCH  27  33
ENDBRANCH  24  27
ENDBRANCH   1  21
TORSDOF 8
ENDMDL
MODEL 4
REMARK VINA RESULT:      -8.7      8.163     12.831
REMARK  Name = 24856362
REMARK  8 active torsions:
REMARK  status: ('A' for Active; 'I' for Inactive)
REMARK    1  A    between atoms: S_1  and  N_5
REMARK    2  A    between atoms: S_1  and  C_21
REMARK    3  A    between atoms: N_4  and  C_12
REMARK    4  A    between atoms: C_12  and  C_13
REMARK    5  A    between atoms: C_13  and  C_18
REMARK    6  A    between atoms: C_24  and  C_27
REMARK    7  A    between atoms: C_27  and  C_32
REMARK    8  A    between atoms: C_27  and  O_33
REMARK                            x       y       z     vdW  Elec       q    Type
REMARK                         _______ _______ _______ _____ _____    ______ ____
ROOT
ATOM      1  S   UNL     1      33.348 -13.886 -26.053  0.00  0.00    +0.063 S 
ATOM      2  O   UNL     1      34.193 -13.838 -27.224  0.00  0.00    -0.153 OA
ATOM      3  O   UNL     1      31.922 -14.091 -26.162  0.00  0.00    -0.153 OA
ENDROOT
BRANCH   1   5
ATOM      4  N   UNL     1      33.370  -9.909 -23.814  0.00  0.00    +0.389 N 
ATOM      5  N   UNL     1      33.632 -12.479 -25.108  0.00  0.00    -0.161 NA
ATOM      6  C   UNL     1      34.427 -10.150 -24.807  0.00  0.00    -0.059 C 
ATOM      7  C   UNL     1      33.052 -11.151 -23.101  0.00  0.00    -0.058 C 
ATOM      8  C   UNL     1      33.998 -11.212 -25.837  0.00  0.00    +0.059 C 
ATOM      9  C   UNL     1      32.577 -12.221 -24.078  0.00  0.00    +0.073 C 
ATOM     10  C   UNL     1      35.143 -11.443 -26.821  0.00  0.00    +0.017 C 
ATOM     11  H   UNL     1      32.533  -9.590 -24.301  0.00  0.00    -0.080 HD
BRANCH   4  12
ATOM     12  C   UNL     1      33.778  -8.866 -22.873  0.00  0.00    -0.068 C 
BRANCH  12  13
ATOM     13  C   UNL     1      32.593  -8.214 -22.239  0.00  0.00    +0.050 C 
ATOM     14  C   UNL     1      31.387  -8.021 -23.111  0.00  0.00    +0.007 C 
ATOM     15  C   UNL     1      32.237  -6.843 -22.735  0.00  0.00    +0.007 C 
BRANCH  13  18
ATOM     16  O   UNL     1      31.597  -9.398 -20.470  0.00  0.00    -0.275 OA
ATOM     17  N   UNL     1      33.057  -7.691 -19.940  0.00  0.00    -0.329 N 
ATOM     18  C   UNL     1      32.360  -8.500 -20.806  0.00  0.00    +0.216 C 
ATOM     19  H   UNL     1      32.961  -7.812 -18.968  0.00  0.00    +0.145 HD
ATOM     20  H   UNL     1      33.652  -6.990 -20.293  0.00  0.00    +0.145 HD
ENDBRANCH  13  18
ENDBRANCH  12  13
ENDBRANCH   4  12
ENDBRANCH   1   5
BRANCH   1  21
ATOM     21  C   UNL     1      33.995 -15.116 -24.965  0.00  0.00    +0.122 C 
ATOM     22  C   UNL     1      34.244 -14.801 -23.629  0.00  0.00    +0.020 C 
ATOM     23  C   UNL     1      34.256 -16.400 -25.441  0.00  0.00    +0.020 C 
ATOM     24  C   UNL     1      35.016 -17.059 -23.244  0.00  0.00    +0.010 C 
ATOM     25  C   UNL     1      34.755 -15.773 -22.768  0.00  0.00    -0.000 C 
ATOM     26  C   UNL     1      34.767 -17.372 -24.580  0.00  0.00    -0.000 C 
BRANCH  24  27
ATOM     27  C   UNL     1      35.562 -18.097 -22.323  0.00  0.00    +0.194 C 
ATOM     28  C   UNL     1      35.521 -17.685 -20.830  0.00  0.00    +0.043 C 
BRANCH  27  32
ATOM     29  F   UNL     1      35.006 -19.955 -23.745  0.00  0.00    -0.167 F 
ATOM     30  F   UNL     1      33.517 -19.336 -22.283  0.00  0.00    -0.167 F 
ATOM     31  F   UNL     1      35.325 -20.367 -21.629  0.00  0.00    -0.167 F 
ATOM     32  C   UNL     1      34.846 -19.450 -22.501  0.00  0.00    +0.423 C 
ENDBRANCH  27  32
BRANCH  27  33
ATOM     33  O   UNL     1      36.959 -18.358 -22.598  0.00  0.00    -0.375 OA
ATOM     34  H   UNL     1      37.077 -18.525 -23.546  0.00  0.00    +0.211 HD
ENDBRANCH  27  33
ENDBRANCH  24  27
ENDBRANCH   1  21
TORSDOF 8
ENDMDL
MODEL 5
REMARK VINA RESULT:      -8.5      7.942     12.817
REMARK  Name = 24856362
REMARK  8 active torsions:
REMARK  status: ('A' for Active; 'I' for Inactive)
REMARK    1  A    between atoms: S_1  and  N_5
REMARK    2  A    between atoms: S_1  and  C_21
REMARK    3  A    between atoms: N_4  and  C_12
REMARK    4  A    between atoms: C_12  and  C_13
REMARK    5  A    between atoms: C_13  and  C_18
REMARK    6  A    between atoms: C_24  and  C_27
REMARK    7  A    between atoms: C_27  and  C_32
REMARK    8  A    between atoms: C_27  and  O_33
REMARK                            x       y       z     vdW  Elec       q    Type
REMARK                         _______ _______ _______ _____ _____    ______ ____
ROOT
ATOM      1  S   UNL     1      33.395 -13.880 -25.835  0.00  0.00    +0.063 S 
ATOM      2  O   UNL     1      34.466 -13.508 -26.732  0.00  0.00    -0.153 OA
ATOM      3  O   UNL     1      32.067 -14.165 -26.327  0.00  0.00    -0.153 OA
ENDROOT
BRANCH   1   5
ATOM      4  N   UNL     1      32.376 -10.556 -22.877  0.00  0.00    +0.389 N 
ATOM      5  N   UNL     1      33.281 -12.699 -24.591  0.00  0.00    -0.161 NA
ATOM      6  C   UNL     1      33.592 -10.411 -23.689  0.00  0.00    -0.059 C 
ATOM      7  C   UNL     1      32.184 -11.960 -22.498  0.00  0.00    -0.058 C 
ATOM      8  C   UNL     1      33.516 -11.261 -24.972  0.00  0.00    +0.059 C 
ATOM      9  C   UNL     1      32.058 -12.836 -23.740  0.00  0.00    +0.073 C 
ATOM     10  C   UNL     1      34.816 -11.095 -25.758  0.00  0.00    +0.017 C 
ATOM     11  H   UNL     1      31.576 -10.258 -23.435  0.00  0.00    -0.080 HD
BRANCH   4  12
ATOM     12  C   UNL     1      32.448  -9.708 -21.688  0.00  0.00    -0.068 C 
BRANCH  12  13
ATOM     13  C   UNL     1      32.280  -8.265 -22.039  0.00  0.00    +0.050 C 
ATOM     14  C   UNL     1      33.432  -7.360 -21.718  0.00  0.00    +0.007 C 
ATOM     15  C   UNL     1      32.181  -7.303 -20.891  0.00  0.00    +0.007 C 
BRANCH  13  18
ATOM     16  O   UNL     1      30.386  -8.470 -23.414  0.00  0.00    -0.275 OA
ATOM     17  N   UNL     1      32.095  -7.094 -24.128  0.00  0.00    -0.329 N 
ATOM     18  C   UNL     1      31.489  -7.961 -23.251  0.00  0.00    +0.216 C 
ATOM     19  H   UNL     1      31.638  -6.837 -24.962  0.00  0.00    +0.145 HD
ATOM     20  H   UNL     1      32.986  -6.729 -23.922  0.00  0.00    +0.145 HD
ENDBRANCH  13  18
ENDBRANCH  12  13
ENDBRANCH   4  12
ENDBRANCH   1   5
BRANCH   1  21
ATOM     21  C   UNL     1      33.936 -15.266 -24.886  0.00  0.00    +0.122 C 
ATOM     22  C   UNL     1      33.870 -16.549 -25.429  0.00  0.00    +0.020 C 
ATOM     23  C   UNL     1      34.431 -15.078 -23.597  0.00  0.00    +0.020 C 
ATOM     24  C   UNL     1      34.794 -17.458 -23.390  0.00  0.00    +0.010 C 
ATOM     25  C   UNL     1      34.299 -17.646 -24.680  0.00  0.00    -0.000 C 
ATOM     26  C   UNL     1      34.861 -16.174 -22.847  0.00  0.00    -0.000 C 
BRANCH  24  27
ATOM     27  C   UNL     1      35.252 -18.630 -22.590  0.00  0.00    +0.194 C 
ATOM     28  C   UNL     1      36.681 -18.466 -22.012  0.00  0.00    +0.043 C 
BRANCH  27  32
ATOM     29  F   UNL     1      33.317 -19.837 -21.824  0.00  0.00    -0.167 F 
ATOM     30  F   UNL     1      33.641 -17.846 -21.005  0.00  0.00    -0.167 F 
ATOM     31  F   UNL     1      34.925 -19.500 -20.393  0.00  0.00    -0.167 F 
ATOM     32  C   UNL     1      34.272 -18.957 -21.445  0.00  0.00    +0.423 C 
ENDBRANCH  27  32
BRANCH  27  33
ATOM     33  O   UNL     1      35.315 -19.827 -23.401  0.00  0.00    -0.375 OA
ATOM     34  H   UNL     1      36.104 -20.338 -23.163  0.00  0.00    +0.211 HD
ENDBRANCH  27  33
ENDBRANCH  24  27
ENDBRANCH   1  21
TORSDOF 8
ENDMDL
MODEL 6
REMARK VINA RESULT:      -8.5      4.929      8.064
REMARK  Name = 24856362
REMARK  8 active torsions:
REMARK  status: ('A' for Active; 'I' for Inactive)
REMARK    1  A    between atoms: S_1  and  N_5
REMARK    2  A    between atoms: S_1  and  C_21
REMARK    3  A    between atoms: N_4  and  C_12
REMARK    4  A    between atoms: C_12  and  C_13
REMARK    5  A    between atoms: C_13  and  C_18
REMARK    6  A    between atoms: C_24  and  C_27
REMARK    7  A    between atoms: C_27  and  C_32
REMARK    8  A    between atoms: C_27  and  O_33
REMARK                            x       y       z     vdW  Elec       q    Type
REMARK                         _______ _______ _______ _____ _____    ______ ____
ROOT
ATOM      1  S   UNL     1      34.524 -16.060 -24.032  0.00  0.00    +0.063 S 
ATOM      2  O   UNL     1      33.911 -16.275 -25.322  0.00  0.00    -0.153 OA
ATOM      3  O   UNL     1      35.937 -15.785 -23.908  0.00  0.00    -0.153 OA
ENDROOT
BRANCH   1   5
ATOM      4  N   UNL     1      34.226 -19.466 -21.008  0.00  0.00    +0.389 N 
ATOM      5  N   UNL     1      34.128 -17.379 -23.003  0.00  0.00    -0.161 NA
ATOM      6  C   UNL     1      34.076 -19.791 -22.433  0.00  0.00    -0.059 C 
ATOM      7  C   UNL     1      33.606 -18.168 -20.716  0.00  0.00    -0.058 C 
ATOM      8  C   UNL     1      34.733 -18.720 -23.326  0.00  0.00    +0.059 C 
ATOM      9  C   UNL     1      34.257 -17.067 -21.545  0.00  0.00    +0.073 C 
ATOM     10  C   UNL     1      34.518 -19.094 -24.792  0.00  0.00    +0.017 C 
ATOM     11  H   UNL     1      35.221 -19.407 -20.791  0.00  0.00    -0.080 HD
BRANCH   4  12
ATOM     12  C   UNL     1      33.637 -20.515 -20.176  0.00  0.00    -0.068 C 
BRANCH  12  13
ATOM     13  C   UNL     1      34.692 -21.374 -19.559  0.00  0.00    +0.050 C 
ATOM     14  C   UNL     1      36.065 -20.779 -19.455  0.00  0.00    +0.007 C 
ATOM     15  C   UNL     1      35.787 -21.851 -20.468  0.00  0.00    +0.007 C 
BRANCH  13  18
ATOM     16  O   UNL     1      35.080 -22.747 -17.691  0.00  0.00    -0.275 OA
ATOM     17  N   UNL     1      32.912 -22.551 -18.456  0.00  0.00    -0.329 N 
ATOM     18  C   UNL     1      34.260 -22.288 -18.479  0.00  0.00    +0.216 C 
ATOM     19  H   UNL     1      32.538 -23.151 -17.770  0.00  0.00    +0.145 HD
ATOM     20  H   UNL     1      32.319 -22.141 -19.127  0.00  0.00    +0.145 HD
ENDBRANCH  13  18
ENDBRANCH  12  13
ENDBRANCH   4  12
ENDBRANCH   1   5
BRANCH   1  21
ATOM     21  C   UNL     1      33.641 -14.767 -23.218  0.00  0.00    +0.122 C 
ATOM     22  C   UNL     1      33.854 -14.525 -21.861  0.00  0.00    +0.020 C 
ATOM     23  C   UNL     1      32.734 -13.986 -23.932  0.00  0.00    +0.020 C 
ATOM     24  C   UNL     1      32.248 -12.721 -21.932  0.00  0.00    +0.010 C 
ATOM     25  C   UNL     1      33.157 -13.502 -21.217  0.00  0.00    -0.000 C 
ATOM     26  C   UNL     1      32.036 -12.962 -23.290  0.00  0.00    -0.000 C 
BRANCH  24  27
ATOM     27  C   UNL     1      31.504 -11.627 -21.244  0.00  0.00    +0.194 C 
ATOM     28  C   UNL     1      31.730 -11.593 -19.711  0.00  0.00    +0.043 C 
BRANCH  27  32
ATOM     29  F   UNL     1      30.910  -9.838 -22.738  0.00  0.00    -0.167 F 
ATOM     30  F   UNL     1      33.029 -10.259 -22.477  0.00  0.00    -0.167 F 
ATOM     31  F   UNL     1      31.901  -9.305 -20.872  0.00  0.00    -0.167 F 
ATOM     32  C   UNL     1      31.837 -10.246 -21.841  0.00  0.00    +0.423 C 
ENDBRANCH  27  32
BRANCH  27  33
ATOM     33  O   UNL     1      30.074 -11.785 -21.405  0.00  0.00    -0.375 OA
ATOM     34  H   UNL     1      29.748 -11.138 -22.049  0.00  0.00    +0.211 HD
ENDBRANCH  27  33
ENDBRANCH  24  27
ENDBRANCH   1  21
TORSDOF 8
ENDMDL
MODEL 7
REMARK VINA RESULT:      -8.3      4.168      8.944
REMARK  Name = 24856362
REMARK  8 active torsions:
REMARK  status: ('A' for Active; 'I' for Inactive)
REMARK    1  A    between atoms: S_1  and  N_5
REMARK    2  A    between atoms: S_1  and  C_21
REMARK    3  A    between atoms: N_4  and  C_12
REMARK    4  A    between atoms: C_12  and  C_13
REMARK    5  A    between atoms: C_13  and  C_18
REMARK    6  A    between atoms: C_24  and  C_27
REMARK    7  A    between atoms: C_27  and  C_32
REMARK    8  A    between atoms: C_27  and  O_33
REMARK                            x       y       z     vdW  Elec       q    Type
REMARK                         _______ _______ _______ _____ _____    ______ ____
ROOT
ATOM      1  S   UNL     1      33.702 -22.657 -19.042  0.00  0.00    +0.063 S 
ATOM      2  O   UNL     1      34.128 -23.709 -19.937  0.00  0.00    -0.153 OA
ATOM      3  O   UNL     1      32.310 -22.481 -18.699  0.00  0.00    -0.153 OA
ENDROOT
BRANCH   1   5
ATOM      4  N   UNL     1      35.044 -18.910 -21.277  0.00  0.00    +0.389 N 
ATOM      5  N   UNL     1      34.323 -21.160 -19.613  0.00  0.00    -0.161 NA
ATOM      6  C   UNL     1      36.076 -19.759 -20.666  0.00  0.00    -0.059 C 
ATOM      7  C   UNL     1      33.851 -18.869 -20.423  0.00  0.00    -0.058 C 
ATOM      8  C   UNL     1      35.570 -21.199 -20.458  0.00  0.00    +0.059 C 
ATOM      9  C   UNL     1      33.286 -20.271 -20.225  0.00  0.00    +0.073 C 
ATOM     10  C   UNL     1      36.671 -22.023 -19.793  0.00  0.00    +0.017 C 
ATOM     11  H   UNL     1      34.784 -19.312 -22.178  0.00  0.00    -0.080 HD
BRANCH   4  12
ATOM     12  C   UNL     1      35.558 -17.561 -21.509  0.00  0.00    -0.068 C 
BRANCH  12  13
ATOM     13  C   UNL     1      34.805 -16.873 -22.601  0.00  0.00    +0.050 C 
ATOM     14  C   UNL     1      34.847 -15.374 -22.602  0.00  0.00    +0.007 C 
ATOM     15  C   UNL     1      33.594 -16.089 -22.190  0.00  0.00    +0.007 C 
BRANCH  13  18
ATOM     16  O   UNL     1      34.403 -18.727 -23.988  0.00  0.00    -0.275 OA
ATOM     17  N   UNL     1      35.141 -16.778 -24.978  0.00  0.00    -0.329 N 
ATOM     18  C   UNL     1      34.760 -17.557 -23.912  0.00  0.00    +0.216 C 
ATOM     19  H   UNL     1      35.142 -17.153 -25.888  0.00  0.00    +0.145 HD
ATOM     20  H   UNL     1      35.415 -15.843 -24.831  0.00  0.00    +0.145 HD
ENDBRANCH  13  18
ENDBRANCH  12  13
ENDBRANCH   4  12
ENDBRANCH   1   5
BRANCH   1  21
ATOM     21  C   UNL     1      34.620 -22.813 -17.543  0.00  0.00    +0.122 C 
ATOM     22  C   UNL     1      34.146 -23.635 -16.520  0.00  0.00    +0.020 C 
ATOM     23  C   UNL     1      35.817 -22.118 -17.383  0.00  0.00    +0.020 C 
ATOM     24  C   UNL     1      36.071 -23.063 -15.174  0.00  0.00    +0.010 C 
ATOM     25  C   UNL     1      34.872 -23.760 -15.335  0.00  0.00    -0.000 C 
ATOM     26  C   UNL     1      36.544 -22.242 -16.199  0.00  0.00    -0.000 C 
BRANCH  24  27
ATOM     27  C   UNL     1      36.846 -23.197 -13.907  0.00  0.00    +0.194 C 
ATOM     28  C   UNL     1      35.956 -23.399 -12.655  0.00  0.00    +0.043 C 
BRANCH  27  32
ATOM     29  F   UNL     1      38.668 -24.236 -15.084  0.00  0.00    -0.167 F 
ATOM     30  F   UNL     1      37.278 -25.546 -14.039  0.00  0.00    -0.167 F 
ATOM     31  F   UNL     1      38.692 -24.329 -12.907  0.00  0.00    -0.167 F 
ATOM     32  C   UNL     1      37.880 -24.337 -13.989  0.00  0.00    +0.423 C 
ENDBRANCH  27  32
BRANCH  27  33
ATOM     33  O   UNL     1      37.609 -21.999 -13.631  0.00  0.00    -0.375 OA
ATOM     34  H   UNL     1      38.538 -22.145 -13.867  0.00  0.00    +0.211 HD
ENDBRANCH  27  33
ENDBRANCH  24  27
ENDBRANCH   1  21
TORSDOF 8
ENDMDL
MODEL 8
REMARK VINA RESULT:      -8.1      2.173      3.006
REMARK  Name = 24856362
REMARK  8 active torsions:
REMARK  status: ('A' for Active; 'I' for Inactive)
REMARK    1  A    between atoms: S_1  and  N_5
REMARK    2  A    between atoms: S_1  and  C_21
REMARK    3  A    between atoms: N_4  and  C_12
REMARK    4  A    between atoms: C_12  and  C_13
REMARK    5  A    between atoms: C_13  and  C_18
REMARK    6  A    between atoms: C_24  and  C_27
REMARK    7  A    between atoms: C_27  and  C_32
REMARK    8  A    between atoms: C_27  and  O_33
REMARK                            x       y       z     vdW  Elec       q    Type
REMARK                         _______ _______ _______ _____ _____    ______ ____
ROOT
ATOM      1  S   UNL     1      36.155 -21.595 -20.344  0.00  0.00    +0.063 S 
ATOM      2  O   UNL     1      35.405 -22.563 -21.113  0.00  0.00    -0.153 OA
ATOM      3  O   UNL     1      37.590 -21.481 -20.474  0.00  0.00    -0.153 OA
ENDROOT
BRANCH   1   5
ATOM      4  N   UNL     1      35.561 -22.792 -15.980  0.00  0.00    +0.389 N 
ATOM      5  N   UNL     1      35.766 -21.788 -18.681  0.00  0.00    -0.161 NA
ATOM      6  C   UNL     1      34.370 -22.672 -16.833  0.00  0.00    -0.059 C 
ATOM      7  C   UNL     1      36.542 -21.759 -16.331  0.00  0.00    -0.058 C 
ATOM      8  C   UNL     1      34.729 -22.821 -18.323  0.00  0.00    +0.059 C 
ATOM      9  C   UNL     1      36.963 -21.897 -17.790  0.00  0.00    +0.073 C 
ATOM     10  C   UNL     1      33.461 -22.656 -19.161  0.00  0.00    +0.017 C 
ATOM     11  H   UNL     1      35.982 -23.707 -16.137  0.00  0.00    -0.080 HD
BRANCH   4  12
ATOM     12  C   UNL     1      35.193 -22.693 -14.567  0.00  0.00    -0.068 C 
BRANCH  12  13
ATOM     13  C   UNL     1      35.606 -23.915 -13.813  0.00  0.00    +0.050 C 
ATOM     14  C   UNL     1      34.641 -24.423 -12.782  0.00  0.00    +0.007 C 
ATOM     15  C   UNL     1      35.903 -23.732 -12.353  0.00  0.00    +0.007 C 
BRANCH  13  18
ATOM     16  O   UNL     1      35.860 -25.721 -15.293  0.00  0.00    -0.275 OA
ATOM     17  N   UNL     1      37.761 -24.847 -14.321  0.00  0.00    -0.329 N 
ATOM     18  C   UNL     1      36.407 -24.915 -14.549  0.00  0.00    +0.216 C 
ATOM     19  H   UNL     1      38.370 -25.476 -14.770  0.00  0.00    +0.145 HD
ATOM     20  H   UNL     1      38.121 -24.167 -13.705  0.00  0.00    +0.145 HD
ENDBRANCH  13  18
ENDBRANCH  12  13
ENDBRANCH   4  12
ENDBRANCH   1   5
BRANCH   1  21
ATOM     21  C   UNL     1      35.451 -20.004 -20.637  0.00  0.00    +0.122 C 
ATOM     22  C   UNL     1      34.064 -19.852 -20.669  0.00  0.00    +0.020 C 
ATOM     23  C   UNL     1      36.279 -18.900 -20.833  0.00  0.00    +0.020 C 
ATOM     24  C   UNL     1      34.335 -17.489 -21.096  0.00  0.00    +0.010 C 
ATOM     25  C   UNL     1      33.506 -18.594 -20.899  0.00  0.00    -0.000 C 
ATOM     26  C   UNL     1      35.722 -17.642 -21.063  0.00  0.00    -0.000 C 
BRANCH  24  27
ATOM     27  C   UNL     1      33.738 -16.145 -21.342  0.00  0.00    +0.194 C 
ATOM     28  C   UNL     1      34.315 -15.034 -20.428  0.00  0.00    +0.043 C 
BRANCH  27  32
ATOM     29  F   UNL     1      32.811 -15.016 -23.253  0.00  0.00    -0.167 F 
ATOM     30  F   UNL     1      34.014 -16.791 -23.629  0.00  0.00    -0.167 F 
ATOM     31  F   UNL     1      34.973 -14.938 -22.989  0.00  0.00    -0.167 F 
ATOM     32  C   UNL     1      33.881 -15.719 -22.817  0.00  0.00    +0.423 C 
ENDBRANCH  27  32
BRANCH  27  33
ATOM     33  O   UNL     1      32.316 -16.145 -21.074  0.00  0.00    -0.375 OA
ATOM     34  H   UNL     1      32.117 -15.495 -20.383  0.00  0.00    +0.211 HD
ENDBRANCH  27  33
ENDBRANCH  24  27
ENDBRANCH   1  21
TORSDOF 8
ENDMDL
MODEL 9
REMARK VINA RESULT:      -7.8      6.908     10.502
REMARK  Name = 24856362
REMARK  8 active torsions:
REMARK  status: ('A' for Active; 'I' for Inactive)
REMARK    1  A    between atoms: S_1  and  N_5
REMARK    2  A    between atoms: S_1  and  C_21
REMARK    3  A    between atoms: N_4  and  C_12
REMARK    4  A    between atoms: C_12  and  C_13
REMARK    5  A    between atoms: C_13  and  C_18
REMARK    6  A    between atoms: C_24  and  C_27
REMARK    7  A    between atoms: C_27  and  C_32
REMARK    8  A    between atoms: C_27  and  O_33
REMARK                            x       y       z     vdW  Elec       q    Type
REMARK                         _______ _______ _______ _____ _____    ______ ____
ROOT
ATOM      1  S   UNL     1      33.465 -13.917 -25.651  0.00  0.00    +0.063 S 
ATOM      2  O   UNL     1      32.151 -14.184 -26.188  0.00  0.00    -0.153 OA
ATOM      3  O   UNL     1      34.642 -13.960 -26.488  0.00  0.00    -0.153 OA
ENDROOT
BRANCH   1   5
ATOM      4  N   UNL     1      34.924 -16.363 -22.083  0.00  0.00    +0.389 N 
ATOM      5  N   UNL     1      33.723 -14.931 -24.286  0.00  0.00    -0.161 NA
ATOM      6  C   UNL     1      34.346 -17.083 -23.227  0.00  0.00    -0.059 C 
ATOM      7  C   UNL     1      34.207 -15.101 -21.865  0.00  0.00    -0.058 C 
ATOM      8  C   UNL     1      34.423 -16.244 -24.517  0.00  0.00    +0.059 C 
ATOM      9  C   UNL     1      34.296 -14.216 -23.103  0.00  0.00    +0.073 C 
ATOM     10  C   UNL     1      33.781 -17.029 -25.660  0.00  0.00    +0.017 C 
ATOM     11  H   UNL     1      35.899 -16.151 -22.292  0.00  0.00    -0.080 HD
BRANCH   4  12
ATOM     12  C   UNL     1      34.883 -17.192 -20.879  0.00  0.00    -0.068 C 
BRANCH  12  13
ATOM     13  C   UNL     1      35.222 -18.614 -21.187  0.00  0.00    +0.050 C 
ATOM     14  C   UNL     1      34.328 -19.319 -22.165  0.00  0.00    +0.007 C 
ATOM     15  C   UNL     1      34.253 -19.654 -20.704  0.00  0.00    +0.007 C 
BRANCH  13  18
ATOM     16  O   UNL     1      37.389 -18.581 -22.094  0.00  0.00    -0.275 OA
ATOM     17  N   UNL     1      37.057 -19.749 -20.133  0.00  0.00    -0.329 N 
ATOM     18  C   UNL     1      36.657 -18.972 -21.193  0.00  0.00    +0.216 C 
ATOM     19  H   UNL     1      37.997 -20.035 -20.058  0.00  0.00    +0.145 HD
ATOM     20  H   UNL     1      36.403 -20.022 -19.448  0.00  0.00    +0.145 HD
ENDBRANCH  13  18
ENDBRANCH  12  13
ENDBRANCH   4  12
ENDBRANCH   1   5
BRANCH   1  21
ATOM     21  C   UNL     1      33.418 -12.344 -24.854  0.00  0.00    +0.122 C 
ATOM     22  C   UNL     1      34.240 -11.310 -25.304  0.00  0.00    +0.020 C 
ATOM     23  C   UNL     1      32.559 -12.133 -23.777  0.00  0.00    +0.020 C 
ATOM     24  C   UNL     1      33.343  -9.855 -23.597  0.00  0.00    +0.010 C 
ATOM     25  C   UNL     1      34.202 -10.065 -24.675  0.00  0.00    -0.000 C 
ATOM     26  C   UNL     1      32.520 -10.889 -23.147  0.00  0.00    -0.000 C 
BRANCH  24  27
ATOM     27  C   UNL     1      33.303  -8.524 -22.925  0.00  0.00    +0.194 C 
ATOM     28  C   UNL     1      34.632  -7.734 -23.035  0.00  0.00    +0.043 C 
BRANCH  27  32
ATOM     29  F   UNL     1      31.429  -8.280 -24.413  0.00  0.00    -0.167 F 
ATOM     30  F   UNL     1      32.601  -6.497 -23.983  0.00  0.00    -0.167 F 
ATOM     31  F   UNL     1      31.289  -7.335 -22.454  0.00  0.00    -0.167 F 
ATOM     32  C   UNL     1      32.145  -7.653 -23.452  0.00  0.00    +0.423 C 
ENDBRANCH  27  32
BRANCH  27  33
ATOM     33  O   UNL     1      33.070  -8.662 -21.503  0.00  0.00    -0.375 OA
ATOM     34  H   UNL     1      32.277  -9.200 -21.356  0.00  0.00    +0.211 HD
ENDBRANCH  27  33
ENDBRANCH  24  27
ENDBRANCH   1  21
TORSDOF 8
ENDMDL
