MODEL 1
REMARK VINA RESULT:      -9.4      0.000      0.000
REMARK  Name = 6956357
REMARK  2 active torsions:
REMARK  status: ('A' for Active; 'I' for Inactive)
REMARK    1  A    between atoms: C_5  and  N_18
REMARK    2  A    between atoms: C_16  and  C_27
REMARK                            x       y       z     vdW  Elec       q    Type
REMARK                         _______ _______ _______ _____ _____    ______ ____
ROOT
ATOM      1  F   UNL     1      30.671 -10.510 -20.378  0.00  0.00    -0.203 F 
ATOM      2  O   UNL     1      33.382 -10.143 -24.238  0.00  0.00    -0.471 OA
ATOM      3  O   UNL     1      32.409 -15.199 -21.115  0.00  0.00    -0.286 OA
ATOM      4  N   UNL     1      33.930 -12.963 -24.159  0.00  0.00    -0.281 N 
ATOM      5  C   UNL     1      32.022 -10.337 -22.321  0.00  0.00    +0.111 C 
ATOM      6  C   UNL     1      32.861 -10.948 -23.254  0.00  0.00    +0.168 C 
ATOM      7  C   UNL     1      33.130 -12.324 -23.190  0.00  0.00    +0.091 C 
ATOM      8  C   UNL     1      34.361 -12.135 -25.289  0.00  0.00    +0.121 C 
ATOM      9  C   UNL     1      34.572 -10.698 -24.810  0.00  0.00    +0.225 C 
ATOM     10  C   UNL     1      32.573 -13.064 -22.131  0.00  0.00    +0.058 C 
ATOM     11  C   UNL     1      31.469 -11.089 -21.286  0.00  0.00    +0.156 C 
ATOM     12  C   UNL     1      31.747 -12.451 -21.183  0.00  0.00    +0.036 C 
ATOM     13  C   UNL     1      34.179 -14.316 -24.055  0.00  0.00    +0.075 C 
ATOM     14  C   UNL     1      33.336 -12.220 -26.423  0.00  0.00    +0.026 C 
ATOM     15  C   UNL     1      32.862 -14.520 -22.028  0.00  0.00    +0.205 C 
ATOM     16  C   UNL     1      33.721 -15.114 -23.085  0.00  0.00    +0.133 C 
ENDROOT
BRANCH   5  18
ATOM     17  N   UNL     1      31.026  -6.218 -22.404  0.00  0.00    +0.388 N 
ATOM     18  N   UNL     1      31.735  -8.969 -22.402  0.00  0.00    -0.308 N 
ATOM     19  C   UNL     1      30.817  -7.053 -23.641  0.00  0.00    -0.056 C 
ATOM     20  C   UNL     1      32.237  -6.684 -21.638  0.00  0.00    -0.056 C 
ATOM     21  C   UNL     1      30.623  -8.510 -23.239  0.00  0.00    +0.068 C 
ATOM     22  C   UNL     1      32.044  -8.138 -21.229  0.00  0.00    +0.068 C 
ATOM     23  C   UNL     1      31.098  -4.751 -22.724  0.00  0.00    -0.101 C 
ATOM     24  H   UNL     1      30.212  -6.345 -21.804  0.00  0.00    -0.080 HD
ENDBRANCH   5  18
BRANCH  16  27
ATOM     25  O   UNL     1      34.158 -17.096 -24.264  0.00  0.00    -0.240 OA
ATOM     26  O   UNL     1      34.276 -17.110 -21.980  0.00  0.00    -0.240 OA
ATOM     27  C   UNL     1      34.086 -16.580 -23.113  0.00  0.00    +0.392 C 
ENDBRANCH  16  27
TORSDOF 2
ENDMDL
MODEL 2
REMARK VINA RESULT:      -9.2      2.509      7.070
REMARK  Name = 6956357
REMARK  2 active torsions:
REMARK  status: ('A' for Active; 'I' for Inactive)
REMARK    1  A    between atoms: C_5  and  N_18
REMARK    2  A    between atoms: C_16  and  C_27
REMARK                            x       y       z     vdW  Elec       q    Type
REMARK                         _______ _______ _______ _____ _____    ______ ____
ROOT
ATOM      1  F   UNL     1      32.347 -14.976 -21.031  0.00  0.00    -0.203 F 
ATOM      2  O   UNL     1      34.098 -12.963 -24.939  0.00  0.00    -0.471 OA
ATOM      3  O   UNL     1      31.067 -10.106 -20.590  0.00  0.00    -0.286 OA
ATOM      4  N   UNL     1      33.171 -10.387 -24.064  0.00  0.00    -0.281 N 
ATOM      5  C   UNL     1      33.234 -13.956 -22.982  0.00  0.00    +0.111 C 
ATOM      6  C   UNL     1      33.416 -12.809 -23.755  0.00  0.00    +0.168 C 
ATOM      7  C   UNL     1      32.943 -11.563 -23.319  0.00  0.00    +0.091 C 
ATOM      8  C   UNL     1      34.024 -10.528 -25.247  0.00  0.00    +0.121 C 
ATOM      9  C   UNL     1      33.807 -11.910 -25.864  0.00  0.00    +0.225 C 
ATOM     10  C   UNL     1      32.234 -11.505 -22.105  0.00  0.00    +0.058 C 
ATOM     11  C   UNL     1      32.539 -13.878 -21.776  0.00  0.00    +0.156 C 
ATOM     12  C   UNL     1      32.031 -12.656 -21.337  0.00  0.00    +0.036 C 
ATOM     13  C   UNL     1      32.680  -9.182 -23.606  0.00  0.00    +0.075 C 
ATOM     14  C   UNL     1      35.489 -10.289 -24.870  0.00  0.00    +0.026 C 
ATOM     15  C   UNL     1      31.701 -10.199 -21.632  0.00  0.00    +0.205 C 
ATOM     16  C   UNL     1      31.977  -9.010 -22.481  0.00  0.00    +0.133 C 
ENDROOT
BRANCH   5  18
ATOM     17  N   UNL     1      34.921 -17.621 -24.284  0.00  0.00    +0.388 N 
ATOM     18  N   UNL     1      33.729 -15.195 -23.407  0.00  0.00    -0.308 N 
ATOM     19  C   UNL     1      33.772 -17.021 -25.055  0.00  0.00    -0.056 C 
ATOM     20  C   UNL     1      34.788 -17.334 -22.810  0.00  0.00    -0.056 C 
ATOM     21  C   UNL     1      33.752 -15.513 -24.838  0.00  0.00    +0.068 C 
ATOM     22  C   UNL     1      34.774 -15.827 -22.590  0.00  0.00    +0.068 C 
ATOM     23  C   UNL     1      35.072 -19.091 -24.557  0.00  0.00    -0.101 C 
ATOM     24  H   UNL     1      35.778 -17.175 -24.610  0.00  0.00    -0.080 HD
ENDBRANCH   5  18
BRANCH  16  27
ATOM     25  O   UNL     1      31.949  -7.172 -21.022  0.00  0.00    -0.240 OA
ATOM     26  O   UNL     1      30.734  -7.077 -22.958  0.00  0.00    -0.240 OA
ATOM     27  C   UNL     1      31.509  -7.621 -22.119  0.00  0.00    +0.392 C 
ENDBRANCH  16  27
TORSDOF 2
ENDMDL
MODEL 3
REMARK VINA RESULT:      -8.8      2.569      7.545
REMARK  Name = 6956357
REMARK  2 active torsions:
REMARK  status: ('A' for Active; 'I' for Inactive)
REMARK    1  A    between atoms: C_5  and  N_18
REMARK    2  A    between atoms: C_16  and  C_27
REMARK                            x       y       z     vdW  Elec       q    Type
REMARK                         _______ _______ _______ _____ _____    ______ ____
ROOT
ATOM      1  F   UNL     1      34.719 -11.735 -25.995  0.00  0.00    -0.203 F 
ATOM      2  O   UNL     1      32.485 -12.870 -21.981  0.00  0.00    -0.471 OA
ATOM      3  O   UNL     1      33.512  -7.272 -23.952  0.00  0.00    -0.286 OA
ATOM      4  N   UNL     1      32.024 -10.090 -21.416  0.00  0.00    -0.281 N 
ATOM      5  C   UNL     1      33.586 -12.296 -23.986  0.00  0.00    +0.111 C 
ATOM      6  C   UNL     1      32.934 -11.882 -22.825  0.00  0.00    +0.168 C 
ATOM      7  C   UNL     1      32.732 -10.519 -22.558  0.00  0.00    +0.091 C 
ATOM      8  C   UNL     1      31.418 -11.143 -20.598  0.00  0.00    +0.121 C 
ATOM      9  C   UNL     1      32.303 -12.390 -20.644  0.00  0.00    +0.225 C 
ATOM     10  C   UNL     1      33.248  -9.577 -23.467  0.00  0.00    +0.058 C 
ATOM     11  C   UNL     1      34.081 -11.349 -24.882  0.00  0.00    +0.156 C 
ATOM     12  C   UNL     1      33.920  -9.988 -24.623  0.00  0.00    +0.036 C 
ATOM     13  C   UNL     1      31.856  -8.740 -21.185  0.00  0.00    +0.075 C 
ATOM     14  C   UNL     1      29.994 -11.430 -21.080  0.00  0.00    +0.026 C 
ATOM     15  C   UNL     1      33.067  -8.125 -23.195  0.00  0.00    +0.205 C 
ATOM     16  C   UNL     1      32.318  -7.757 -21.965  0.00  0.00    +0.133 C 
ENDROOT
BRANCH   5  18
ATOM     17  N   UNL     1      33.933 -16.450 -24.756  0.00  0.00    +0.388 N 
ATOM     18  N   UNL     1      33.765 -13.657 -24.263  0.00  0.00    -0.308 N 
ATOM     19  C   UNL     1      34.928 -15.783 -23.841  0.00  0.00    -0.056 C 
ATOM     20  C   UNL     1      33.501 -15.514 -25.856  0.00  0.00    -0.056 C 
ATOM     21  C   UNL     1      34.292 -14.544 -23.222  0.00  0.00    +0.068 C 
ATOM     22  C   UNL     1      32.859 -14.278 -25.240  0.00  0.00    +0.068 C 
ATOM     23  C   UNL     1      34.457 -17.749 -25.301  0.00  0.00    -0.101 C 
ATOM     24  H   UNL     1      33.109 -16.679 -24.202  0.00  0.00    -0.080 HD
ENDBRANCH   5  18
BRANCH  16  27
ATOM     25  O   UNL     1      31.389  -5.649 -22.410  0.00  0.00    -0.240 OA
ATOM     26  O   UNL     1      32.517  -5.978 -20.448  0.00  0.00    -0.240 OA
ATOM     27  C   UNL     1      32.049  -6.324 -21.570  0.00  0.00    +0.392 C 
ENDBRANCH  16  27
TORSDOF 2
ENDMDL
MODEL 4
REMARK VINA RESULT:      -8.6      2.199      4.093
REMARK  Name = 6956357
REMARK  2 active torsions:
REMARK  status: ('A' for Active; 'I' for Inactive)
REMARK    1  A    between atoms: C_5  and  N_18
REMARK    2  A    between atoms: C_16  and  C_27
REMARK                            x       y       z     vdW  Elec       q    Type
REMARK                         _______ _______ _______ _____ _____    ______ ____
ROOT
ATOM      1  F   UNL     1      33.392 -12.130 -26.017  0.00  0.00    -0.203 F 
ATOM      2  O   UNL     1      32.909 -13.368 -21.476  0.00  0.00    -0.471 OA
ATOM      3  O   UNL     1      34.577 -17.043 -25.945  0.00  0.00    -0.286 OA
ATOM      4  N   UNL     1      33.763 -16.044 -22.083  0.00  0.00    -0.281 N 
ATOM      5  C   UNL     1      33.165 -12.756 -23.739  0.00  0.00    +0.111 C 
ATOM      6  C   UNL     1      33.232 -13.745 -22.757  0.00  0.00    +0.168 C 
ATOM      7  C   UNL     1      33.636 -15.051 -23.075  0.00  0.00    +0.091 C 
ATOM      8  C   UNL     1      33.564 -15.604 -20.699  0.00  0.00    +0.121 C 
ATOM      9  C   UNL     1      32.520 -14.486 -20.670  0.00  0.00    +0.225 C 
ATOM     10  C   UNL     1      33.923 -15.352 -24.419  0.00  0.00    +0.058 C 
ATOM     11  C   UNL     1      33.465 -13.070 -25.064  0.00  0.00    +0.156 C 
ATOM     12  C   UNL     1      33.838 -14.368 -25.410  0.00  0.00    +0.036 C 
ATOM     13  C   UNL     1      34.153 -17.319 -22.438  0.00  0.00    +0.075 C 
ATOM     14  C   UNL     1      34.897 -15.163 -20.091  0.00  0.00    +0.026 C 
ATOM     15  C   UNL     1      34.332 -16.735 -24.786  0.00  0.00    +0.205 C 
ATOM     16  C   UNL     1      34.432 -17.725 -23.681  0.00  0.00    +0.133 C 
ENDROOT
BRANCH   5  18
ATOM     17  N   UNL     1      32.162  -8.795 -22.611  0.00  0.00    +0.388 N 
ATOM     18  N   UNL     1      32.785 -11.448 -23.414  0.00  0.00    -0.308 N 
ATOM     19  C   UNL     1      31.096  -9.860 -22.592  0.00  0.00    -0.056 C 
ATOM     20  C   UNL     1      33.143  -9.034 -23.730  0.00  0.00    -0.056 C 
ATOM     21  C   UNL     1      31.749 -11.224 -22.402  0.00  0.00    +0.068 C 
ATOM     22  C   UNL     1      33.801 -10.393 -23.540  0.00  0.00    +0.068 C 
ATOM     23  C   UNL     1      31.573  -7.414 -22.668  0.00  0.00    -0.101 C 
ATOM     24  H   UNL     1      32.675  -8.855 -21.732  0.00  0.00    -0.080 HD
ENDBRANCH   5  18
BRANCH  16  27
ATOM     25  O   UNL     1      34.678 -19.592 -25.081  0.00  0.00    -0.240 OA
ATOM     26  O   UNL     1      35.311 -19.751 -22.889  0.00  0.00    -0.240 OA
ATOM     27  C   UNL     1      34.846 -19.160 -23.905  0.00  0.00    +0.392 C 
ENDBRANCH  16  27
TORSDOF 2
ENDMDL
MODEL 5
REMARK VINA RESULT:      -8.3      2.154      3.768
REMARK  Name = 6956357
REMARK  2 active torsions:
REMARK  status: ('A' for Active; 'I' for Inactive)
REMARK    1  A    between atoms: C_5  and  N_18
REMARK    2  A    between atoms: C_16  and  C_27
REMARK                            x       y       z     vdW  Elec       q    Type
REMARK                         _______ _______ _______ _____ _____    ______ ____
ROOT
ATOM      1  F   UNL     1      33.400 -11.094 -25.742  0.00  0.00    -0.203 F 
ATOM      2  O   UNL     1      32.854 -12.846 -21.381  0.00  0.00    -0.471 OA
ATOM      3  O   UNL     1      34.386 -16.025 -26.260  0.00  0.00    -0.286 OA
ATOM      4  N   UNL     1      33.601 -15.462 -22.305  0.00  0.00    -0.281 N 
ATOM      5  C   UNL     1      33.141 -11.978 -23.555  0.00  0.00    +0.111 C 
ATOM      6  C   UNL     1      33.165 -13.080 -22.698  0.00  0.00    +0.168 C 
ATOM      7  C   UNL     1      33.517 -14.353 -23.171  0.00  0.00    +0.091 C 
ATOM      8  C   UNL     1      33.416 -15.183 -20.878  0.00  0.00    +0.121 C 
ATOM      9  C   UNL     1      32.418 -14.036 -20.714  0.00  0.00    +0.225 C 
ATOM     10  C   UNL     1      33.796 -14.503 -24.542  0.00  0.00    +0.058 C 
ATOM     11  C   UNL     1      33.432 -12.143 -24.908  0.00  0.00    +0.156 C 
ATOM     12  C   UNL     1      33.753 -13.405 -25.408  0.00  0.00    +0.036 C 
ATOM     13  C   UNL     1      33.941 -16.700 -22.811  0.00  0.00    +0.075 C 
ATOM     14  C   UNL     1      34.764 -14.872 -20.224  0.00  0.00    +0.026 C 
ATOM     15  C   UNL     1      34.150 -15.847 -25.072  0.00  0.00    +0.205 C 
ATOM     16  C   UNL     1      34.207 -16.965 -24.094  0.00  0.00    +0.133 C 
ENDROOT
BRANCH   5  18
ATOM     17  N   UNL     1      32.012  -8.104 -22.258  0.00  0.00    +0.388 N 
ATOM     18  N   UNL     1      32.813 -10.704 -23.076  0.00  0.00    -0.308 N 
ATOM     19  C   UNL     1      33.457  -8.382 -22.583  0.00  0.00    -0.056 C 
ATOM     20  C   UNL     1      31.350  -9.320 -21.662  0.00  0.00    -0.056 C 
ATOM     21  C   UNL     1      33.539  -9.534 -23.578  0.00  0.00    +0.068 C 
ATOM     22  C   UNL     1      31.424 -10.470 -22.657  0.00  0.00    +0.068 C 
ATOM     23  C   UNL     1      31.858  -6.895 -21.378  0.00  0.00    -0.101 C 
ATOM     24  H   UNL     1      31.534  -7.889 -23.133  0.00  0.00    -0.080 HD
ENDBRANCH   5  18
BRANCH  16  27
ATOM     25  O   UNL     1      35.583 -18.857 -23.916  0.00  0.00    -0.240 OA
ATOM     26  O   UNL     1      33.797 -18.909 -25.344  0.00  0.00    -0.240 OA
ATOM     27  C   UNL     1      34.564 -18.379 -24.489  0.00  0.00    +0.392 C 
ENDBRANCH  16  27
TORSDOF 2
ENDMDL
MODEL 6
REMARK VINA RESULT:      -8.2     10.403     14.136
REMARK  Name = 6956357
REMARK  2 active torsions:
REMARK  status: ('A' for Active; 'I' for Inactive)
REMARK    1  A    between atoms: C_5  and  N_18
REMARK    2  A    between atoms: C_16  and  C_27
REMARK                            x       y       z     vdW  Elec       q    Type
REMARK                         _______ _______ _______ _____ _____    ______ ____
ROOT
ATOM      1  F   UNL     1      37.885 -21.206 -17.661  0.00  0.00    -0.203 F 
ATOM      2  O   UNL     1      33.465 -22.837 -17.224  0.00  0.00    -0.471 OA
ATOM      3  O   UNL     1      37.929 -23.730 -13.282  0.00  0.00    -0.286 OA
ATOM      4  N   UNL     1      34.114 -24.001 -14.677  0.00  0.00    -0.281 N 
ATOM      5  C   UNL     1      35.667 -22.017 -17.428  0.00  0.00    +0.111 C 
ATOM      6  C   UNL     1      34.728 -22.741 -16.692  0.00  0.00    +0.168 C 
ATOM      7  C   UNL     1      35.068 -23.315 -15.457  0.00  0.00    +0.091 C 
ATOM      8  C   UNL     1      32.735 -23.974 -15.173  0.00  0.00    +0.121 C 
ATOM      9  C   UNL     1      32.749 -23.962 -16.703  0.00  0.00    +0.225 C 
ATOM     10  C   UNL     1      36.393 -23.186 -15.003  0.00  0.00    +0.058 C 
ATOM     11  C   UNL     1      36.972 -21.889 -16.956  0.00  0.00    +0.156 C 
ATOM     12  C   UNL     1      37.342 -22.478 -15.748  0.00  0.00    +0.036 C 
ATOM     13  C   UNL     1      34.490 -24.560 -13.474  0.00  0.00    +0.075 C 
ATOM     14  C   UNL     1      31.991 -22.768 -14.594  0.00  0.00    +0.026 C 
ATOM     15  C   UNL     1      36.784 -23.806 -13.708  0.00  0.00    +0.205 C 
ATOM     16  C   UNL     1      35.721 -24.519 -12.952  0.00  0.00    +0.133 C 
ENDROOT
BRANCH   5  18
ATOM     17  N   UNL     1      34.585 -20.410 -21.198  0.00  0.00    +0.388 N 
ATOM     18  N   UNL     1      35.319 -21.424 -18.648  0.00  0.00    -0.308 N 
ATOM     19  C   UNL     1      35.919 -20.048 -20.597  0.00  0.00    -0.056 C 
ATOM     20  C   UNL     1      33.540 -20.584 -20.126  0.00  0.00    -0.056 C 
ATOM     21  C   UNL     1      36.359 -21.154 -19.644  0.00  0.00    +0.068 C 
ATOM     22  C   UNL     1      33.975 -21.693 -19.177  0.00  0.00    +0.068 C 
ATOM     23  C   UNL     1      34.155 -19.419 -22.244  0.00  0.00    -0.101 C 
ATOM     24  H   UNL     1      34.693 -21.306 -21.674  0.00  0.00    -0.080 HD
ENDBRANCH   5  18
BRANCH  16  27
ATOM     25  O   UNL     1      35.305 -24.719 -10.651  0.00  0.00    -0.240 OA
ATOM     26  O   UNL     1      36.817 -26.124 -11.637  0.00  0.00    -0.240 OA
ATOM     27  C   UNL     1      35.971 -25.184 -11.619  0.00  0.00    +0.392 C 
ENDBRANCH  16  27
TORSDOF 2
ENDMDL
MODEL 7
REMARK VINA RESULT:      -8.0     12.561     15.622
REMARK  Name = 6956357
REMARK  2 active torsions:
REMARK  status: ('A' for Active; 'I' for Inactive)
REMARK    1  A    between atoms: C_5  and  N_18
REMARK    2  A    between atoms: C_16  and  C_27
REMARK                            x       y       z     vdW  Elec       q    Type
REMARK                         _______ _______ _______ _____ _____    ______ ____
ROOT
ATOM      1  F   UNL     1      34.805 -24.454 -12.312  0.00  0.00    -0.203 F 
ATOM      2  O   UNL     1      34.793 -23.852 -17.006  0.00  0.00    -0.471 OA
ATOM      3  O   UNL     1      29.991 -23.368 -13.404  0.00  0.00    -0.286 OA
ATOM      4  N   UNL     1      31.992 -23.213 -16.947  0.00  0.00    -0.281 N 
ATOM      5  C   UNL     1      34.793 -24.138 -14.665  0.00  0.00    +0.111 C 
ATOM      6  C   UNL     1      34.081 -23.852 -15.830  0.00  0.00    +0.168 C 
ATOM      7  C   UNL     1      32.710 -23.559 -15.784  0.00  0.00    +0.091 C 
ATOM      8  C   UNL     1      32.780 -23.067 -18.173  0.00  0.00    +0.121 C 
ATOM      9  C   UNL     1      33.948 -24.054 -18.144  0.00  0.00    +0.225 C 
ATOM     10  C   UNL     1      32.058 -23.608 -14.538  0.00  0.00    +0.058 C 
ATOM     11  C   UNL     1      34.133 -24.170 -13.437  0.00  0.00    +0.156 C 
ATOM     12  C   UNL     1      32.765 -23.913 -13.370  0.00  0.00    +0.036 C 
ATOM     13  C   UNL     1      30.642 -22.941 -16.861  0.00  0.00    +0.075 C 
ATOM     14  C   UNL     1      33.254 -21.619 -18.324  0.00  0.00    +0.026 C 
ATOM     15  C   UNL     1      30.600 -23.323 -14.466  0.00  0.00    +0.205 C 
ATOM     16  C   UNL     1      29.915 -22.976 -15.739  0.00  0.00    +0.133 C 
ENDROOT
BRANCH   5  18
ATOM     17  N   UNL     1      38.949 -24.971 -14.597  0.00  0.00    +0.388 N 
ATOM     18  N   UNL     1      36.167 -24.406 -14.710  0.00  0.00    -0.308 N 
ATOM     19  C   UNL     1      38.463 -23.688 -15.223  0.00  0.00    -0.056 C 
ATOM     20  C   UNL     1      37.961 -26.087 -14.820  0.00  0.00    -0.056 C 
ATOM     21  C   UNL     1      37.124 -23.301 -14.605  0.00  0.00    +0.068 C 
ATOM     22  C   UNL     1      36.624 -25.705 -14.198  0.00  0.00    +0.068 C 
ATOM     23  C   UNL     1      40.326 -25.339 -15.073  0.00  0.00    -0.101 C 
ATOM     24  H   UNL     1      39.021 -24.816 -13.592  0.00  0.00    -0.080 HD
ENDBRANCH   5  18
BRANCH  16  27
ATOM     25  O   UNL     1      28.082 -21.629 -15.164  0.00  0.00    -0.240 OA
ATOM     26  O   UNL     1      27.751 -23.444 -16.516  0.00  0.00    -0.240 OA
ATOM     27  C   UNL     1      28.442 -22.652 -15.813  0.00  0.00    +0.392 C 
ENDBRANCH  16  27
TORSDOF 2
ENDMDL
MODEL 8
REMARK VINA RESULT:      -8.0      1.805      2.784
REMARK  Name = 6956357
REMARK  2 active torsions:
REMARK  status: ('A' for Active; 'I' for Inactive)
REMARK    1  A    between atoms: C_5  and  N_18
REMARK    2  A    between atoms: C_16  and  C_27
REMARK                            x       y       z     vdW  Elec       q    Type
REMARK                         _______ _______ _______ _____ _____    ______ ____
ROOT
ATOM      1  F   UNL     1      32.315 -12.693 -20.255  0.00  0.00    -0.203 F 
ATOM      2  O   UNL     1      33.168 -12.886 -24.905  0.00  0.00    -0.471 OA
ATOM      3  O   UNL     1      34.137 -17.352 -20.982  0.00  0.00    -0.286 OA
ATOM      4  N   UNL     1      34.026 -15.618 -24.665  0.00  0.00    -0.281 N 
ATOM      5  C   UNL     1      32.734 -12.802 -22.588  0.00  0.00    +0.111 C 
ATOM      6  C   UNL     1      33.188 -13.528 -23.690  0.00  0.00    +0.168 C 
ATOM      7  C   UNL     1      33.618 -14.857 -23.551  0.00  0.00    +0.091 C 
ATOM      8  C   UNL     1      33.863 -14.984 -25.976  0.00  0.00    +0.121 C 
ATOM      9  C   UNL     1      34.081 -13.476 -25.837  0.00  0.00    +0.225 C 
ATOM     10  C   UNL     1      33.627 -15.424 -22.263  0.00  0.00    +0.058 C 
ATOM     11  C   UNL     1      32.738 -13.385 -21.322  0.00  0.00    +0.156 C 
ATOM     12  C   UNL     1      33.191 -14.693 -21.154  0.00  0.00    +0.036 C 
ATOM     13  C   UNL     1      34.451 -16.919 -24.485  0.00  0.00    +0.075 C 
ATOM     14  C   UNL     1      32.484 -15.316 -26.553  0.00  0.00    +0.026 C 
ATOM     15  C   UNL     1      34.100 -16.824 -22.087  0.00  0.00    +0.205 C 
ATOM     16  C   UNL     1      34.521 -17.554 -23.311  0.00  0.00    +0.133 C 
ENDROOT
BRANCH   5  18
ATOM     17  N   UNL     1      31.501  -8.757 -22.881  0.00  0.00    +0.388 N 
ATOM     18  N   UNL     1      32.282 -11.485 -22.734  0.00  0.00    -0.308 N 
ATOM     19  C   UNL     1      30.476  -9.822 -22.581  0.00  0.00    -0.056 C 
ATOM     20  C   UNL     1      32.574  -9.286 -23.798  0.00  0.00    -0.056 C 
ATOM     21  C   UNL     1      31.162 -11.009 -21.916  0.00  0.00    +0.068 C 
ATOM     22  C   UNL     1      33.265 -10.468 -23.133  0.00  0.00    +0.068 C 
ATOM     23  C   UNL     1      30.867  -7.507 -23.423  0.00  0.00    -0.101 C 
ATOM     24  H   UNL     1      31.945  -8.499 -22.000  0.00  0.00    -0.080 HD
ENDBRANCH   5  18
BRANCH  16  27
ATOM     25  O   UNL     1      34.819 -19.640 -24.344  0.00  0.00    -0.240 OA
ATOM     26  O   UNL     1      35.554 -19.344 -22.198  0.00  0.00    -0.240 OA
ATOM     27  C   UNL     1      35.011 -18.983 -23.282  0.00  0.00    +0.392 C 
ENDBRANCH  16  27
TORSDOF 2
ENDMDL
MODEL 9
REMARK VINA RESULT:      -7.8      2.159      3.399
REMARK  Name = 6956357
REMARK  2 active torsions:
REMARK  status: ('A' for Active; 'I' for Inactive)
REMARK    1  A    between atoms: C_5  and  N_18
REMARK    2  A    between atoms: C_16  and  C_27
REMARK                            x       y       z     vdW  Elec       q    Type
REMARK                         _______ _______ _______ _____ _____    ______ ____
ROOT
ATOM      1  F   UNL     1      34.421 -10.008 -25.391  0.00  0.00    -0.203 F 
ATOM      2  O   UNL     1      31.370  -9.933 -21.775  0.00  0.00    -0.471 OA
ATOM      3  O   UNL     1      34.626 -14.694 -23.507  0.00  0.00    -0.286 OA
ATOM      4  N   UNL     1      32.005 -12.663 -21.143  0.00  0.00    -0.281 N 
ATOM      5  C   UNL     1      32.902  -9.975 -23.568  0.00  0.00    +0.111 C 
ATOM      6  C   UNL     1      32.276 -10.650 -22.519  0.00  0.00    +0.168 C 
ATOM      7  C   UNL     1      32.587 -11.988 -22.235  0.00  0.00    +0.091 C 
ATOM      8  C   UNL     1      31.155 -11.856 -20.263  0.00  0.00    +0.121 C 
ATOM      9  C   UNL     1      30.444 -10.785 -21.093  0.00  0.00    +0.225 C 
ATOM     10  C   UNL     1      33.510 -12.650 -23.066  0.00  0.00    +0.058 C 
ATOM     11  C   UNL     1      33.822 -10.643 -24.374  0.00  0.00    +0.156 C 
ATOM     12  C   UNL     1      34.124 -11.982 -24.131  0.00  0.00    +0.036 C 
ATOM     13  C   UNL     1      32.329 -13.983 -20.903  0.00  0.00    +0.075 C 
ATOM     14  C   UNL     1      31.992 -11.250 -19.135  0.00  0.00    +0.026 C 
ATOM     15  C   UNL     1      33.840 -14.076 -22.800  0.00  0.00    +0.205 C 
ATOM     16  C   UNL     1      33.174 -14.717 -21.635  0.00  0.00    +0.133 C 
ENDROOT
BRANCH   5  18
ATOM     17  N   UNL     1      32.042  -5.868 -24.171  0.00  0.00    +0.388 N 
ATOM     18  N   UNL     1      32.608  -8.632 -23.833  0.00  0.00    -0.308 N 
ATOM     19  C   UNL     1      31.024  -6.904 -24.579  0.00  0.00    -0.056 C 
ATOM     20  C   UNL     1      33.444  -6.382 -24.375  0.00  0.00    -0.056 C 
ATOM     21  C   UNL     1      31.222  -8.162 -23.742  0.00  0.00    +0.068 C 
ATOM     22  C   UNL     1      33.647  -7.636 -23.536  0.00  0.00    +0.068 C 
ATOM     23  C   UNL     1      31.818  -4.558 -24.872  0.00  0.00    -0.101 C 
ATOM     24  H   UNL     1      31.919  -5.690 -23.175  0.00  0.00    -0.080 HD
ENDBRANCH   5  18
BRANCH  16  27
ATOM     25  O   UNL     1      32.386 -16.834 -21.000  0.00  0.00    -0.240 OA
ATOM     26  O   UNL     1      34.640 -16.497 -21.200  0.00  0.00    -0.240 OA
ATOM     27  C   UNL     1      33.424 -16.153 -21.240  0.00  0.00    +0.392 C 
ENDBRANCH  16  27
TORSDOF 2
ENDMDL
