MODEL 1
REMARK VINA RESULT:      -6.1      0.000      0.000
REMARK  Name = 667510
REMARK  0 active torsions:
REMARK  status: ('A' for Active; 'I' for Inactive)
REMARK                            x       y       z     vdW  Elec       q    Type
REMARK                         _______ _______ _______ _____ _____    ______ ____
ROOT
ATOM      1  S   UNL     1      32.708 -13.086 -22.879  0.00  0.00    +0.011 S 
ATOM      2  N   UNL     1      35.350 -17.215 -24.352  0.00  0.00    -0.250 N 
ATOM      3  N   UNL     1      35.516 -16.928 -23.053  0.00  0.00    -0.262 N 
ATOM      4  N   UNL     1      33.957 -16.160 -26.032  0.00  0.00    -0.227 NA
ATOM      5  N   UNL     1      32.708 -14.218 -25.331  0.00  0.00    -0.203 NA
ATOM      6  C   UNL     1      34.087 -15.336 -23.762  0.00  0.00    +0.099 C 
ATOM      7  C   UNL     1      34.460 -16.289 -24.850  0.00  0.00    +0.151 C 
ATOM      8  C   UNL     1      34.793 -15.808 -22.720  0.00  0.00    +0.088 C 
ATOM      9  C   UNL     1      33.167 -14.226 -24.027  0.00  0.00    -0.010 C 
ATOM     10  C   UNL     1      33.085 -15.105 -26.208  0.00  0.00    +0.261 C 
ATOM     11  H   UNL     1      35.781 -17.945 -24.853  0.00  0.00    +0.171 HD
ATOM     12  H   UNL     1      36.073 -17.445 -22.428  0.00  0.00    +0.170 HD
ENDROOT
TORSDOF 0
ENDMDL
MODEL 2
REMARK VINA RESULT:      -5.9     14.373     15.024
REMARK  Name = 667510
REMARK  0 active torsions:
REMARK  status: ('A' for Active; 'I' for Inactive)
REMARK                            x       y       z     vdW  Elec       q    Type
REMARK                         _______ _______ _______ _____ _____    ______ ____
ROOT
ATOM      1  S   UNL     1      37.432 -23.094 -12.004  0.00  0.00    +0.011 S 
ATOM      2  N   UNL     1      36.476 -26.842 -15.358  0.00  0.00    -0.250 N 
ATOM      3  N   UNL     1      35.377 -26.153 -15.021  0.00  0.00    -0.262 N 
ATOM      4  N   UNL     1      38.791 -26.527 -14.710  0.00  0.00    -0.227 NA
ATOM      5  N   UNL     1      39.238 -24.755 -13.135  0.00  0.00    -0.203 NA
ATOM      6  C   UNL     1      37.010 -25.136 -13.849  0.00  0.00    +0.099 C 
ATOM      7  C   UNL     1      37.530 -26.254 -14.692  0.00  0.00    +0.151 C 
ATOM      8  C   UNL     1      35.693 -25.171 -14.113  0.00  0.00    +0.088 C 
ATOM      9  C   UNL     1      37.922 -24.351 -13.009  0.00  0.00    -0.010 C 
ATOM     10  C   UNL     1      39.594 -25.739 -13.911  0.00  0.00    +0.261 C 
ATOM     11  H   UNL     1      36.522 -27.617 -15.964  0.00  0.00    +0.171 HD
ATOM     12  H   UNL     1      34.474 -26.326 -15.372  0.00  0.00    +0.170 HD
ENDROOT
TORSDOF 0
ENDMDL
MODEL 3
REMARK VINA RESULT:      -5.9      5.346      6.761
REMARK  Name = 667510
REMARK  0 active torsions:
REMARK  status: ('A' for Active; 'I' for Inactive)
REMARK                            x       y       z     vdW  Elec       q    Type
REMARK                         _______ _______ _______ _____ _____    ______ ____
ROOT
ATOM      1  S   UNL     1      34.564 -17.499 -21.882  0.00  0.00    +0.011 S 
ATOM      2  N   UNL     1      33.913 -21.977 -19.489  0.00  0.00    -0.250 N 
ATOM      3  N   UNL     1      32.772 -21.486 -19.992  0.00  0.00    -0.262 N 
ATOM      4  N   UNL     1      36.182 -21.135 -19.622  0.00  0.00    -0.227 NA
ATOM      5  N   UNL     1      36.485 -19.027 -20.756  0.00  0.00    -0.203 NA
ATOM      6  C   UNL     1      34.309 -19.949 -20.587  0.00  0.00    +0.099 C 
ATOM      7  C   UNL     1      34.911 -21.094 -19.840  0.00  0.00    +0.151 C 
ATOM      8  C   UNL     1      33.007 -20.282 -20.611  0.00  0.00    +0.088 C 
ATOM      9  C   UNL     1      35.149 -18.844 -21.059  0.00  0.00    -0.010 C 
ATOM     10  C   UNL     1      36.916 -20.072 -20.108  0.00  0.00    +0.261 C 
ATOM     11  H   UNL     1      34.018 -22.807 -18.970  0.00  0.00    +0.171 HD
ATOM     12  H   UNL     1      31.893 -21.924 -19.927  0.00  0.00    +0.170 HD
ENDROOT
TORSDOF 0
ENDMDL
MODEL 4
REMARK VINA RESULT:      -5.8      6.294      7.117
REMARK  Name = 667510
REMARK  0 active torsions:
REMARK  status: ('A' for Active; 'I' for Inactive)
REMARK                            x       y       z     vdW  Elec       q    Type
REMARK                         _______ _______ _______ _____ _____    ______ ____
ROOT
ATOM      1  S   UNL     1      33.789 -22.908 -18.385  0.00  0.00    +0.011 S 
ATOM      2  N   UNL     1      36.212 -19.142 -20.866  0.00  0.00    -0.250 N 
ATOM      3  N   UNL     1      37.048 -19.937 -20.184  0.00  0.00    -0.262 N 
ATOM      4  N   UNL     1      33.810 -19.273 -21.168  0.00  0.00    -0.227 NA
ATOM      5  N   UNL     1      32.673 -21.053 -20.002  0.00  0.00    -0.203 NA
ATOM      6  C   UNL     1      35.025 -20.847 -19.790  0.00  0.00    +0.099 C 
ATOM      7  C   UNL     1      34.946 -19.657 -20.691  0.00  0.00    +0.151 C 
ATOM      8  C   UNL     1      36.341 -20.919 -19.532  0.00  0.00    +0.088 C 
ATOM      9  C   UNL     1      33.810 -21.577 -19.414  0.00  0.00    -0.010 C 
ATOM     10  C   UNL     1      32.710 -20.015 -20.788  0.00  0.00    +0.261 C 
ATOM     11  H   UNL     1      36.455 -18.344 -21.390  0.00  0.00    +0.171 HD
ATOM     12  H   UNL     1      38.026 -19.832 -20.154  0.00  0.00    +0.170 HD
ENDROOT
TORSDOF 0
ENDMDL
MODEL 5
REMARK VINA RESULT:      -5.8      2.305      2.920
REMARK  Name = 667510
REMARK  0 active torsions:
REMARK  status: ('A' for Active; 'I' for Inactive)
REMARK                            x       y       z     vdW  Elec       q    Type
REMARK                         _______ _______ _______ _____ _____    ______ ____
ROOT
ATOM      1  S   UNL     1      34.477 -18.087 -24.968  0.00  0.00    +0.011 S 
ATOM      2  N   UNL     1      33.961 -13.292 -23.250  0.00  0.00    -0.250 N 
ATOM      3  N   UNL     1      34.569 -14.098 -22.368  0.00  0.00    -0.262 N 
ATOM      4  N   UNL     1      33.178 -13.731 -25.503  0.00  0.00    -0.227 NA
ATOM      5  N   UNL     1      33.430 -15.990 -26.310  0.00  0.00    -0.203 NA
ATOM      6  C   UNL     1      34.179 -15.450 -24.128  0.00  0.00    +0.099 C 
ATOM      7  C   UNL     1      33.713 -14.052 -24.373  0.00  0.00    +0.151 C 
ATOM      8  C   UNL     1      34.670 -15.369 -22.879  0.00  0.00    +0.088 C 
ATOM      9  C   UNL     1      34.012 -16.482 -25.156  0.00  0.00    -0.010 C 
ATOM     10  C   UNL     1      33.067 -14.745 -26.432  0.00  0.00    +0.261 C 
ATOM     11  H   UNL     1      33.735 -12.342 -23.121  0.00  0.00    +0.171 HD
ATOM     12  H   UNL     1      34.897 -13.818 -21.483  0.00  0.00    +0.170 HD
ENDROOT
TORSDOF 0
ENDMDL
MODEL 6
REMARK VINA RESULT:      -5.7      1.735      2.573
REMARK  Name = 667510
REMARK  0 active torsions:
REMARK  status: ('A' for Active; 'I' for Inactive)
REMARK                            x       y       z     vdW  Elec       q    Type
REMARK                         _______ _______ _______ _____ _____    ______ ____
ROOT
ATOM      1  S   UNL     1      33.001 -14.415 -26.316  0.00  0.00    +0.011 S 
ATOM      2  N   UNL     1      34.945 -16.069 -21.878  0.00  0.00    -0.250 N 
ATOM      3  N   UNL     1      34.428 -14.836 -21.792  0.00  0.00    -0.262 N 
ATOM      4  N   UNL     1      35.011 -17.620 -23.740  0.00  0.00    -0.227 NA
ATOM      5  N   UNL     1      34.088 -16.839 -25.827  0.00  0.00    -0.203 NA
ATOM      6  C   UNL     1      34.056 -15.408 -23.939  0.00  0.00    +0.099 C 
ATOM      7  C   UNL     1      34.730 -16.497 -23.171  0.00  0.00    +0.151 C 
ATOM      8  C   UNL     1      33.932 -14.443 -23.012  0.00  0.00    +0.088 C 
ATOM      9  C   UNL     1      33.731 -15.589 -25.358  0.00  0.00    -0.010 C 
ATOM     10  C   UNL     1      34.663 -17.731 -25.070  0.00  0.00    +0.261 C 
ATOM     11  H   UNL     1      35.393 -16.571 -21.159  0.00  0.00    +0.171 HD
ATOM     12  H   UNL     1      34.405 -14.290 -20.973  0.00  0.00    +0.170 HD
ENDROOT
TORSDOF 0
ENDMDL
MODEL 7
REMARK VINA RESULT:      -5.7      6.704      8.064
REMARK  Name = 667510
REMARK  0 active torsions:
REMARK  status: ('A' for Active; 'I' for Inactive)
REMARK                            x       y       z     vdW  Elec       q    Type
REMARK                         _______ _______ _______ _____ _____    ______ ____
ROOT
ATOM      1  S   UNL     1      33.372 -23.099 -17.931  0.00  0.00    +0.011 S 
ATOM      2  N   UNL     1      34.609 -19.443 -21.295  0.00  0.00    -0.250 N 
ATOM      3  N   UNL     1      33.292 -19.690 -21.256  0.00  0.00    -0.262 N 
ATOM      4  N   UNL     1      36.424 -20.374 -19.985  0.00  0.00    -0.227 NA
ATOM      5  N   UNL     1      35.835 -22.092 -18.396  0.00  0.00    -0.203 NA
ATOM      6  C   UNL     1      34.133 -21.102 -19.715  0.00  0.00    +0.099 C 
ATOM      7  C   UNL     1      35.191 -20.261 -20.351  0.00  0.00    +0.151 C 
ATOM      8  C   UNL     1      33.023 -20.684 -20.346  0.00  0.00    +0.088 C 
ATOM      9  C   UNL     1      34.483 -22.086 -18.686  0.00  0.00    -0.010 C 
ATOM     10  C   UNL     1      36.681 -21.306 -19.001  0.00  0.00    +0.261 C 
ATOM     11  H   UNL     1      35.070 -18.803 -21.884  0.00  0.00    +0.171 HD
ATOM     12  H   UNL     1      32.615 -19.226 -21.800  0.00  0.00    +0.170 HD
ENDROOT
TORSDOF 0
ENDMDL
MODEL 8
REMARK VINA RESULT:      -5.7      1.350      3.062
REMARK  Name = 667510
REMARK  0 active torsions:
REMARK  status: ('A' for Active; 'I' for Inactive)
REMARK                            x       y       z     vdW  Elec       q    Type
REMARK                         _______ _______ _______ _____ _____    ______ ____
ROOT
ATOM      1  S   UNL     1      34.491 -15.404 -21.307  0.00  0.00    +0.011 S 
ATOM      2  N   UNL     1      33.197 -15.179 -26.255  0.00  0.00    -0.250 N 
ATOM      3  N   UNL     1      32.861 -14.071 -25.579  0.00  0.00    -0.262 N 
ATOM      4  N   UNL     1      34.374 -17.170 -25.528  0.00  0.00    -0.227 NA
ATOM      5  N   UNL     1      34.987 -17.269 -23.197  0.00  0.00    -0.203 NA
ATOM      6  C   UNL     1      33.850 -15.357 -24.015  0.00  0.00    +0.099 C 
ATOM      7  C   UNL     1      33.836 -16.009 -25.360  0.00  0.00    +0.151 C 
ATOM      8  C   UNL     1      33.223 -14.194 -24.259  0.00  0.00    +0.088 C 
ATOM      9  C   UNL     1      34.450 -16.039 -22.864  0.00  0.00    -0.010 C 
ATOM     10  C   UNL     1      34.936 -17.747 -24.408  0.00  0.00    +0.261 C 
ATOM     11  H   UNL     1      33.022 -15.363 -27.206  0.00  0.00    +0.171 HD
ATOM     12  H   UNL     1      32.419 -13.284 -25.971  0.00  0.00    +0.170 HD
ENDROOT
TORSDOF 0
ENDMDL
MODEL 9
REMARK VINA RESULT:      -5.6      3.265      4.450
REMARK  Name = 667510
REMARK  0 active torsions:
REMARK  status: ('A' for Active; 'I' for Inactive)
REMARK                            x       y       z     vdW  Elec       q    Type
REMARK                         _______ _______ _______ _____ _____    ______ ____
ROOT
ATOM      1  S   UNL     1      35.428 -20.006 -20.782  0.00  0.00    +0.011 S 
ATOM      2  N   UNL     1      34.513 -16.968 -24.799  0.00  0.00    -0.250 N 
ATOM      3  N   UNL     1      34.566 -18.266 -25.130  0.00  0.00    -0.262 N 
ATOM      4  N   UNL     1      34.687 -15.887 -22.636  0.00  0.00    -0.227 NA
ATOM      5  N   UNL     1      35.112 -17.324 -20.745  0.00  0.00    -0.203 NA
ATOM      6  C   UNL     1      34.905 -18.281 -22.903  0.00  0.00    +0.099 C 
ATOM      7  C   UNL     1      34.689 -16.902 -23.434  0.00  0.00    +0.151 C 
ATOM      8  C   UNL     1      34.824 -19.029 -24.016  0.00  0.00    +0.088 C 
ATOM      9  C   UNL     1      35.146 -18.499 -21.473  0.00  0.00    -0.010 C 
ATOM     10  C   UNL     1      34.902 -16.165 -21.302  0.00  0.00    +0.261 C 
ATOM     11  H   UNL     1      34.376 -16.210 -25.412  0.00  0.00    +0.171 HD
ATOM     12  H   UNL     1      34.438 -18.621 -26.039  0.00  0.00    +0.170 HD
ENDROOT
TORSDOF 0
ENDMDL
