MODEL 1
REMARK VINA RESULT:      -9.0      0.000      0.000
REMARK  Name = 9926791
REMARK  3 active torsions:
REMARK  status: ('A' for Active; 'I' for Inactive)
REMARK    1  A    between atoms: N_1  and  C_15
REMARK    2  A    between atoms: C_21  and  C_22
REMARK    3  A    between atoms: C_22  and  C_24
REMARK                            x       y       z     vdW  Elec       q    Type
REMARK                         _______ _______ _______ _____ _____    ______ ____
ROOT
ATOM      1  N   UNL     1      34.665 -24.527 -14.180  0.00  0.00    -0.294 N 
ATOM      2  N   UNL     1      35.825 -26.282 -15.309  0.00  0.00    -0.233 NA
ATOM      3  N   UNL     1      39.130 -25.410 -13.155  0.00  0.00    -0.300 N 
ATOM      4  N   UNL     1      38.154 -26.823 -14.848  0.00  0.00    -0.233 NA
ATOM      5  C   UNL     1      35.823 -25.280 -14.393  0.00  0.00    +0.116 C 
ATOM      6  C   UNL     1      34.383 -23.956 -12.866  0.00  0.00    +0.113 C 
ATOM      7  C   UNL     1      36.994 -25.021 -13.675  0.00  0.00    +0.131 C 
ATOM      8  C   UNL     1      38.096 -25.820 -13.954  0.00  0.00    +0.117 C 
ATOM      9  C   UNL     1      37.395 -24.102 -12.670  0.00  0.00    +0.004 C 
ATOM     10  C   UNL     1      36.971 -26.979 -15.477  0.00  0.00    +0.252 C 
ATOM     11  C   UNL     1      38.714 -24.365 -12.370  0.00  0.00    +0.059 C 
ATOM     12  H   UNL     1      40.032 -25.805 -13.146  0.00  0.00    +0.153 HD
ENDROOT
BRANCH   1  15
ATOM     13  O   UNL     1      29.769 -23.932 -14.573  0.00  0.00    -0.274 OA
ATOM     14  N   UNL     1      31.587 -23.181 -15.811  0.00  0.00    -0.277 N 
ATOM     15  C   UNL     1      33.711 -24.304 -15.244  0.00  0.00    +0.094 C 
ATOM     16  C   UNL     1      34.394 -23.687 -16.483  0.00  0.00    +0.022 C 
ATOM     17  C   UNL     1      33.327 -23.409 -17.557  0.00  0.00    +0.023 C 
ATOM     18  C   UNL     1      32.547 -23.448 -14.737  0.00  0.00    +0.113 C 
ATOM     19  C   UNL     1      32.157 -22.580 -17.024  0.00  0.00    +0.094 C 
ATOM     20  C   UNL     1      35.205 -22.421 -16.177  0.00  0.00    +0.002 C 
ATOM     21  C   UNL     1      30.230 -23.426 -15.599  0.00  0.00    +0.241 C 
BRANCH  21  22
ATOM     22  C   UNL     1      29.290 -23.041 -16.715  0.00  0.00    +0.190 C 
BRANCH  22  24
ATOM     23  N   UNL     1      26.932 -22.470 -15.733  0.00  0.00    -0.195 NA
ATOM     24  C   UNL     1      27.981 -22.722 -16.159  0.00  0.00    +0.083 C 
ENDBRANCH  22  24
ENDBRANCH  21  22
ENDBRANCH   1  15
TORSDOF 3
ENDMDL
MODEL 2
REMARK VINA RESULT:      -8.3      8.608     10.375
REMARK  Name = 9926791
REMARK  3 active torsions:
REMARK  status: ('A' for Active; 'I' for Inactive)
REMARK    1  A    between atoms: N_1  and  C_15
REMARK    2  A    between atoms: C_21  and  C_22
REMARK    3  A    between atoms: C_22  and  C_24
REMARK                            x       y       z     vdW  Elec       q    Type
REMARK                         _______ _______ _______ _____ _____    ______ ____
ROOT
ATOM      1  N   UNL     1      34.765 -18.488 -21.436  0.00  0.00    -0.294 N 
ATOM      2  N   UNL     1      32.917 -19.914 -20.932  0.00  0.00    -0.233 NA
ATOM      3  N   UNL     1      35.393 -22.267 -18.774  0.00  0.00    -0.300 N 
ATOM      4  N   UNL     1      33.139 -21.909 -19.554  0.00  0.00    -0.233 NA
ATOM      5  C   UNL     1      34.237 -19.621 -20.810  0.00  0.00    +0.116 C 
ATOM      6  C   UNL     1      35.899 -17.778 -20.852  0.00  0.00    +0.113 C 
ATOM      7  C   UNL     1      35.050 -20.469 -20.051  0.00  0.00    +0.131 C 
ATOM      8  C   UNL     1      34.438 -21.571 -19.466  0.00  0.00    +0.117 C 
ATOM      9  C   UNL     1      36.421 -20.518 -19.690  0.00  0.00    +0.004 C 
ATOM     10  C   UNL     1      32.458 -21.021 -20.307  0.00  0.00    +0.252 C 
ATOM     11  C   UNL     1      36.603 -21.635 -18.904  0.00  0.00    +0.059 C 
ATOM     12  H   UNL     1      35.235 -23.094 -18.263  0.00  0.00    +0.153 HD
ENDROOT
BRANCH   1  15
ATOM     13  O   UNL     1      33.283 -14.106 -23.193  0.00  0.00    -0.274 OA
ATOM     14  N   UNL     1      34.141 -16.029 -24.178  0.00  0.00    -0.277 N 
ATOM     15  C   UNL     1      34.198 -17.981 -22.667  0.00  0.00    +0.094 C 
ATOM     16  C   UNL     1      34.516 -18.917 -23.852  0.00  0.00    +0.022 C 
ATOM     17  C   UNL     1      33.950 -18.300 -25.144  0.00  0.00    +0.023 C 
ATOM     18  C   UNL     1      34.676 -16.548 -22.916  0.00  0.00    +0.113 C 
ATOM     19  C   UNL     1      34.412 -16.858 -25.360  0.00  0.00    +0.094 C 
ATOM     20  C   UNL     1      36.008 -19.236 -24.007  0.00  0.00    +0.002 C 
ATOM     21  C   UNL     1      33.503 -14.789 -24.197  0.00  0.00    +0.241 C 
BRANCH  21  22
ATOM     22  C   UNL     1      33.059 -14.277 -25.545  0.00  0.00    +0.190 C 
BRANCH  22  24
ATOM     23  N   UNL     1      33.838 -11.792 -25.818  0.00  0.00    -0.195 NA
ATOM     24  C   UNL     1      33.485 -12.892 -25.702  0.00  0.00    +0.083 C 
ENDBRANCH  22  24
ENDBRANCH  21  22
ENDBRANCH   1  15
TORSDOF 3
ENDMDL
MODEL 3
REMARK VINA RESULT:      -8.2      7.864     10.933
REMARK  Name = 9926791
REMARK  3 active torsions:
REMARK  status: ('A' for Active; 'I' for Inactive)
REMARK    1  A    between atoms: N_1  and  C_15
REMARK    2  A    between atoms: C_21  and  C_22
REMARK    3  A    between atoms: C_22  and  C_24
REMARK                            x       y       z     vdW  Elec       q    Type
REMARK                         _______ _______ _______ _____ _____    ______ ____
ROOT
ATOM      1  N   UNL     1      34.196 -17.273 -22.195  0.00  0.00    -0.294 N 
ATOM      2  N   UNL     1      33.030 -15.973 -20.566  0.00  0.00    -0.233 NA
ATOM      3  N   UNL     1      33.228 -12.789 -23.046  0.00  0.00    -0.300 N 
ATOM      4  N   UNL     1      32.478 -13.628 -20.913  0.00  0.00    -0.233 NA
ATOM      5  C   UNL     1      33.631 -16.064 -21.780  0.00  0.00    +0.116 C 
ATOM      6  C   UNL     1      34.237 -17.626 -23.611  0.00  0.00    +0.113 C 
ATOM      7  C   UNL     1      33.671 -14.931 -22.599  0.00  0.00    +0.131 C 
ATOM      8  C   UNL     1      33.084 -13.773 -22.104  0.00  0.00    +0.117 C 
ATOM      9  C   UNL     1      34.182 -14.617 -23.886  0.00  0.00    +0.004 C 
ATOM     10  C   UNL     1      32.500 -14.781 -20.213  0.00  0.00    +0.252 C 
ATOM     11  C   UNL     1      33.895 -13.292 -24.133  0.00  0.00    +0.059 C 
ATOM     12  H   UNL     1      32.903 -11.864 -22.955  0.00  0.00    +0.153 HD
ENDROOT
BRANCH   1  15
ATOM     13  O   UNL     1      32.512 -21.055 -19.485  0.00  0.00    -0.274 OA
ATOM     14  N   UNL     1      34.579 -20.532 -20.410  0.00  0.00    -0.277 N 
ATOM     15  C   UNL     1      34.741 -18.211 -21.238  0.00  0.00    +0.094 C 
ATOM     16  C   UNL     1      36.268 -18.355 -21.409  0.00  0.00    +0.022 C 
ATOM     17  C   UNL     1      36.786 -19.411 -20.415  0.00  0.00    +0.023 C 
ATOM     18  C   UNL     1      34.017 -19.556 -21.347  0.00  0.00    +0.113 C 
ATOM     19  C   UNL     1      36.030 -20.736 -20.517  0.00  0.00    +0.094 C 
ATOM     20  C   UNL     1      36.702 -18.692 -22.841  0.00  0.00    +0.002 C 
ATOM     21  C   UNL     1      33.729 -21.241 -19.561  0.00  0.00    +0.241 C 
BRANCH  21  22
ATOM     22  C   UNL     1      34.368 -22.294 -18.690  0.00  0.00    +0.190 C 
BRANCH  22  24
ATOM     23  N   UNL     1      32.583 -23.285 -17.050  0.00  0.00    -0.195 NA
ATOM     24  C   UNL     1      33.368 -22.847 -17.784  0.00  0.00    +0.083 C 
ENDBRANCH  22  24
ENDBRANCH  21  22
ENDBRANCH   1  15
TORSDOF 3
ENDMDL
MODEL 4
REMARK VINA RESULT:      -8.2      2.346      7.352
REMARK  Name = 9926791
REMARK  3 active torsions:
REMARK  status: ('A' for Active; 'I' for Inactive)
REMARK    1  A    between atoms: N_1  and  C_15
REMARK    2  A    between atoms: C_21  and  C_22
REMARK    3  A    between atoms: C_22  and  C_24
REMARK                            x       y       z     vdW  Elec       q    Type
REMARK                         _______ _______ _______ _____ _____    ______ ____
ROOT
ATOM      1  N   UNL     1      33.759 -23.504 -16.016  0.00  0.00    -0.294 N 
ATOM      2  N   UNL     1      32.838 -24.626 -14.120  0.00  0.00    -0.233 NA
ATOM      3  N   UNL     1      29.151 -23.460 -15.291  0.00  0.00    -0.300 N 
ATOM      4  N   UNL     1      30.449 -24.662 -13.652  0.00  0.00    -0.233 NA
ATOM      5  C   UNL     1      32.659 -23.882 -15.241  0.00  0.00    +0.116 C 
ATOM      6  C   UNL     1      33.624 -23.323 -17.459  0.00  0.00    +0.113 C 
ATOM      7  C   UNL     1      31.361 -23.505 -15.601  0.00  0.00    +0.131 C 
ATOM      8  C   UNL     1      30.329 -23.927 -14.771  0.00  0.00    +0.117 C 
ATOM      9  C   UNL     1      30.767 -22.760 -16.653  0.00  0.00    +0.004 C 
ATOM     10  C   UNL     1      31.740 -24.964 -13.407  0.00  0.00    +0.252 C 
ATOM     11  C   UNL     1      29.406 -22.749 -16.435  0.00  0.00    +0.059 C 
ATOM     12  H   UNL     1      28.259 -23.611 -14.902  0.00  0.00    +0.153 HD
ENDROOT
BRANCH   1  15
ATOM     13  O   UNL     1      36.994 -26.171 -13.389  0.00  0.00    -0.274 OA
ATOM     14  N   UNL     1      37.202 -24.396 -14.875  0.00  0.00    -0.277 N 
ATOM     15  C   UNL     1      35.060 -23.295 -15.417  0.00  0.00    +0.094 C 
ATOM     16  C   UNL     1      35.805 -22.130 -16.101  0.00  0.00    +0.022 C 
ATOM     17  C   UNL     1      37.205 -21.993 -15.473  0.00  0.00    +0.023 C 
ATOM     18  C   UNL     1      35.867 -24.596 -15.445  0.00  0.00    +0.113 C 
ATOM     19  C   UNL     1      37.984 -23.310 -15.481  0.00  0.00    +0.094 C 
ATOM     20  C   UNL     1      35.901 -22.265 -17.626  0.00  0.00    +0.002 C 
ATOM     21  C   UNL     1      37.667 -25.264 -13.886  0.00  0.00    +0.241 C 
BRANCH  21  22
ATOM     22  C   UNL     1      39.083 -25.054 -13.412  0.00  0.00    +0.190 C 
BRANCH  22  24
ATOM     23  N   UNL     1      40.724 -26.511 -14.841  0.00  0.00    -0.195 NA
ATOM     24  C   UNL     1      39.989 -25.870 -14.211  0.00  0.00    +0.083 C 
ENDBRANCH  22  24
ENDBRANCH  21  22
ENDBRANCH   1  15
TORSDOF 3
ENDMDL
MODEL 5
REMARK VINA RESULT:      -7.9      2.429      3.456
REMARK  Name = 9926791
REMARK  3 active torsions:
REMARK  status: ('A' for Active; 'I' for Inactive)
REMARK    1  A    between atoms: N_1  and  C_15
REMARK    2  A    between atoms: C_21  and  C_22
REMARK    3  A    between atoms: C_22  and  C_24
REMARK                            x       y       z     vdW  Elec       q    Type
REMARK                         _______ _______ _______ _____ _____    ______ ____
ROOT
ATOM      1  N   UNL     1      35.041 -23.959 -13.810  0.00  0.00    -0.294 N 
ATOM      2  N   UNL     1      35.624 -25.715 -15.318  0.00  0.00    -0.233 NA
ATOM      3  N   UNL     1      39.110 -26.190 -13.331  0.00  0.00    -0.300 N 
ATOM      4  N   UNL     1      37.722 -26.941 -15.154  0.00  0.00    -0.233 NA
ATOM      5  C   UNL     1      35.934 -24.942 -14.246  0.00  0.00    +0.116 C 
ATOM      6  C   UNL     1      34.975 -23.591 -12.398  0.00  0.00    +0.113 C 
ATOM      7  C   UNL     1      37.154 -25.148 -13.595  0.00  0.00    +0.131 C 
ATOM      8  C   UNL     1      37.977 -26.148 -14.099  0.00  0.00    +0.117 C 
ATOM      9  C   UNL     1      37.829 -24.579 -12.484  0.00  0.00    +0.004 C 
ATOM     10  C   UNL     1      36.522 -26.651 -15.699  0.00  0.00    +0.252 C 
ATOM     11  C   UNL     1      39.030 -25.240 -12.346  0.00  0.00    +0.059 C 
ATOM     12  H   UNL     1      39.865 -26.808 -13.466  0.00  0.00    +0.153 HD
ENDROOT
BRANCH   1  15
ATOM     13  O   UNL     1      35.238 -22.361 -18.488  0.00  0.00    -0.274 OA
ATOM     14  N   UNL     1      33.521 -23.115 -17.115  0.00  0.00    -0.277 N 
ATOM     15  C   UNL     1      34.153 -23.290 -14.735  0.00  0.00    +0.094 C 
ATOM     16  C   UNL     1      32.677 -23.496 -14.335  0.00  0.00    +0.022 C 
ATOM     17  C   UNL     1      31.774 -22.824 -15.385  0.00  0.00    +0.023 C 
ATOM     18  C   UNL     1      34.435 -23.755 -16.166  0.00  0.00    +0.113 C 
ATOM     19  C   UNL     1      32.092 -23.276 -16.811  0.00  0.00    +0.094 C 
ATOM     20  C   UNL     1      32.287 -24.967 -14.140  0.00  0.00    +0.002 C 
ATOM     21  C   UNL     1      34.033 -22.486 -18.250  0.00  0.00    +0.241 C 
BRANCH  21  22
ATOM     22  C   UNL     1      33.029 -21.930 -19.228  0.00  0.00    +0.190 C 
BRANCH  22  24
ATOM     23  N   UNL     1      34.108 -19.955 -20.565  0.00  0.00    -0.195 NA
ATOM     24  C   UNL     1      33.628 -20.825 -19.965  0.00  0.00    +0.083 C 
ENDBRANCH  22  24
ENDBRANCH  21  22
ENDBRANCH   1  15
TORSDOF 3
ENDMDL
MODEL 6
REMARK VINA RESULT:      -7.8     15.071     17.177
REMARK  Name = 9926791
REMARK  3 active torsions:
REMARK  status: ('A' for Active; 'I' for Inactive)
REMARK    1  A    between atoms: N_1  and  C_15
REMARK    2  A    between atoms: C_21  and  C_22
REMARK    3  A    between atoms: C_22  and  C_24
REMARK                            x       y       z     vdW  Elec       q    Type
REMARK                         _______ _______ _______ _____ _____    ______ ____
ROOT
ATOM      1  N   UNL     1      31.885 -10.657 -22.085  0.00  0.00    -0.294 N 
ATOM      2  N   UNL     1      33.237 -11.045 -24.015  0.00  0.00    -0.233 NA
ATOM      3  N   UNL     1      33.433 -14.957 -23.024  0.00  0.00    -0.300 N 
ATOM      4  N   UNL     1      34.094 -13.249 -24.593  0.00  0.00    -0.233 NA
ATOM      5  C   UNL     1      32.613 -11.522 -22.908  0.00  0.00    +0.116 C 
ATOM      6  C   UNL     1      30.724 -11.141 -21.343  0.00  0.00    +0.113 C 
ATOM      7  C   UNL     1      32.713 -12.885 -22.611  0.00  0.00    +0.131 C 
ATOM      8  C   UNL     1      33.457 -13.668 -23.486  0.00  0.00    +0.117 C 
ATOM      9  C   UNL     1      32.230 -13.748 -21.593  0.00  0.00    +0.004 C 
ATOM     10  C   UNL     1      33.927 -11.923 -24.776  0.00  0.00    +0.252 C 
ATOM     11  C   UNL     1      32.690 -15.017 -21.873  0.00  0.00    +0.059 C 
ATOM     12  H   UNL     1      33.881 -15.722 -23.453  0.00  0.00    +0.153 HD
ENDROOT
BRANCH   1  15
ATOM     13  O   UNL     1      31.109  -6.471 -24.606  0.00  0.00    -0.274 OA
ATOM     14  N   UNL     1      31.475  -6.955 -22.362  0.00  0.00    -0.277 N 
ATOM     15  C   UNL     1      32.251  -9.263 -21.956  0.00  0.00    +0.094 C 
ATOM     16  C   UNL     1      32.596  -8.914 -20.492  0.00  0.00    +0.022 C 
ATOM     17  C   UNL     1      32.912  -7.410 -20.398  0.00  0.00    +0.023 C 
ATOM     18  C   UNL     1      31.139  -8.373 -22.517  0.00  0.00    +0.113 C 
ATOM     19  C   UNL     1      31.805  -6.537 -20.993  0.00  0.00    +0.094 C 
ATOM     20  C   UNL     1      31.506  -9.308 -19.487  0.00  0.00    +0.002 C 
ATOM     21  C   UNL     1      31.387  -6.101 -23.462  0.00  0.00    +0.241 C 
BRANCH  21  22
ATOM     22  C   UNL     1      31.658  -4.639 -23.207  0.00  0.00    +0.190 C 
BRANCH  22  24
ATOM     23  N   UNL     1      30.383  -3.182 -24.969  0.00  0.00    -0.195 NA
ATOM     24  C   UNL     1      30.950  -3.835 -24.195  0.00  0.00    +0.083 C 
ENDBRANCH  22  24
ENDBRANCH  21  22
ENDBRANCH   1  15
TORSDOF 3
ENDMDL
MODEL 7
REMARK VINA RESULT:      -7.6     10.928     13.886
REMARK  Name = 9926791
REMARK  3 active torsions:
REMARK  status: ('A' for Active; 'I' for Inactive)
REMARK    1  A    between atoms: N_1  and  C_15
REMARK    2  A    between atoms: C_21  and  C_22
REMARK    3  A    between atoms: C_22  and  C_24
REMARK                            x       y       z     vdW  Elec       q    Type
REMARK                         _______ _______ _______ _____ _____    ______ ____
ROOT
ATOM      1  N   UNL     1      33.294 -13.916 -23.390  0.00  0.00    -0.294 N 
ATOM      2  N   UNL     1      31.745 -12.828 -21.935  0.00  0.00    -0.233 NA
ATOM      3  N   UNL     1      32.971  -9.262 -23.386  0.00  0.00    -0.300 N 
ATOM      4  N   UNL     1      31.500 -10.407 -21.856  0.00  0.00    -0.233 NA
ATOM      5  C   UNL     1      32.707 -12.751 -22.889  0.00  0.00    +0.116 C 
ATOM      6  C   UNL     1      33.779 -13.971 -24.766  0.00  0.00    +0.113 C 
ATOM      7  C   UNL     1      33.094 -11.491 -23.357  0.00  0.00    +0.131 C 
ATOM      8  C   UNL     1      32.456 -10.388 -22.801  0.00  0.00    +0.117 C 
ATOM      9  C   UNL     1      34.023 -10.994 -24.308  0.00  0.00    +0.004 C 
ATOM     10  C   UNL     1      31.210 -11.671 -21.485  0.00  0.00    +0.252 C 
ATOM     11  C   UNL     1      33.926  -9.619 -24.304  0.00  0.00    +0.059 C 
ATOM     12  H   UNL     1      32.698  -8.339 -23.179  0.00  0.00    +0.153 HD
ENDROOT
BRANCH   1  15
ATOM     13  O   UNL     1      34.226 -18.722 -24.106  0.00  0.00    -0.274 OA
ATOM     14  N   UNL     1      34.617 -17.250 -22.350  0.00  0.00    -0.277 N 
ATOM     15  C   UNL     1      33.425 -15.100 -22.569  0.00  0.00    +0.094 C 
ATOM     16  C   UNL     1      33.779 -14.730 -21.112  0.00  0.00    +0.022 C 
ATOM     17  C   UNL     1      33.972 -16.022 -20.299  0.00  0.00    +0.023 C 
ATOM     18  C   UNL     1      34.445 -16.060 -23.187  0.00  0.00    +0.113 C 
ATOM     19  C   UNL     1      34.970 -16.983 -20.949  0.00  0.00    +0.094 C 
ATOM     20  C   UNL     1      35.005 -13.816 -20.986  0.00  0.00    +0.002 C 
ATOM     21  C   UNL     1      34.523 -18.518 -22.926  0.00  0.00    +0.241 C 
BRANCH  21  22
ATOM     22  C   UNL     1      34.804 -19.693 -22.023  0.00  0.00    +0.190 C 
BRANCH  22  24
ATOM     23  N   UNL     1      32.708 -20.192 -20.536  0.00  0.00    -0.195 NA
ATOM     24  C   UNL     1      33.632 -19.965 -21.201  0.00  0.00    +0.083 C 
ENDBRANCH  22  24
ENDBRANCH  21  22
ENDBRANCH   1  15
TORSDOF 3
ENDMDL
MODEL 8
REMARK VINA RESULT:      -7.2     11.271     14.217
REMARK  Name = 9926791
REMARK  3 active torsions:
REMARK  status: ('A' for Active; 'I' for Inactive)
REMARK    1  A    between atoms: N_1  and  C_15
REMARK    2  A    between atoms: C_21  and  C_22
REMARK    3  A    between atoms: C_22  and  C_24
REMARK                            x       y       z     vdW  Elec       q    Type
REMARK                         _______ _______ _______ _____ _____    ______ ____
ROOT
ATOM      1  N   UNL     1      33.616 -13.293 -24.290  0.00  0.00    -0.294 N 
ATOM      2  N   UNL     1      32.395 -13.443 -22.244  0.00  0.00    -0.233 NA
ATOM      3  N   UNL     1      32.114  -9.413 -22.178  0.00  0.00    -0.300 N 
ATOM      4  N   UNL     1      31.569 -11.481 -21.063  0.00  0.00    -0.233 NA
ATOM      5  C   UNL     1      32.941 -12.685 -23.228  0.00  0.00    +0.116 C 
ATOM      6  C   UNL     1      33.625 -12.676 -25.614  0.00  0.00    +0.113 C 
ATOM      7  C   UNL     1      32.814 -11.293 -23.157  0.00  0.00    +0.131 C 
ATOM      8  C   UNL     1      32.127 -10.778 -22.064  0.00  0.00    +0.117 C 
ATOM      9  C   UNL     1      33.223 -10.188 -23.947  0.00  0.00    +0.004 C 
ATOM     10  C   UNL     1      31.754 -12.805 -21.239  0.00  0.00    +0.252 C 
ATOM     11  C   UNL     1      32.778  -9.044 -23.320  0.00  0.00    +0.059 C 
ATOM     12  H   UNL     1      31.693  -8.794 -21.539  0.00  0.00    +0.153 HD
ENDROOT
BRANCH   1  15
ATOM     13  O   UNL     1      34.961 -16.177 -20.502  0.00  0.00    -0.274 OA
ATOM     14  N   UNL     1      34.417 -16.587 -22.724  0.00  0.00    -0.277 N 
ATOM     15  C   UNL     1      34.308 -14.551 -24.115  0.00  0.00    +0.094 C 
ATOM     16  C   UNL     1      34.243 -15.404 -25.399  0.00  0.00    +0.022 C 
ATOM     17  C   UNL     1      34.934 -16.755 -25.139  0.00  0.00    +0.023 C 
ATOM     18  C   UNL     1      33.752 -15.293 -22.897  0.00  0.00    +0.113 C 
ATOM     19  C   UNL     1      34.388 -17.467 -23.900  0.00  0.00    +0.094 C 
ATOM     20  C   UNL     1      32.820 -15.612 -25.933  0.00  0.00    +0.002 C 
ATOM     21  C   UNL     1      34.946 -16.930 -21.479  0.00  0.00    +0.241 C 
BRANCH  21  22
ATOM     22  C   UNL     1      35.533 -18.313 -21.351  0.00  0.00    +0.190 C 
BRANCH  22  24
ATOM     23  N   UNL     1      33.660 -19.977 -20.589  0.00  0.00    -0.195 NA
ATOM     24  C   UNL     1      34.493 -19.246 -20.934  0.00  0.00    +0.083 C 
ENDBRANCH  22  24
ENDBRANCH  21  22
ENDBRANCH   1  15
TORSDOF 3
ENDMDL
MODEL 9
REMARK VINA RESULT:      -7.2      2.954      4.246
REMARK  Name = 9926791
REMARK  3 active torsions:
REMARK  status: ('A' for Active; 'I' for Inactive)
REMARK    1  A    between atoms: N_1  and  C_15
REMARK    2  A    between atoms: C_21  and  C_22
REMARK    3  A    between atoms: C_22  and  C_24
REMARK                            x       y       z     vdW  Elec       q    Type
REMARK                         _______ _______ _______ _____ _____    ______ ____
ROOT
ATOM      1  N   UNL     1      33.576 -23.298 -15.380  0.00  0.00    -0.294 N 
ATOM      2  N   UNL     1      33.019 -22.925 -17.672  0.00  0.00    -0.233 NA
ATOM      3  N   UNL     1      36.816 -21.718 -18.341  0.00  0.00    -0.300 N 
ATOM      4  N   UNL     1      34.636 -22.103 -19.296  0.00  0.00    -0.233 NA
ATOM      5  C   UNL     1      33.936 -22.901 -16.671  0.00  0.00    +0.116 C 
ATOM      6  C   UNL     1      34.559 -23.911 -14.491  0.00  0.00    +0.113 C 
ATOM      7  C   UNL     1      35.237 -22.475 -16.957  0.00  0.00    +0.131 C 
ATOM      8  C   UNL     1      35.503 -22.099 -18.269  0.00  0.00    +0.117 C 
ATOM      9  C   UNL     1      36.442 -22.308 -16.227  0.00  0.00    +0.004 C 
ATOM     10  C   UNL     1      33.419 -22.531 -18.902  0.00  0.00    +0.252 C 
ATOM     11  C   UNL     1      37.397 -21.841 -17.105  0.00  0.00    +0.059 C 
ATOM     12  H   UNL     1      37.273 -21.404 -19.155  0.00  0.00    +0.153 HD
ENDROOT
BRANCH   1  15
ATOM     13  O   UNL     1      29.172 -22.115 -17.300  0.00  0.00    -0.274 OA
ATOM     14  N   UNL     1      29.844 -23.407 -15.488  0.00  0.00    -0.277 N 
ATOM     15  C   UNL     1      32.224 -23.128 -14.895  0.00  0.00    +0.094 C 
ATOM     16  C   UNL     1      32.008 -23.895 -13.573  0.00  0.00    +0.022 C 
ATOM     17  C   UNL     1      30.540 -23.737 -13.136  0.00  0.00    +0.023 C 
ATOM     18  C   UNL     1      31.220 -23.539 -15.975  0.00  0.00    +0.113 C 
ATOM     19  C   UNL     1      29.552 -24.121 -14.238  0.00  0.00    +0.094 C 
ATOM     20  C   UNL     1      32.399 -25.377 -13.646  0.00  0.00    +0.002 C 
ATOM     21  C   UNL     1      28.907 -22.709 -16.251  0.00  0.00    +0.241 C 
BRANCH  21  22
ATOM     22  C   UNL     1      27.490 -22.693 -15.734  0.00  0.00    +0.190 C 
BRANCH  22  24
ATOM     23  N   UNL     1      25.973 -21.318 -17.365  0.00  0.00    -0.195 NA
ATOM     24  C   UNL     1      26.648 -21.934 -16.649  0.00  0.00    +0.083 C 
ENDBRANCH  22  24
ENDBRANCH  21  22
ENDBRANCH   1  15
TORSDOF 3
ENDMDL
