MODEL 1
REMARK VINA RESULT:      -8.5      0.000      0.000
REMARK  Name = 23644575
REMARK  2 active torsions:
REMARK  status: ('A' for Active; 'I' for Inactive)
REMARK    1  A    between atoms: N_4  and  C_10
REMARK    2  A    between atoms: C_5  and  C_16
REMARK                            x       y       z     vdW  Elec       q    Type
REMARK                         _______ _______ _______ _____ _____    ______ ____
ROOT
ATOM      1  S   UNL     1      34.939 -15.827 -22.567  0.00  0.00    -0.049 S 
ATOM      2  O   UNL     1      34.229 -18.058 -25.596  0.00  0.00    -0.213 OA
ATOM      3  N   UNL     1      34.690 -18.287 -23.352  0.00  0.00    -0.314 NA
ATOM      4  N   UNL     1      35.153 -17.990 -21.036  0.00  0.00    -0.281 N 
ATOM      5  C   UNL     1      34.632 -16.054 -24.337  0.00  0.00    +0.173 C 
ATOM      6  C   UNL     1      34.492 -17.556 -24.507  0.00  0.00    +0.192 C 
ATOM      7  C   UNL     1      34.923 -17.558 -22.308  0.00  0.00    +0.225 C 
ATOM      8  H   UNL     1      35.313 -17.295 -20.359  0.00  0.00    +0.155 HD
ENDROOT
BRANCH   4  10
ATOM      9  F   UNL     1      32.814 -19.420 -20.585  0.00  0.00    -0.203 F 
ATOM     10  C   UNL     1      35.188 -19.315 -20.588  0.00  0.00    +0.078 C 
ATOM     11  C   UNL     1      33.998 -20.011 -20.371  0.00  0.00    +0.153 C 
ATOM     12  C   UNL     1      36.413 -19.941 -20.360  0.00  0.00    +0.017 C 
ATOM     13  C   UNL     1      34.036 -21.332 -19.923  0.00  0.00    +0.031 C 
ATOM     14  C   UNL     1      36.450 -21.262 -19.913  0.00  0.00    +0.001 C 
ATOM     15  C   UNL     1      35.261 -21.958 -19.695  0.00  0.00    +0.002 C 
ENDBRANCH   4  10
BRANCH   5  16
ATOM     16  C   UNL     1      33.374 -15.323 -24.769  0.00  0.00    +0.027 C 
ATOM     17  C   UNL     1      33.441 -14.947 -26.251  0.00  0.00    +0.002 C 
ATOM     18  C   UNL     1      33.149 -14.073 -23.916  0.00  0.00    +0.002 C 
ENDBRANCH   5  16
TORSDOF 2
ENDMDL
MODEL 2
REMARK VINA RESULT:      -8.3      3.589      7.307
REMARK  Name = 23644575
REMARK  2 active torsions:
REMARK  status: ('A' for Active; 'I' for Inactive)
REMARK    1  A    between atoms: N_4  and  C_10
REMARK    2  A    between atoms: C_5  and  C_16
REMARK                            x       y       z     vdW  Elec       q    Type
REMARK                         _______ _______ _______ _____ _____    ______ ____
ROOT
ATOM      1  S   UNL     1      34.884 -16.309 -24.053  0.00  0.00    -0.049 S 
ATOM      2  O   UNL     1      35.053 -16.373 -20.229  0.00  0.00    -0.213 OA
ATOM      3  N   UNL     1      34.338 -14.964 -21.903  0.00  0.00    -0.314 NA
ATOM      4  N   UNL     1      33.741 -13.910 -23.952  0.00  0.00    -0.281 N 
ATOM      5  C   UNL     1      35.379 -17.091 -22.496  0.00  0.00    +0.173 C 
ATOM      6  C   UNL     1      34.913 -16.124 -21.422  0.00  0.00    +0.192 C 
ATOM      7  C   UNL     1      34.258 -14.917 -23.194  0.00  0.00    +0.225 C 
ATOM      8  H   UNL     1      33.760 -14.041 -24.927  0.00  0.00    +0.155 HD
ENDROOT
BRANCH   4  10
ATOM      9  F   UNL     1      34.616 -11.458 -24.921  0.00  0.00    -0.203 F 
ATOM     10  C   UNL     1      33.187 -12.710 -23.495  0.00  0.00    +0.078 C 
ATOM     11  C   UNL     1      33.644 -11.492 -23.999  0.00  0.00    +0.153 C 
ATOM     12  C   UNL     1      32.175 -12.732 -22.535  0.00  0.00    +0.017 C 
ATOM     13  C   UNL     1      33.089 -10.296 -23.541  0.00  0.00    +0.031 C 
ATOM     14  C   UNL     1      31.621 -11.536 -22.078  0.00  0.00    +0.001 C 
ATOM     15  C   UNL     1      32.077 -10.318 -22.581  0.00  0.00    +0.002 C 
ENDBRANCH   4  10
BRANCH   5  16
ATOM     16  C   UNL     1      34.730 -18.453 -22.341  0.00  0.00    +0.027 C 
ATOM     17  C   UNL     1      35.502 -19.317 -21.341  0.00  0.00    +0.002 C 
ATOM     18  C   UNL     1      34.630 -19.168 -23.691  0.00  0.00    +0.002 C 
ENDBRANCH   5  16
TORSDOF 2
ENDMDL
MODEL 3
REMARK VINA RESULT:      -8.2      8.974     10.985
REMARK  Name = 23644575
REMARK  2 active torsions:
REMARK  status: ('A' for Active; 'I' for Inactive)
REMARK    1  A    between atoms: N_4  and  C_10
REMARK    2  A    between atoms: C_5  and  C_16
REMARK                            x       y       z     vdW  Elec       q    Type
REMARK                         _______ _______ _______ _____ _____    ______ ____
ROOT
ATOM      1  S   UNL     1      37.062 -24.299 -13.522  0.00  0.00    -0.049 S 
ATOM      2  O   UNL     1      36.825 -27.244 -15.957  0.00  0.00    -0.213 OA
ATOM      3  N   UNL     1      35.556 -25.438 -15.301  0.00  0.00    -0.314 NA
ATOM      4  N   UNL     1      34.670 -23.457 -14.323  0.00  0.00    -0.281 N 
ATOM      5  C   UNL     1      37.715 -25.831 -14.232  0.00  0.00    +0.173 C 
ATOM      6  C   UNL     1      36.670 -26.252 -15.250  0.00  0.00    +0.192 C 
ATOM      7  C   UNL     1      35.611 -24.427 -14.494  0.00  0.00    +0.225 C 
ATOM      8  H   UNL     1      34.877 -22.757 -13.663  0.00  0.00    +0.155 HD
ENDROOT
BRANCH   4  10
ATOM      9  F   UNL     1      34.540 -22.988 -17.058  0.00  0.00    -0.203 F 
ATOM     10  C   UNL     1      33.441 -23.348 -14.983  0.00  0.00    +0.078 C 
ATOM     11  C   UNL     1      33.404 -23.113 -16.357  0.00  0.00    +0.153 C 
ATOM     12  C   UNL     1      32.252 -23.474 -14.264  0.00  0.00    +0.017 C 
ATOM     13  C   UNL     1      32.177 -23.003 -17.012  0.00  0.00    +0.031 C 
ATOM     14  C   UNL     1      31.026 -23.365 -14.920  0.00  0.00    +0.001 C 
ATOM     15  C   UNL     1      30.988 -23.130 -16.294  0.00  0.00    +0.002 C 
ENDBRANCH   4  10
BRANCH   5  16
ATOM     16  C   UNL     1      39.066 -25.596 -14.883  0.00  0.00    +0.027 C 
ATOM     17  C   UNL     1      40.194 -25.703 -13.854  0.00  0.00    +0.002 C 
ATOM     18  C   UNL     1      39.109 -24.231 -15.574  0.00  0.00    +0.002 C 
ENDBRANCH   5  16
TORSDOF 2
ENDMDL
MODEL 4
REMARK VINA RESULT:      -8.1      9.632     11.330
REMARK  Name = 23644575
REMARK  2 active torsions:
REMARK  status: ('A' for Active; 'I' for Inactive)
REMARK    1  A    between atoms: N_4  and  C_10
REMARK    2  A    between atoms: C_5  and  C_16
REMARK                            x       y       z     vdW  Elec       q    Type
REMARK                         _______ _______ _______ _____ _____    ______ ____
ROOT
ATOM      1  S   UNL     1      36.843 -24.624 -13.373  0.00  0.00    -0.049 S 
ATOM      2  O   UNL     1      36.870 -27.282 -16.128  0.00  0.00    -0.213 OA
ATOM      3  N   UNL     1      35.426 -25.719 -15.250  0.00  0.00    -0.314 NA
ATOM      4  N   UNL     1      34.351 -23.975 -14.038  0.00  0.00    -0.281 N 
ATOM      5  C   UNL     1      37.644 -25.982 -14.265  0.00  0.00    +0.173 C 
ATOM      6  C   UNL     1      36.625 -26.400 -15.310  0.00  0.00    +0.192 C 
ATOM      7  C   UNL     1      35.390 -24.806 -14.333  0.00  0.00    +0.225 C 
ATOM      8  H   UNL     1      34.496 -23.335 -13.305  0.00  0.00    +0.155 HD
ENDROOT
BRANCH   4  10
ATOM      9  F   UNL     1      32.180 -25.373 -13.014  0.00  0.00    -0.203 F 
ATOM     10  C   UNL     1      33.101 -23.933 -14.663  0.00  0.00    +0.078 C 
ATOM     11  C   UNL     1      32.026 -24.643 -14.128  0.00  0.00    +0.153 C 
ATOM     12  C   UNL     1      32.928 -23.178 -15.824  0.00  0.00    +0.017 C 
ATOM     13  C   UNL     1      30.780 -24.599 -14.754  0.00  0.00    +0.031 C 
ATOM     14  C   UNL     1      31.682 -23.134 -16.449  0.00  0.00    +0.001 C 
ATOM     15  C   UNL     1      30.608 -23.844 -15.914  0.00  0.00    +0.002 C 
ENDBRANCH   4  10
BRANCH   5  16
ATOM     16  C   UNL     1      38.942 -25.522 -14.903  0.00  0.00    +0.027 C 
ATOM     17  C   UNL     1      40.109 -25.649 -13.921  0.00  0.00    +0.002 C 
ATOM     18  C   UNL     1      38.825 -24.079 -15.401  0.00  0.00    +0.002 C 
ENDBRANCH   5  16
TORSDOF 2
ENDMDL
MODEL 5
REMARK VINA RESULT:      -8.0      3.118      7.030
REMARK  Name = 23644575
REMARK  2 active torsions:
REMARK  status: ('A' for Active; 'I' for Inactive)
REMARK    1  A    between atoms: N_4  and  C_10
REMARK    2  A    between atoms: C_5  and  C_16
REMARK                            x       y       z     vdW  Elec       q    Type
REMARK                         _______ _______ _______ _____ _____    ______ ____
ROOT
ATOM      1  S   UNL     1      34.869 -16.401 -24.067  0.00  0.00    -0.049 S 
ATOM      2  O   UNL     1      35.130 -16.384 -20.248  0.00  0.00    -0.213 OA
ATOM      3  N   UNL     1      34.405 -14.996 -21.935  0.00  0.00    -0.314 NA
ATOM      4  N   UNL     1      33.782 -13.975 -23.993  0.00  0.00    -0.281 N 
ATOM      5  C   UNL     1      35.385 -17.158 -22.505  0.00  0.00    +0.173 C 
ATOM      6  C   UNL     1      34.966 -16.158 -21.443  0.00  0.00    +0.192 C 
ATOM      7  C   UNL     1      34.295 -14.976 -23.225  0.00  0.00    +0.225 C 
ATOM      8  H   UNL     1      33.774 -14.127 -24.965  0.00  0.00    +0.155 HD
ENDROOT
BRANCH   4  10
ATOM      9  F   UNL     1      31.750 -13.870 -22.101  0.00  0.00    -0.203 F 
ATOM     10  C   UNL     1      33.265 -12.752 -23.551  0.00  0.00    +0.078 C 
ATOM     11  C   UNL     1      32.245 -12.727 -22.599  0.00  0.00    +0.153 C 
ATOM     12  C   UNL     1      33.770 -11.557 -24.062  0.00  0.00    +0.017 C 
ATOM     13  C   UNL     1      31.731 -11.507 -22.160  0.00  0.00    +0.031 C 
ATOM     14  C   UNL     1      33.256 -10.337 -23.623  0.00  0.00    +0.001 C 
ATOM     15  C   UNL     1      32.237 -10.312 -22.671  0.00  0.00    +0.002 C 
ENDBRANCH   4  10
BRANCH   5  16
ATOM     16  C   UNL     1      34.710 -18.502 -22.304  0.00  0.00    +0.027 C 
ATOM     17  C   UNL     1      35.457 -19.340 -21.264  0.00  0.00    +0.002 C 
ATOM     18  C   UNL     1      34.610 -19.267 -23.626  0.00  0.00    +0.002 C 
ENDBRANCH   5  16
TORSDOF 2
ENDMDL
MODEL 6
REMARK VINA RESULT:      -7.9      9.543     11.724
REMARK  Name = 23644575
REMARK  2 active torsions:
REMARK  status: ('A' for Active; 'I' for Inactive)
REMARK    1  A    between atoms: N_4  and  C_10
REMARK    2  A    between atoms: C_5  and  C_16
REMARK                            x       y       z     vdW  Elec       q    Type
REMARK                         _______ _______ _______ _____ _____    ______ ____
ROOT
ATOM      1  S   UNL     1      36.598 -23.650 -14.254  0.00  0.00    -0.049 S 
ATOM      2  O   UNL     1      35.415 -25.163 -10.942  0.00  0.00    -0.213 OA
ATOM      3  N   UNL     1      34.501 -24.270 -12.858  0.00  0.00    -0.314 NA
ATOM      4  N   UNL     1      34.066 -23.314 -14.993  0.00  0.00    -0.281 N 
ATOM      5  C   UNL     1      36.929 -24.335 -12.611  0.00  0.00    +0.173 C 
ATOM      6  C   UNL     1      35.554 -24.638 -12.043  0.00  0.00    +0.192 C 
ATOM      7  C   UNL     1      34.871 -23.764 -13.990  0.00  0.00    +0.225 C 
ATOM      8  H   UNL     1      34.517 -22.957 -15.792  0.00  0.00    +0.155 HD
ENDROOT
BRANCH   4  10
ATOM      9  F   UNL     1      32.659 -23.060 -17.375  0.00  0.00    -0.203 F 
ATOM     10  C   UNL     1      32.667 -23.304 -15.012  0.00  0.00    +0.078 C 
ATOM     11  C   UNL     1      31.985 -23.176 -16.223  0.00  0.00    +0.153 C 
ATOM     12  C   UNL     1      31.954 -23.422 -13.819  0.00  0.00    +0.017 C 
ATOM     13  C   UNL     1      30.590 -23.165 -16.238  0.00  0.00    +0.031 C 
ATOM     14  C   UNL     1      30.559 -23.411 -13.836  0.00  0.00    +0.001 C 
ATOM     15  C   UNL     1      29.877 -23.283 -15.045  0.00  0.00    +0.002 C 
ENDBRANCH   4  10
BRANCH   5  16
ATOM     16  C   UNL     1      37.783 -25.587 -12.706  0.00  0.00    +0.027 C 
ATOM     17  C   UNL     1      39.180 -25.257 -13.234  0.00  0.00    +0.002 C 
ATOM     18  C   UNL     1      37.115 -26.637 -13.596  0.00  0.00    +0.002 C 
ENDBRANCH   5  16
TORSDOF 2
ENDMDL
MODEL 7
REMARK VINA RESULT:      -7.8      6.221      9.840
REMARK  Name = 23644575
REMARK  2 active torsions:
REMARK  status: ('A' for Active; 'I' for Inactive)
REMARK    1  A    between atoms: N_4  and  C_10
REMARK    2  A    between atoms: C_5  and  C_16
REMARK                            x       y       z     vdW  Elec       q    Type
REMARK                         _______ _______ _______ _____ _____    ______ ____
ROOT
ATOM      1  S   UNL     1      32.013 -12.638 -21.939  0.00  0.00    -0.049 S 
ATOM      2  O   UNL     1      34.309 -12.188 -24.969  0.00  0.00    -0.213 OA
ATOM      3  N   UNL     1      33.036 -10.888 -23.559  0.00  0.00    -0.314 NA
ATOM      4  N   UNL     1      31.628 -10.008 -21.853  0.00  0.00    -0.281 N 
ATOM      5  C   UNL     1      33.048 -13.311 -23.264  0.00  0.00    +0.173 C 
ATOM      6  C   UNL     1      33.536 -12.089 -24.021  0.00  0.00    +0.192 C 
ATOM      7  C   UNL     1      32.263 -11.007 -22.527  0.00  0.00    +0.225 C 
ATOM      8  H   UNL     1      31.075 -10.279 -21.085  0.00  0.00    +0.155 HD
ENDROOT
BRANCH   4  10
ATOM      9  F   UNL     1      32.807  -8.217 -20.086  0.00  0.00    -0.203 F 
ATOM     10  C   UNL     1      31.676  -8.638 -22.133  0.00  0.00    +0.078 C 
ATOM     11  C   UNL     1      32.275  -7.760 -21.229  0.00  0.00    +0.153 C 
ATOM     12  C   UNL     1      31.125  -8.150 -23.318  0.00  0.00    +0.017 C 
ATOM     13  C   UNL     1      32.321  -6.394 -21.511  0.00  0.00    +0.031 C 
ATOM     14  C   UNL     1      31.172  -6.785 -23.599  0.00  0.00    +0.001 C 
ATOM     15  C   UNL     1      31.770  -5.906 -22.696  0.00  0.00    +0.002 C 
ENDBRANCH   4  10
BRANCH   5  16
ATOM     16  C   UNL     1      34.202 -14.116 -22.696  0.00  0.00    +0.027 C 
ATOM     17  C   UNL     1      34.477 -15.356 -23.550  0.00  0.00    +0.002 C 
ATOM     18  C   UNL     1      33.925 -14.522 -21.247  0.00  0.00    +0.002 C 
ENDBRANCH   5  16
TORSDOF 2
ENDMDL
MODEL 8
REMARK VINA RESULT:      -7.8      5.141      7.184
REMARK  Name = 23644575
REMARK  2 active torsions:
REMARK  status: ('A' for Active; 'I' for Inactive)
REMARK    1  A    between atoms: N_4  and  C_10
REMARK    2  A    between atoms: C_5  and  C_16
REMARK                            x       y       z     vdW  Elec       q    Type
REMARK                         _______ _______ _______ _____ _____    ______ ____
ROOT
ATOM      1  S   UNL     1      32.125 -10.479 -22.537  0.00  0.00    -0.049 S 
ATOM      2  O   UNL     1      35.118  -9.210 -24.559  0.00  0.00    -0.213 OA
ATOM      3  N   UNL     1      34.095 -11.211 -24.060  0.00  0.00    -0.314 NA
ATOM      4  N   UNL     1      32.686 -12.968 -23.288  0.00  0.00    -0.281 N 
ATOM      5  C   UNL     1      33.223  -9.148 -23.087  0.00  0.00    +0.173 C 
ATOM      6  C   UNL     1      34.241  -9.840 -23.976  0.00  0.00    +0.192 C 
ATOM      7  C   UNL     1      33.084 -11.669 -23.393  0.00  0.00    +0.225 C 
ATOM      8  H   UNL     1      31.889 -13.139 -22.736  0.00  0.00    +0.155 HD
ENDROOT
BRANCH   4  10
ATOM      9  F   UNL     1      34.623 -14.439 -21.946  0.00  0.00    -0.203 F 
ATOM     10  C   UNL     1      33.287 -14.084 -23.878  0.00  0.00    +0.078 C 
ATOM     11  C   UNL     1      34.257 -14.807 -23.182  0.00  0.00    +0.153 C 
ATOM     12  C   UNL     1      32.915 -14.476 -25.164  0.00  0.00    +0.017 C 
ATOM     13  C   UNL     1      34.855 -15.920 -23.774  0.00  0.00    +0.031 C 
ATOM     14  C   UNL     1      33.514 -15.589 -25.755  0.00  0.00    +0.001 C 
ATOM     15  C   UNL     1      34.483 -16.312 -25.060  0.00  0.00    +0.002 C 
ENDBRANCH   4  10
BRANCH   5  16
ATOM     16  C   UNL     1      32.451  -8.084 -23.845  0.00  0.00    +0.027 C 
ATOM     17  C   UNL     1      33.033  -6.694 -23.582  0.00  0.00    +0.002 C 
ATOM     18  C   UNL     1      30.967  -8.116 -23.471  0.00  0.00    +0.002 C 
ENDBRANCH   5  16
TORSDOF 2
ENDMDL
MODEL 9
REMARK VINA RESULT:      -7.7      5.761      8.871
REMARK  Name = 23644575
REMARK  2 active torsions:
REMARK  status: ('A' for Active; 'I' for Inactive)
REMARK    1  A    between atoms: N_4  and  C_10
REMARK    2  A    between atoms: C_5  and  C_16
REMARK                            x       y       z     vdW  Elec       q    Type
REMARK                         _______ _______ _______ _____ _____    ______ ____
ROOT
ATOM      1  S   UNL     1      31.293 -23.563 -16.862  0.00  0.00    -0.049 S 
ATOM      2  O   UNL     1      34.283 -23.671 -14.474  0.00  0.00    -0.213 OA
ATOM      3  N   UNL     1      33.782 -22.888 -16.580  0.00  0.00    -0.314 NA
ATOM      4  N   UNL     1      32.775 -22.254 -18.642  0.00  0.00    -0.281 N 
ATOM      5  C   UNL     1      32.072 -24.085 -15.313  0.00  0.00    +0.173 C 
ATOM      6  C   UNL     1      33.485 -23.535 -15.397  0.00  0.00    +0.192 C 
ATOM      7  C   UNL     1      32.787 -22.827 -17.405  0.00  0.00    +0.225 C 
ATOM      8  H   UNL     1      31.926 -22.299 -19.138  0.00  0.00    +0.155 HD
ENDROOT
BRANCH   4  10
ATOM      9  F   UNL     1      32.343 -20.076 -20.310  0.00  0.00    -0.203 F 
ATOM     10  C   UNL     1      33.838 -21.610 -19.283  0.00  0.00    +0.078 C 
ATOM     11  C   UNL     1      33.594 -20.517 -20.116  0.00  0.00    +0.153 C 
ATOM     12  C   UNL     1      35.144 -22.061 -19.090  0.00  0.00    +0.017 C 
ATOM     13  C   UNL     1      34.656 -19.877 -20.755  0.00  0.00    +0.031 C 
ATOM     14  C   UNL     1      36.205 -21.421 -19.729  0.00  0.00    +0.001 C 
ATOM     15  C   UNL     1      35.962 -20.329 -20.562  0.00  0.00    +0.002 C 
ENDBRANCH   4  10
BRANCH   5  16
ATOM     16  C   UNL     1      31.326 -23.529 -14.115  0.00  0.00    +0.027 C 
ATOM     17  C   UNL     1      30.815 -24.658 -13.217  0.00  0.00    +0.002 C 
ATOM     18  C   UNL     1      30.162 -22.640 -14.560  0.00  0.00    +0.002 C 
ENDBRANCH   5  16
TORSDOF 2
ENDMDL
