MODEL 1
REMARK VINA RESULT:      -6.9      0.000      0.000
REMARK  Name = 5311000
REMARK  5 active torsions:
REMARK  status: ('A' for Active; 'I' for Inactive)
REMARK    1  A    between atoms: C_7  and  O_23
REMARK    2  A    between atoms: C_7  and  C_28
REMARK    3  A    between atoms: C_11  and  O_25
REMARK    4  A    between atoms: C_28  and  C_29
REMARK    5  A    between atoms: C_29  and  O_30
REMARK                            x       y       z     vdW  Elec       q    Type
REMARK                         _______ _______ _______ _____ _____    ______ ____
ROOT
ATOM      1 CL   UNL     1      37.368 -20.274 -17.303  0.00  0.00    -0.115 Cl
ATOM      2  O   UNL     1      33.730 -18.580 -21.203  0.00  0.00    -0.287 OA
ATOM      3  C   UNL     1      35.420 -23.840 -15.042  0.00  0.00    +0.031 C 
ATOM      4  C   UNL     1      36.388 -22.881 -15.769  0.00  0.00    +0.004 C 
ATOM      5  C   UNL     1      36.155 -22.796 -17.289  0.00  0.00    +0.018 C 
ATOM      6  C   UNL     1      34.685 -22.306 -17.564  0.00  0.00    +0.035 C 
ATOM      7  C   UNL     1      35.983 -23.714 -13.594  0.00  0.00    +0.141 C 
ATOM      8  C   UNL     1      37.767 -23.305 -15.264  0.00  0.00    +0.003 C 
ATOM      9  C   UNL     1      33.994 -23.297 -15.260  0.00  0.00    +0.032 C 
ATOM     10  C   UNL     1      37.527 -23.748 -13.797  0.00  0.00    +0.032 C 
ATOM     11  C   UNL     1      33.629 -23.123 -16.750  0.00  0.00    +0.111 C 
ATOM     12  C   UNL     1      34.386 -22.154 -19.113  0.00  0.00    +0.036 C 
ATOM     13  C   UNL     1      37.214 -21.922 -18.011  0.00  0.00    +0.084 C 
ATOM     14  C   UNL     1      35.530 -25.312 -15.527  0.00  0.00    +0.003 C 
ATOM     15  C   UNL     1      36.910 -21.796 -19.505  0.00  0.00    +0.039 C 
ATOM     16  C   UNL     1      35.501 -21.303 -19.729  0.00  0.00    -0.037 C 
ATOM     17  C   UNL     1      38.324 -22.902 -12.807  0.00  0.00    +0.003 C 
ATOM     18  C   UNL     1      34.339 -23.494 -19.882  0.00  0.00    +0.009 C 
ATOM     19  C   UNL     1      33.025 -21.503 -19.314  0.00  0.00    -0.020 C 
ATOM     20  C   UNL     1      35.285 -20.159 -20.397  0.00  0.00    +0.034 C 
ATOM     21  C   UNL     1      32.803 -20.362 -19.973  0.00  0.00    +0.038 C 
ATOM     22  C   UNL     1      33.922 -19.618 -20.578  0.00  0.00    +0.195 C 
ENDROOT
BRANCH   7  23
ATOM     23  O   UNL     1      35.539 -22.535 -12.933  0.00  0.00    -0.380 OA
ATOM     24  H   UNL     1      36.245 -22.202 -12.359  0.00  0.00    +0.211 HD
ENDBRANCH   7  23
BRANCH  11  25
ATOM     25  O   UNL     1      33.398 -24.400 -17.328  0.00  0.00    -0.384 OA
ATOM     26  H   UNL     1      34.025 -25.041 -16.956  0.00  0.00    +0.210 HD
ENDBRANCH  11  25
BRANCH   7  28
ATOM     27  O   UNL     1      34.324 -24.920 -12.382  0.00  0.00    -0.291 OA
ATOM     28  C   UNL     1      35.516 -24.788 -12.659  0.00  0.00    +0.204 C 
BRANCH  28  29
ATOM     29  C   UNL     1      36.588 -25.689 -12.085  0.00  0.00    +0.204 C 
BRANCH  29  30
ATOM     30  O   UNL     1      36.733 -26.855 -12.869  0.00  0.00    -0.375 OA
ATOM     31  H   UNL     1      36.958 -26.605 -13.779  0.00  0.00    +0.211 HD
ENDBRANCH  29  30
ENDBRANCH  28  29
ENDBRANCH   7  28
TORSDOF 5
ENDMDL
MODEL 2
REMARK VINA RESULT:      -6.7     10.087     15.609
REMARK  Name = 5311000
REMARK  5 active torsions:
REMARK  status: ('A' for Active; 'I' for Inactive)
REMARK    1  A    between atoms: C_7  and  O_23
REMARK    2  A    between atoms: C_7  and  C_28
REMARK    3  A    between atoms: C_11  and  O_25
REMARK    4  A    between atoms: C_28  and  C_29
REMARK    5  A    between atoms: C_29  and  O_30
REMARK                            x       y       z     vdW  Elec       q    Type
REMARK                         _______ _______ _______ _____ _____    ______ ____
ROOT
ATOM      1 CL   UNL     1      32.527 -10.951 -19.660  0.00  0.00    -0.115 Cl
ATOM      2  O   UNL     1      34.631 -16.118 -20.101  0.00  0.00    -0.287 OA
ATOM      3  C   UNL     1      33.116  -8.856 -23.769  0.00  0.00    +0.031 C 
ATOM      4  C   UNL     1      32.570  -9.376 -22.421  0.00  0.00    +0.004 C 
ATOM      5  C   UNL     1      32.191 -10.868 -22.437  0.00  0.00    +0.018 C 
ATOM      6  C   UNL     1      33.457 -11.724 -22.811  0.00  0.00    +0.035 C 
ATOM      7  C   UNL     1      33.320  -7.357 -23.397  0.00  0.00    +0.141 C 
ATOM      8  C   UNL     1      31.498  -8.353 -22.046  0.00  0.00    +0.003 C 
ATOM      9  C   UNL     1      34.399  -9.654 -24.078  0.00  0.00    +0.032 C 
ATOM     10  C   UNL     1      32.038  -7.003 -22.586  0.00  0.00    +0.032 C 
ATOM     11  C   UNL     1      34.177 -11.183 -24.090  0.00  0.00    +0.111 C 
ATOM     12  C   UNL     1      33.151 -13.278 -22.806  0.00  0.00    +0.036 C 
ATOM     13  C   UNL     1      31.533 -11.335 -21.111  0.00  0.00    +0.084 C 
ATOM     14  C   UNL     1      32.097  -8.978 -24.936  0.00  0.00    +0.003 C 
ATOM     15  C   UNL     1      31.239 -12.836 -21.132  0.00  0.00    +0.039 C 
ATOM     16  C   UNL     1      32.481 -13.624 -21.472  0.00  0.00    -0.037 C 
ATOM     17  C   UNL     1      32.245  -5.983 -21.469  0.00  0.00    +0.003 C 
ATOM     18  C   UNL     1      32.206 -13.741 -23.939  0.00  0.00    +0.009 C 
ATOM     19  C   UNL     1      34.444 -14.060 -22.989  0.00  0.00    -0.020 C 
ATOM     20  C   UNL     1      32.960 -14.534 -20.610  0.00  0.00    +0.034 C 
ATOM     21  C   UNL     1      34.930 -14.963 -22.131  0.00  0.00    +0.038 C 
ATOM     22  C   UNL     1      34.207 -15.276 -20.886  0.00  0.00    +0.195 C 
ENDROOT
BRANCH   7  23
ATOM     23  O   UNL     1      34.517  -7.132 -22.661  0.00  0.00    -0.380 OA
ATOM     24  H   UNL     1      34.884  -7.982 -22.374  0.00  0.00    +0.211 HD
ENDBRANCH   7  23
BRANCH  11  25
ATOM     25  O   UNL     1      33.481 -11.545 -25.274  0.00  0.00    -0.384 OA
ATOM     26  H   UNL     1      33.762 -12.430 -25.556  0.00  0.00    +0.210 HD
ENDBRANCH  11  25
BRANCH   7  28
ATOM     27  O   UNL     1      34.567  -6.424 -25.199  0.00  0.00    -0.291 OA
ATOM     28  C   UNL     1      33.507  -6.452 -24.576  0.00  0.00    +0.204 C 
BRANCH  28  29
ATOM     29  C   UNL     1      32.324  -5.584 -24.948  0.00  0.00    +0.204 C 
BRANCH  29  30
ATOM     30  O   UNL     1      32.622  -4.792 -26.079  0.00  0.00    -0.375 OA
ATOM     31  H   UNL     1      33.286  -5.244 -26.624  0.00  0.00    +0.211 HD
ENDBRANCH  29  30
ENDBRANCH  28  29
ENDBRANCH   7  28
TORSDOF 5
ENDMDL
MODEL 3
REMARK VINA RESULT:      -5.2     15.157     20.608
REMARK  Name = 5311000
REMARK  5 active torsions:
REMARK  status: ('A' for Active; 'I' for Inactive)
REMARK    1  A    between atoms: C_7  and  O_23
REMARK    2  A    between atoms: C_7  and  C_28
REMARK    3  A    between atoms: C_11  and  O_25
REMARK    4  A    between atoms: C_28  and  C_29
REMARK    5  A    between atoms: C_29  and  O_30
REMARK                            x       y       z     vdW  Elec       q    Type
REMARK                         _______ _______ _______ _____ _____    ______ ____
ROOT
ATOM      1 CL   UNL     1      34.941  -8.403 -25.780  0.00  0.00    -0.115 Cl
ATOM      2  O   UNL     1      31.378 -10.920 -22.275  0.00  0.00    -0.287 OA
ATOM      3  C   UNL     1      33.179  -4.218 -26.783  0.00  0.00    +0.031 C 
ATOM      4  C   UNL     1      34.101  -5.407 -26.432  0.00  0.00    +0.004 C 
ATOM      5  C   UNL     1      33.938  -5.914 -24.986  0.00  0.00    +0.018 C 
ATOM      6  C   UNL     1      32.450  -6.368 -24.758  0.00  0.00    +0.035 C 
ATOM      7  C   UNL     1      33.655  -3.954 -28.243  0.00  0.00    +0.141 C 
ATOM      8  C   UNL     1      35.482  -4.943 -26.892  0.00  0.00    +0.003 C 
ATOM      9  C   UNL     1      31.725  -4.709 -26.628  0.00  0.00    +0.032 C 
ATOM     10  C   UNL     1      35.206  -4.079 -28.151  0.00  0.00    +0.032 C 
ATOM     11  C   UNL     1      31.424  -5.284 -25.227  0.00  0.00    +0.111 C 
ATOM     12  C   UNL     1      32.217  -6.943 -23.300  0.00  0.00    +0.036 C 
ATOM     13  C   UNL     1      34.958  -7.025 -24.622  0.00  0.00    +0.084 C 
ATOM     14  C   UNL     1      33.433  -2.960 -25.908  0.00  0.00    +0.003 C 
ATOM     15  C   UNL     1      34.720  -7.559 -23.208  0.00  0.00    +0.039 C 
ATOM     16  C   UNL     1      33.289  -8.005 -23.034  0.00  0.00    -0.037 C 
ATOM     17  C   UNL     1      35.880  -4.650 -29.395  0.00  0.00    +0.003 C 
ATOM     18  C   UNL     1      32.319  -5.883 -22.179  0.00  0.00    +0.009 C 
ATOM     19  C   UNL     1      30.819  -7.536 -23.196  0.00  0.00    -0.020 C 
ATOM     20  C   UNL     1      33.014  -9.277 -22.706  0.00  0.00    +0.034 C 
ATOM     21  C   UNL     1      30.538  -8.803 -22.876  0.00  0.00    +0.038 C 
ATOM     22  C   UNL     1      31.622  -9.760 -22.590  0.00  0.00    +0.195 C 
ENDROOT
BRANCH   7  23
ATOM     23  O   UNL     1      33.084  -4.860 -29.180  0.00  0.00    -0.380 OA
ATOM     24  H   UNL     1      32.618  -5.564 -28.704  0.00  0.00    +0.211 HD
ENDBRANCH   7  23
BRANCH  11  25
ATOM     25  O   UNL     1      31.327  -4.218 -24.294  0.00  0.00    -0.384 OA
ATOM     26  H   UNL     1      30.581  -4.379 -23.695  0.00  0.00    +0.210 HD
ENDBRANCH  11  25
BRANCH   7  28
ATOM     27  O   UNL     1      34.058  -1.786 -29.143  0.00  0.00    -0.291 OA
ATOM     28  C   UNL     1      33.231  -2.628 -28.797  0.00  0.00    +0.204 C 
BRANCH  28  29
ATOM     29  C   UNL     1      31.739  -2.392 -28.903  0.00  0.00    +0.204 C 
BRANCH  29  30
ATOM     30  O   UNL     1      31.200  -3.098 -30.000  0.00  0.00    -0.375 OA
ATOM     31  H   UNL     1      30.251  -2.907 -30.072  0.00  0.00    +0.211 HD
ENDBRANCH  29  30
ENDBRANCH  28  29
ENDBRANCH   7  28
TORSDOF 5
ENDMDL
MODEL 4
REMARK VINA RESULT:      -5.2      3.343      6.414
REMARK  Name = 5311000
REMARK  5 active torsions:
REMARK  status: ('A' for Active; 'I' for Inactive)
REMARK    1  A    between atoms: C_7  and  O_23
REMARK    2  A    between atoms: C_7  and  C_28
REMARK    3  A    between atoms: C_11  and  O_25
REMARK    4  A    between atoms: C_28  and  C_29
REMARK    5  A    between atoms: C_29  and  O_30
REMARK                            x       y       z     vdW  Elec       q    Type
REMARK                         _______ _______ _______ _____ _____    ______ ____
ROOT
ATOM      1 CL   UNL     1      35.641 -23.559 -17.349  0.00  0.00    -0.115 Cl
ATOM      2  O   UNL     1      40.518 -25.625 -15.544  0.00  0.00    -0.287 OA
ATOM      3  C   UNL     1      32.593 -23.944 -13.859  0.00  0.00    +0.031 C 
ATOM      4  C   UNL     1      33.434 -23.466 -15.064  0.00  0.00    +0.004 C 
ATOM      5  C   UNL     1      34.880 -23.083 -14.699  0.00  0.00    +0.018 C 
ATOM      6  C   UNL     1      35.604 -24.326 -14.063  0.00  0.00    +0.035 C 
ATOM      7  C   UNL     1      31.230 -24.171 -14.579  0.00  0.00    +0.141 C 
ATOM      8  C   UNL     1      32.546 -22.417 -15.732  0.00  0.00    +0.003 C 
ATOM      9  C   UNL     1      33.277 -25.208 -13.300  0.00  0.00    +0.032 C 
ATOM     10  C   UNL     1      31.099 -22.933 -15.516  0.00  0.00    +0.032 C 
ATOM     11  C   UNL     1      34.757 -24.981 -12.922  0.00  0.00    +0.111 C 
ATOM     12  C   UNL     1      37.115 -24.016 -13.700  0.00  0.00    +0.036 C 
ATOM     13  C   UNL     1      35.665 -22.492 -15.900  0.00  0.00    +0.084 C 
ATOM     14  C   UNL     1      32.433 -22.867 -12.751  0.00  0.00    +0.003 C 
ATOM     15  C   UNL     1      37.118 -22.193 -15.525  0.00  0.00    +0.039 C 
ATOM     16  C   UNL     1      37.785 -23.414 -14.939  0.00  0.00    -0.037 C 
ATOM     17  C   UNL     1      30.383 -23.199 -16.838  0.00  0.00    +0.003 C 
ATOM     18  C   UNL     1      37.294 -23.014 -12.537  0.00  0.00    +0.009 C 
ATOM     19  C   UNL     1      37.814 -25.297 -13.266  0.00  0.00    -0.020 C 
ATOM     20  C   UNL     1      38.875 -23.934 -15.525  0.00  0.00    +0.034 C 
ATOM     21  C   UNL     1      38.896 -25.824 -13.849  0.00  0.00    +0.038 C 
ATOM     22  C   UNL     1      39.513 -25.164 -15.013  0.00  0.00    +0.195 C 
ENDROOT
BRANCH   7  23
ATOM     23  O   UNL     1      31.181 -25.405 -15.287  0.00  0.00    -0.380 OA
ATOM     24  H   UNL     1      32.083 -25.715 -15.458  0.00  0.00    +0.211 HD
ENDBRANCH   7  23
BRANCH  11  25
ATOM     25  O   UNL     1      34.824 -24.225 -11.722  0.00  0.00    -0.384 OA
ATOM     26  H   UNL     1      35.369 -24.697 -11.073  0.00  0.00    +0.210 HD
ENDBRANCH  11  25
BRANCH   7  28
ATOM     27  O   UNL     1      30.207 -24.278 -12.431  0.00  0.00    -0.291 OA
ATOM     28  C   UNL     1      30.060 -24.300 -13.652  0.00  0.00    +0.204 C 
BRANCH  28  29
ATOM     29  C   UNL     1      28.702 -24.456 -14.303  0.00  0.00    +0.204 C 
BRANCH  29  30
ATOM     30  O   UNL     1      28.289 -25.806 -14.279  0.00  0.00    -0.375 OA
ATOM     31  H   UNL     1      27.320 -25.848 -14.284  0.00  0.00    +0.211 HD
ENDBRANCH  29  30
ENDBRANCH  28  29
ENDBRANCH   7  28
TORSDOF 5
ENDMDL
MODEL 5
REMARK VINA RESULT:      -4.6     10.565     14.561
REMARK  Name = 5311000
REMARK  5 active torsions:
REMARK  status: ('A' for Active; 'I' for Inactive)
REMARK    1  A    between atoms: C_7  and  O_23
REMARK    2  A    between atoms: C_7  and  C_28
REMARK    3  A    between atoms: C_11  and  O_25
REMARK    4  A    between atoms: C_28  and  C_29
REMARK    5  A    between atoms: C_29  and  O_30
REMARK                            x       y       z     vdW  Elec       q    Type
REMARK                         _______ _______ _______ _____ _____    ______ ____
ROOT
ATOM      1 CL   UNL     1      30.564 -10.200 -20.313  0.00  0.00    -0.115 Cl
ATOM      2  O   UNL     1      29.861  -4.993 -22.237  0.00  0.00    -0.287 OA
ATOM      3  C   UNL     1      33.337 -12.426 -23.310  0.00  0.00    +0.031 C 
ATOM      4  C   UNL     1      32.636 -11.874 -22.048  0.00  0.00    +0.004 C 
ATOM      5  C   UNL     1      32.953 -10.395 -21.758  0.00  0.00    +0.018 C 
ATOM      6  C   UNL     1      32.509  -9.516 -22.985  0.00  0.00    +0.035 C 
ATOM      7  C   UNL     1      32.847 -13.904 -23.243  0.00  0.00    +0.141 C 
ATOM      8  C   UNL     1      32.953 -12.914 -20.974  0.00  0.00    +0.003 C 
ATOM      9  C   UNL     1      32.829 -11.602 -24.509  0.00  0.00    +0.032 C 
ATOM     10  C   UNL     1      32.981 -14.266 -21.733  0.00  0.00    +0.032 C 
ATOM     11  C   UNL     1      33.047 -10.082 -24.341  0.00  0.00    +0.111 C 
ATOM     12  C   UNL     1      32.766  -7.973 -22.739  0.00  0.00    +0.036 C 
ATOM     13  C   UNL     1      32.336  -9.900 -20.423  0.00  0.00    +0.084 C 
ATOM     14  C   UNL     1      34.887 -12.378 -23.225  0.00  0.00    +0.003 C 
ATOM     15  C   UNL     1      32.604  -8.410 -20.202  0.00  0.00    +0.039 C 
ATOM     16  C   UNL     1      32.145  -7.599 -21.390  0.00  0.00    -0.037 C 
ATOM     17  C   UNL     1      31.927 -15.238 -21.210  0.00  0.00    +0.003 C 
ATOM     18  C   UNL     1      34.261  -7.580 -22.692  0.00  0.00    +0.009 C 
ATOM     19  C   UNL     1      32.152  -7.160 -23.870  0.00  0.00    -0.020 C 
ATOM     20  C   UNL     1      31.215  -6.644 -21.235  0.00  0.00    +0.034 C 
ATOM     21  C   UNL     1      31.221  -6.212 -23.724  0.00  0.00    +0.038 C 
ATOM     22  C   UNL     1      30.700  -5.876 -22.387  0.00  0.00    +0.195 C 
ENDROOT
BRANCH   7  23
ATOM     23  O   UNL     1      31.522 -14.065 -23.733  0.00  0.00    -0.380 OA
ATOM     24  H   UNL     1      31.333 -15.009 -23.847  0.00  0.00    +0.211 HD
ENDBRANCH   7  23
BRANCH  11  25
ATOM     25  O   UNL     1      34.424  -9.784 -24.522  0.00  0.00    -0.384 OA
ATOM     26  H   UNL     1      34.690 -10.021 -25.424  0.00  0.00    +0.210 HD
ENDBRANCH  11  25
BRANCH   7  28
ATOM     27  O   UNL     1      34.527 -15.540 -23.663  0.00  0.00    -0.291 OA
ATOM     28  C   UNL     1      33.618 -14.846 -24.117  0.00  0.00    +0.204 C 
BRANCH  28  29
ATOM     29  C   UNL     1      33.214 -14.890 -25.575  0.00  0.00    +0.204 C 
BRANCH  29  30
ATOM     30  O   UNL     1      33.853 -15.961 -26.237  0.00  0.00    -0.375 OA
ATOM     31  H   UNL     1      33.237 -16.706 -26.316  0.00  0.00    +0.211 HD
ENDBRANCH  29  30
ENDBRANCH  28  29
ENDBRANCH   7  28
TORSDOF 5
ENDMDL
MODEL 6
REMARK VINA RESULT:      -4.1      3.241      4.799
REMARK  Name = 5311000
REMARK  5 active torsions:
REMARK  status: ('A' for Active; 'I' for Inactive)
REMARK    1  A    between atoms: C_7  and  O_23
REMARK    2  A    between atoms: C_7  and  C_28
REMARK    3  A    between atoms: C_11  and  O_25
REMARK    4  A    between atoms: C_28  and  C_29
REMARK    5  A    between atoms: C_29  and  O_30
REMARK                            x       y       z     vdW  Elec       q    Type
REMARK                         _______ _______ _______ _____ _____    ______ ____
ROOT
ATOM      1 CL   UNL     1      32.867 -21.897 -17.552  0.00  0.00    -0.115 Cl
ATOM      2  O   UNL     1      27.471 -21.644 -16.091  0.00  0.00    -0.287 OA
ATOM      3  C   UNL     1      35.153 -23.968 -14.072  0.00  0.00    +0.031 C 
ATOM      4  C   UNL     1      34.628 -23.505 -15.449  0.00  0.00    +0.004 C 
ATOM      5  C   UNL     1      33.227 -24.044 -15.793  0.00  0.00    +0.018 C 
ATOM      6  C   UNL     1      32.202 -23.570 -14.697  0.00  0.00    +0.035 C 
ATOM      7  C   UNL     1      36.561 -23.302 -14.104  0.00  0.00    +0.141 C 
ATOM      8  C   UNL     1      35.784 -23.813 -16.400  0.00  0.00    +0.003 C 
ATOM      9  C   UNL     1      34.177 -23.427 -13.008  0.00  0.00    +0.032 C 
ATOM     10  C   UNL     1      37.062 -23.572 -15.555  0.00  0.00    +0.032 C 
ATOM     11  C   UNL     1      32.714 -23.860 -13.248  0.00  0.00    +0.111 C 
ATOM     12  C   UNL     1      30.726 -24.054 -15.010  0.00  0.00    +0.036 C 
ATOM     13  C   UNL     1      32.774 -23.665 -17.228  0.00  0.00    +0.084 C 
ATOM     14  C   UNL     1      35.298 -25.510 -13.954  0.00  0.00    +0.003 C 
ATOM     15  C   UNL     1      31.351 -24.149 -17.511  0.00  0.00    +0.039 C 
ATOM     16  C   UNL     1      30.394 -23.658 -16.452  0.00  0.00    -0.037 C 
ATOM     17  C   UNL     1      37.940 -22.473 -16.147  0.00  0.00    +0.003 C 
ATOM     18  C   UNL     1      30.521 -25.582 -14.885  0.00  0.00    +0.009 C 
ATOM     19  C   UNL     1      29.755 -23.416 -14.028  0.00  0.00    -0.020 C 
ATOM     20  C   UNL     1      29.350 -22.885 -16.792  0.00  0.00    +0.034 C 
ATOM     21  C   UNL     1      28.717 -22.641 -14.359  0.00  0.00    +0.038 C 
ATOM     22  C   UNL     1      28.433 -22.336 -15.772  0.00  0.00    +0.195 C 
ENDROOT
BRANCH   7  23
ATOM     23  O   UNL     1      36.521 -21.917 -13.783  0.00  0.00    -0.380 OA
ATOM     24  H   UNL     1      35.804 -21.751 -13.153  0.00  0.00    +0.211 HD
ENDBRANCH   7  23
BRANCH  11  25
ATOM     25  O   UNL     1      32.569 -25.231 -12.907  0.00  0.00    -0.384 OA
ATOM     26  H   UNL     1      33.327 -25.512 -12.369  0.00  0.00    +0.210 HD
ENDBRANCH  11  25
BRANCH   7  28
ATOM     27  O   UNL     1      38.550 -24.407 -13.399  0.00  0.00    -0.291 OA
ATOM     28  C   UNL     1      37.513 -23.831 -13.074  0.00  0.00    +0.204 C 
BRANCH  28  29
ATOM     29  C   UNL     1      37.124 -23.614 -11.627  0.00  0.00    +0.204 C 
BRANCH  29  30
ATOM     30  O   UNL     1      37.422 -22.294 -11.223  0.00  0.00    -0.375 OA
ATOM     31  H   UNL     1      38.377 -22.211 -11.072  0.00  0.00    +0.211 HD
ENDBRANCH  29  30
ENDBRANCH  28  29
ENDBRANCH   7  28
TORSDOF 5
ENDMDL
MODEL 7
REMARK VINA RESULT:      -3.9      6.280     12.043
REMARK  Name = 5311000
REMARK  5 active torsions:
REMARK  status: ('A' for Active; 'I' for Inactive)
REMARK    1  A    between atoms: C_7  and  O_23
REMARK    2  A    between atoms: C_7  and  C_28
REMARK    3  A    between atoms: C_11  and  O_25
REMARK    4  A    between atoms: C_28  and  C_29
REMARK    5  A    between atoms: C_29  and  O_30
REMARK                            x       y       z     vdW  Elec       q    Type
REMARK                         _______ _______ _______ _____ _____    ______ ____
ROOT
ATOM      1 CL   UNL     1      33.688 -15.630 -19.889  0.00  0.00    -0.115 Cl
ATOM      2  O   UNL     1      36.944 -20.177 -19.714  0.00  0.00    -0.287 OA
ATOM      3  C   UNL     1      33.735 -14.056 -24.264  0.00  0.00    +0.031 C 
ATOM      4  C   UNL     1      33.337 -14.492 -22.836  0.00  0.00    +0.004 C 
ATOM      5  C   UNL     1      33.319 -16.019 -22.635  0.00  0.00    +0.018 C 
ATOM      6  C   UNL     1      34.748 -16.602 -22.942  0.00  0.00    +0.035 C 
ATOM      7  C   UNL     1      33.584 -12.513 -24.106  0.00  0.00    +0.141 C 
ATOM      8  C   UNL     1      32.057 -13.704 -22.560  0.00  0.00    +0.003 C 
ATOM      9  C   UNL     1      35.166 -14.571 -24.514  0.00  0.00    +0.032 C 
ATOM     10  C   UNL     1      32.261 -12.355 -23.298  0.00  0.00    +0.032 C 
ATOM     11  C   UNL     1      35.310 -16.095 -24.311  0.00  0.00    +0.111 C 
ATOM     12  C   UNL     1      34.816 -18.168 -22.714  0.00  0.00    +0.036 C 
ATOM     13  C   UNL     1      32.800 -16.434 -21.233  0.00  0.00    +0.084 C 
ATOM     14  C   UNL     1      32.763 -14.573 -25.360  0.00  0.00    +0.003 C 
ATOM     15  C   UNL     1      32.867 -17.950 -21.038  0.00  0.00    +0.039 C 
ATOM     16  C   UNL     1      34.257 -18.468 -21.320  0.00  0.00    -0.037 C 
ATOM     17  C   UNL     1      32.231 -11.168 -22.339  0.00  0.00    +0.003 C 
ATOM     18  C   UNL     1      33.997 -18.992 -23.735  0.00  0.00    +0.009 C 
ATOM     19  C   UNL     1      36.255 -18.647 -22.843  0.00  0.00    -0.020 C 
ATOM     20  C   UNL     1      34.944 -19.112 -20.363  0.00  0.00    +0.034 C 
ATOM     21  C   UNL     1      36.947 -19.283 -21.892  0.00  0.00    +0.038 C 
ATOM     22  C   UNL     1      36.328 -19.576 -20.587  0.00  0.00    +0.195 C 
ENDROOT
BRANCH   7  23
ATOM     23  O   UNL     1      34.701 -11.916 -23.457  0.00  0.00    -0.380 OA
ATOM     24  H   UNL     1      34.753 -10.979 -23.701  0.00  0.00    +0.211 HD
ENDBRANCH   7  23
BRANCH  11  25
ATOM     25  O   UNL     1      34.709 -16.772 -25.406  0.00  0.00    -0.384 OA
ATOM     26  H   UNL     1      33.783 -16.969 -25.195  0.00  0.00    +0.210 HD
ENDBRANCH  11  25
BRANCH   7  28
ATOM     27  O   UNL     1      32.994 -12.239 -26.397  0.00  0.00    -0.291 OA
ATOM     28  C   UNL     1      33.542 -11.765 -25.403  0.00  0.00    +0.204 C 
BRANCH  28  29
ATOM     29  C   UNL     1      34.209 -10.405 -25.415  0.00  0.00    +0.204 C 
BRANCH  29  30
ATOM     30  O   UNL     1      35.602 -10.534 -25.605  0.00  0.00    -0.375 OA
ATOM     31  H   UNL     1      36.013  -9.656 -25.585  0.00  0.00    +0.211 HD
ENDBRANCH  29  30
ENDBRANCH  28  29
ENDBRANCH   7  28
TORSDOF 5
ENDMDL
