MODEL 1
REMARK VINA RESULT:     -10.0      0.000      0.000
REMARK  Name = 25271577
REMARK  8 active torsions:
REMARK  status: ('A' for Active; 'I' for Inactive)
REMARK    1  A    between atoms: C_1  and  C_8
REMARK    2  A    between atoms: C_1  and  N_16
REMARK    3  A    between atoms: C_1  and  C_20
REMARK    4  A    between atoms: C_4  and  C_11
REMARK    5  A    between atoms: N_10  and  C_13
REMARK    6  A    between atoms: C_13  and  C_14
REMARK    7  A    between atoms: C_20  and  C_21
REMARK    8  A    between atoms: C_20  and  C_27
REMARK                            x       y       z     vdW  Elec       q    Type
REMARK                         _______ _______ _______ _____ _____    ______ ____
ROOT
ATOM      1  C   UNL     1      34.294 -14.727 -22.213  0.00  0.00    +0.021 C 
ENDROOT
BRANCH   1   8
ATOM      2  O   UNL     1      33.508 -16.260 -20.571  0.00  0.00    -0.277 OA
ATOM      3  N   UNL     1      34.483 -17.156 -22.469  0.00  0.00    -0.275 N 
ATOM      4  C   UNL     1      34.183 -18.549 -22.171  0.00  0.00    +0.152 C 
ATOM      5  C   UNL     1      34.416 -19.287 -23.484  0.00  0.00    +0.031 C 
ATOM      6  C   UNL     1      35.485 -18.446 -24.177  0.00  0.00    +0.024 C 
ATOM      7  C   UNL     1      35.129 -17.023 -23.774  0.00  0.00    +0.094 C 
ATOM      8  C   UNL     1      34.050 -16.111 -21.667  0.00  0.00    +0.206 C 
BRANCH   4  11
ATOM      9  O   UNL     1      35.962 -18.218 -20.613  0.00  0.00    -0.273 OA
ATOM     10  N   UNL     1      34.999 -20.330 -20.793  0.00  0.00    -0.303 N 
ATOM     11  C   UNL     1      35.143 -18.990 -21.107  0.00  0.00    +0.241 C 
ATOM     12  H   UNL     1      34.303 -20.848 -21.258  0.00  0.00    +0.149 HD
BRANCH  10  13
ATOM     13  C   UNL     1      35.821 -21.005 -19.814  0.00  0.00    +0.089 C 
BRANCH  13  14
ATOM     14  C   UNL     1      35.025 -21.997 -18.975  0.00  0.00    +0.021 C 
ATOM     15  C   UNL     1      33.528 -21.930 -19.245  0.00  0.00    +0.002 C 
ENDBRANCH  13  14
ENDBRANCH  10  13
ENDBRANCH   4  11
ENDBRANCH   1   8
BRANCH   1  16
ATOM     16  N   UNL     1      34.765 -13.957 -21.063  0.00  0.00    +0.388 N 
ATOM     17  H   UNL     1      34.391 -14.363 -20.205  0.00  0.00    -0.089 HD
ATOM     18  H   UNL     1      34.448 -12.991 -21.148  0.00  0.00    -0.089 HD
ATOM     19  H   UNL     1      35.784 -13.979 -21.033  0.00  0.00    -0.089 HD
ENDBRANCH   1  16
BRANCH   1  20
ATOM     20  C   UNL     1      32.998 -14.145 -22.837  0.00  0.00    +0.033 C 
BRANCH  20  21
ATOM     21  C   UNL     1      33.164 -13.701 -24.291  0.00  0.00    -0.020 C 
ATOM     22  C   UNL     1      33.725 -12.457 -24.581  0.00  0.00    -0.004 C 
ATOM     23  C   UNL     1      32.757 -14.541 -25.327  0.00  0.00    -0.004 C 
ATOM     24  C   UNL     1      33.877 -12.052 -25.907  0.00  0.00    -0.000 C 
ATOM     25  C   UNL     1      32.910 -14.137 -26.654  0.00  0.00    -0.000 C 
ATOM     26  C   UNL     1      33.470 -12.893 -26.944  0.00  0.00    -0.000 C 
ENDBRANCH  20  21
BRANCH  20  27
ATOM     27  C   UNL     1      32.366 -13.029 -22.008  0.00  0.00    -0.020 C 
ATOM     28  C   UNL     1      32.284 -13.151 -20.621  0.00  0.00    -0.004 C 
ATOM     29  C   UNL     1      31.871 -11.887 -22.638  0.00  0.00    -0.004 C 
ATOM     30  C   UNL     1      31.708 -12.131 -19.864  0.00  0.00    -0.000 C 
ATOM     31  C   UNL     1      31.295 -10.867 -21.881  0.00  0.00    -0.000 C 
ATOM     32  C   UNL     1      31.213 -10.989 -20.493  0.00  0.00    -0.000 C 
ENDBRANCH  20  27
ENDBRANCH   1  20
TORSDOF 8
ENDMDL
MODEL 2
REMARK VINA RESULT:      -9.1      7.619     11.111
REMARK  Name = 25271577
REMARK  8 active torsions:
REMARK  status: ('A' for Active; 'I' for Inactive)
REMARK    1  A    between atoms: C_1  and  C_8
REMARK    2  A    between atoms: C_1  and  N_16
REMARK    3  A    between atoms: C_1  and  C_20
REMARK    4  A    between atoms: C_4  and  C_11
REMARK    5  A    between atoms: N_10  and  C_13
REMARK    6  A    between atoms: C_13  and  C_14
REMARK    7  A    between atoms: C_20  and  C_21
REMARK    8  A    between atoms: C_20  and  C_27
REMARK                            x       y       z     vdW  Elec       q    Type
REMARK                         _______ _______ _______ _____ _____    ______ ____
ROOT
ATOM      1  C   UNL     1      35.437 -23.249 -15.997  0.00  0.00    +0.021 C 
ENDROOT
BRANCH   1   8
ATOM      2  O   UNL     1      34.646 -25.249 -14.978  0.00  0.00    -0.277 OA
ATOM      3  N   UNL     1      36.928 -24.869 -14.924  0.00  0.00    -0.275 N 
ATOM      4  C   UNL     1      37.300 -26.157 -14.355  0.00  0.00    +0.152 C 
ATOM      5  C   UNL     1      38.804 -26.262 -14.580  0.00  0.00    +0.031 C 
ATOM      6  C   UNL     1      39.265 -24.807 -14.572  0.00  0.00    +0.024 C 
ATOM      7  C   UNL     1      38.112 -24.070 -15.237  0.00  0.00    +0.094 C 
ATOM      8  C   UNL     1      35.621 -24.550 -15.257  0.00  0.00    +0.206 C 
BRANCH   4  11
ATOM      9  O   UNL     1      37.403 -26.932 -12.099  0.00  0.00    -0.273 OA
ATOM     10  N   UNL     1      36.087 -25.077 -12.594  0.00  0.00    -0.303 N 
ATOM     11  C   UNL     1      36.956 -26.111 -12.897  0.00  0.00    +0.241 C 
ATOM     12  H   UNL     1      35.798 -24.480 -13.323  0.00  0.00    +0.149 HD
BRANCH  10  13
ATOM     13  C   UNL     1      35.585 -24.829 -11.262  0.00  0.00    +0.089 C 
BRANCH  13  14
ATOM     14  C   UNL     1      36.241 -23.619 -10.611  0.00  0.00    +0.021 C 
ATOM     15  C   UNL     1      37.166 -22.868 -11.559  0.00  0.00    +0.002 C 
ENDBRANCH  13  14
ENDBRANCH  10  13
ENDBRANCH   4  11
ENDBRANCH   1   8
BRANCH   1  16
ATOM     16  N   UNL     1      35.257 -22.250 -14.944  0.00  0.00    +0.388 N 
ATOM     17  H   UNL     1      34.629 -22.620 -14.230  0.00  0.00    -0.089 HD
ATOM     18  H   UNL     1      34.854 -21.404 -15.345  0.00  0.00    -0.089 HD
ATOM     19  H   UNL     1      36.160 -22.032 -14.525  0.00  0.00    -0.089 HD
ENDBRANCH   1  16
BRANCH   1  20
ATOM     20  C   UNL     1      34.226 -23.331 -16.963  0.00  0.00    +0.033 C 
BRANCH  20  21
ATOM     21  C   UNL     1      34.327 -22.379 -18.155  0.00  0.00    -0.020 C 
ATOM     22  C   UNL     1      33.170 -21.942 -18.800  0.00  0.00    -0.004 C 
ATOM     23  C   UNL     1      35.577 -21.945 -18.597  0.00  0.00    -0.004 C 
ATOM     24  C   UNL     1      33.263 -21.072 -19.887  0.00  0.00    -0.000 C 
ATOM     25  C   UNL     1      35.670 -21.074 -19.683  0.00  0.00    -0.000 C 
ATOM     26  C   UNL     1      34.513 -20.638 -20.328  0.00  0.00    -0.000 C 
ENDBRANCH  20  21
BRANCH  20  27
ATOM     27  C   UNL     1      32.875 -23.173 -16.269  0.00  0.00    -0.020 C 
ATOM     28  C   UNL     1      31.695 -23.381 -16.983  0.00  0.00    -0.004 C 
ATOM     29  C   UNL     1      32.822 -22.821 -14.920  0.00  0.00    -0.004 C 
ATOM     30  C   UNL     1      30.462 -23.238 -16.348  0.00  0.00    -0.000 C 
ATOM     31  C   UNL     1      31.588 -22.678 -14.285  0.00  0.00    -0.000 C 
ATOM     32  C   UNL     1      30.407 -22.886 -15.000  0.00  0.00    -0.000 C 
ENDBRANCH  20  27
ENDBRANCH   1  20
TORSDOF 8
ENDMDL
MODEL 3
REMARK VINA RESULT:      -9.0      3.171      5.291
REMARK  Name = 25271577
REMARK  8 active torsions:
REMARK  status: ('A' for Active; 'I' for Inactive)
REMARK    1  A    between atoms: C_1  and  C_8
REMARK    2  A    between atoms: C_1  and  N_16
REMARK    3  A    between atoms: C_1  and  C_20
REMARK    4  A    between atoms: C_4  and  C_11
REMARK    5  A    between atoms: N_10  and  C_13
REMARK    6  A    between atoms: C_13  and  C_14
REMARK    7  A    between atoms: C_20  and  C_21
REMARK    8  A    between atoms: C_20  and  C_27
REMARK                            x       y       z     vdW  Elec       q    Type
REMARK                         _______ _______ _______ _____ _____    ______ ____
ROOT
ATOM      1  C   UNL     1      33.360 -10.655 -24.042  0.00  0.00    +0.021 C 
ENDROOT
BRANCH   1   8
ATOM      2  O   UNL     1      32.766 -12.562 -22.747  0.00  0.00    -0.277 OA
ATOM      3  N   UNL     1      33.182 -12.903 -24.998  0.00  0.00    -0.275 N 
ATOM      4  C   UNL     1      32.783 -14.303 -25.033  0.00  0.00    +0.152 C 
ATOM      5  C   UNL     1      32.628 -14.627 -26.514  0.00  0.00    +0.031 C 
ATOM      6  C   UNL     1      33.617 -13.679 -27.188  0.00  0.00    +0.024 C 
ATOM      7  C   UNL     1      33.539 -12.424 -26.332  0.00  0.00    +0.094 C 
ATOM      8  C   UNL     1      33.070 -12.123 -23.858  0.00  0.00    +0.206 C 
BRANCH   4  11
ATOM      9  O   UNL     1      34.780 -15.611 -25.072  0.00  0.00    -0.273 OA
ATOM     10  N   UNL     1      33.759 -15.174 -23.026  0.00  0.00    -0.303 N 
ATOM     11  C   UNL     1      33.890 -15.094 -24.402  0.00  0.00    +0.241 C 
ATOM     12  H   UNL     1      32.999 -14.714 -22.600  0.00  0.00    +0.149 HD
BRANCH  10  13
ATOM     13  C   UNL     1      34.684 -15.899 -22.185  0.00  0.00    +0.089 C 
BRANCH  13  14
ATOM     14  C   UNL     1      34.484 -15.593 -20.706  0.00  0.00    +0.021 C 
ATOM     15  C   UNL     1      33.080 -15.095 -20.391  0.00  0.00    +0.002 C 
ENDBRANCH  13  14
ENDBRANCH  10  13
ENDBRANCH   4  11
ENDBRANCH   1   8
BRANCH   1  16
ATOM     16  N   UNL     1      34.589 -10.426 -23.284  0.00  0.00    +0.388 N 
ATOM     17  H   UNL     1      35.125  -9.678 -23.724  0.00  0.00    -0.089 HD
ATOM     18  H   UNL     1      35.145 -11.280 -23.272  0.00  0.00    -0.089 HD
ATOM     19  H   UNL     1      34.354 -10.159 -22.328  0.00  0.00    -0.089 HD
ENDBRANCH   1  16
BRANCH   1  20
ATOM     20  C   UNL     1      32.173  -9.792 -23.540  0.00  0.00    +0.033 C 
BRANCH  20  21
ATOM     21  C   UNL     1      32.270  -8.321 -23.947  0.00  0.00    -0.020 C 
ATOM     22  C   UNL     1      31.112  -7.553 -24.072  0.00  0.00    -0.004 C 
ATOM     23  C   UNL     1      33.517  -7.745 -24.190  0.00  0.00    -0.004 C 
ATOM     24  C   UNL     1      31.200  -6.212 -24.442  0.00  0.00    -0.000 C 
ATOM     25  C   UNL     1      33.606  -6.403 -24.560  0.00  0.00    -0.000 C 
ATOM     26  C   UNL     1      32.447  -5.636 -24.686  0.00  0.00    -0.000 C 
ENDBRANCH  20  21
BRANCH  20  27
ATOM     27  C   UNL     1      31.918  -9.913 -22.039  0.00  0.00    -0.020 C 
ATOM     28  C   UNL     1      31.091 -10.926 -21.552  0.00  0.00    -0.004 C 
ATOM     29  C   UNL     1      32.511  -9.012 -21.156  0.00  0.00    -0.004 C 
ATOM     30  C   UNL     1      30.860 -11.038 -20.181  0.00  0.00    -0.000 C 
ATOM     31  C   UNL     1      32.280  -9.124 -19.784  0.00  0.00    -0.000 C 
ATOM     32  C   UNL     1      31.453 -10.137 -19.297  0.00  0.00    -0.000 C 
ENDBRANCH  20  27
ENDBRANCH   1  20
TORSDOF 8
ENDMDL
MODEL 4
REMARK VINA RESULT:      -8.9      3.039      5.331
REMARK  Name = 25271577
REMARK  8 active torsions:
REMARK  status: ('A' for Active; 'I' for Inactive)
REMARK    1  A    between atoms: C_1  and  C_8
REMARK    2  A    between atoms: C_1  and  N_16
REMARK    3  A    between atoms: C_1  and  C_20
REMARK    4  A    between atoms: C_4  and  C_11
REMARK    5  A    between atoms: N_10  and  C_13
REMARK    6  A    between atoms: C_13  and  C_14
REMARK    7  A    between atoms: C_20  and  C_21
REMARK    8  A    between atoms: C_20  and  C_27
REMARK                            x       y       z     vdW  Elec       q    Type
REMARK                         _______ _______ _______ _____ _____    ______ ____
ROOT
ATOM      1  C   UNL     1      33.310 -10.542 -24.039  0.00  0.00    +0.021 C 
ENDROOT
BRANCH   1   8
ATOM      2  O   UNL     1      32.669 -12.505 -22.855  0.00  0.00    -0.277 OA
ATOM      3  N   UNL     1      33.166 -12.743 -25.103  0.00  0.00    -0.275 N 
ATOM      4  C   UNL     1      32.767 -14.140 -25.216  0.00  0.00    +0.152 C 
ATOM      5  C   UNL     1      32.666 -14.395 -26.715  0.00  0.00    +0.031 C 
ATOM      6  C   UNL     1      33.680 -13.419 -27.309  0.00  0.00    +0.024 C 
ATOM      7  C   UNL     1      33.570 -12.204 -26.400  0.00  0.00    +0.094 C 
ATOM      8  C   UNL     1      33.013 -12.017 -23.932  0.00  0.00    +0.206 C 
BRANCH   4  11
ATOM      9  O   UNL     1      34.532 -14.530 -23.655  0.00  0.00    -0.273 OA
ATOM     10  N   UNL     1      33.983 -16.204 -25.178  0.00  0.00    -0.303 N 
ATOM     11  C   UNL     1      33.850 -14.961 -24.583  0.00  0.00    +0.241 C 
ATOM     12  H   UNL     1      33.374 -16.436 -25.917  0.00  0.00    +0.149 HD
BRANCH  10  13
ATOM     13  C   UNL     1      34.970 -17.176 -24.768  0.00  0.00    +0.089 C 
BRANCH  13  14
ATOM     14  C   UNL     1      34.416 -18.595 -24.758  0.00  0.00    +0.021 C 
ATOM     15  C   UNL     1      34.913 -19.413 -23.574  0.00  0.00    +0.002 C 
ENDBRANCH  13  14
ENDBRANCH  10  13
ENDBRANCH   4  11
ENDBRANCH   1   8
BRANCH   1  16
ATOM     16  N   UNL     1      34.530 -10.356 -23.255  0.00  0.00    +0.388 N 
ATOM     17  H   UNL     1      34.329 -10.522 -22.269  0.00  0.00    -0.089 HD
ATOM     18  H   UNL     1      34.869  -9.402 -23.376  0.00  0.00    -0.089 HD
ATOM     19  H   UNL     1      35.242 -11.013 -23.573  0.00  0.00    -0.089 HD
ENDBRANCH   1  16
BRANCH   1  20
ATOM     20  C   UNL     1      32.119  -9.701 -23.507  0.00  0.00    +0.033 C 
BRANCH  20  21
ATOM     21  C   UNL     1      32.181  -8.227 -23.913  0.00  0.00    -0.020 C 
ATOM     22  C   UNL     1      33.411  -7.628 -24.182  0.00  0.00    -0.004 C 
ATOM     23  C   UNL     1      31.005  -7.483 -24.017  0.00  0.00    -0.004 C 
ATOM     24  C   UNL     1      33.467  -6.285 -24.552  0.00  0.00    -0.000 C 
ATOM     25  C   UNL     1      31.061  -6.140 -24.388  0.00  0.00    -0.000 C 
ATOM     26  C   UNL     1      32.292  -5.540 -24.656  0.00  0.00    -0.000 C 
ENDBRANCH  20  21
BRANCH  20  27
ATOM     27  C   UNL     1      31.900  -9.830 -22.002  0.00  0.00    -0.020 C 
ATOM     28  C   UNL     1      31.101 -10.857 -21.498  0.00  0.00    -0.004 C 
ATOM     29  C   UNL     1      32.499  -8.921 -21.130  0.00  0.00    -0.004 C 
ATOM     30  C   UNL     1      30.903 -10.976 -20.123  0.00  0.00    -0.000 C 
ATOM     31  C   UNL     1      32.301  -9.040 -19.754  0.00  0.00    -0.000 C 
ATOM     32  C   UNL     1      31.502 -10.067 -19.250  0.00  0.00    -0.000 C 
ENDBRANCH  20  27
ENDBRANCH   1  20
TORSDOF 8
ENDMDL
MODEL 5
REMARK VINA RESULT:      -8.9      8.984     12.266
REMARK  Name = 25271577
REMARK  8 active torsions:
REMARK  status: ('A' for Active; 'I' for Inactive)
REMARK    1  A    between atoms: C_1  and  C_8
REMARK    2  A    between atoms: C_1  and  N_16
REMARK    3  A    between atoms: C_1  and  C_20
REMARK    4  A    between atoms: C_4  and  C_11
REMARK    5  A    between atoms: N_10  and  C_13
REMARK    6  A    between atoms: C_13  and  C_14
REMARK    7  A    between atoms: C_20  and  C_21
REMARK    8  A    between atoms: C_20  and  C_27
REMARK                            x       y       z     vdW  Elec       q    Type
REMARK                         _______ _______ _______ _____ _____    ______ ____
ROOT
ATOM      1  C   UNL     1      34.757 -24.214 -14.787  0.00  0.00    +0.021 C 
ENDROOT
BRANCH   1   8
ATOM      2  O   UNL     1      36.717 -22.864 -14.737  0.00  0.00    -0.277 OA
ATOM      3  N   UNL     1      35.992 -23.745 -12.724  0.00  0.00    -0.275 N 
ATOM      4  C   UNL     1      36.946 -23.040 -11.879  0.00  0.00    +0.152 C 
ATOM      5  C   UNL     1      36.400 -23.195 -10.464  0.00  0.00    +0.031 C 
ATOM      6  C   UNL     1      35.649 -24.524 -10.518  0.00  0.00    +0.024 C 
ATOM      7  C   UNL     1      35.061 -24.536 -11.922  0.00  0.00    +0.094 C 
ATOM      8  C   UNL     1      35.913 -23.539 -14.092  0.00  0.00    +0.206 C 
BRANCH   4  11
ATOM      9  O   UNL     1      39.306 -23.246 -11.584  0.00  0.00    -0.273 OA
ATOM     10  N   UNL     1      38.170 -24.897 -12.769  0.00  0.00    -0.303 N 
ATOM     11  C   UNL     1      38.271 -23.722 -12.043  0.00  0.00    +0.241 C 
ATOM     12  H   UNL     1      37.280 -25.177 -13.085  0.00  0.00    +0.149 HD
BRANCH  10  13
ATOM     13  C   UNL     1      39.307 -25.730 -13.086  0.00  0.00    +0.089 C 
BRANCH  13  14
ATOM     14  C   UNL     1      39.421 -26.011 -14.580  0.00  0.00    +0.021 C 
ATOM     15  C   UNL     1      40.311 -25.008 -15.301  0.00  0.00    +0.002 C 
ENDBRANCH  13  14
ENDBRANCH  10  13
ENDBRANCH   4  11
ENDBRANCH   1   8
BRANCH   1  16
ATOM     16  N   UNL     1      35.386 -25.135 -15.733  0.00  0.00    +0.388 N 
ATOM     17  H   UNL     1      36.370 -25.250 -15.492  0.00  0.00    -0.089 HD
ATOM     18  H   UNL     1      35.309 -24.758 -16.677  0.00  0.00    -0.089 HD
ATOM     19  H   UNL     1      34.916 -26.040 -15.689  0.00  0.00    -0.089 HD
ENDBRANCH   1  16
BRANCH   1  20
ATOM     20  C   UNL     1      33.845 -23.169 -15.481  0.00  0.00    +0.033 C 
BRANCH  20  21
ATOM     21  C   UNL     1      32.355 -23.500 -15.391  0.00  0.00    -0.020 C 
ATOM     22  C   UNL     1      31.431 -22.779 -16.148  0.00  0.00    -0.004 C 
ATOM     23  C   UNL     1      31.918 -24.527 -14.553  0.00  0.00    -0.004 C 
ATOM     24  C   UNL     1      30.073 -23.082 -16.066  0.00  0.00    -0.000 C 
ATOM     25  C   UNL     1      30.559 -24.831 -14.472  0.00  0.00    -0.000 C 
ATOM     26  C   UNL     1      29.636 -24.109 -15.228  0.00  0.00    -0.000 C 
ENDBRANCH  20  21
BRANCH  20  27
ATOM     27  C   UNL     1      34.238 -22.874 -16.927  0.00  0.00    -0.020 C 
ATOM     28  C   UNL     1      35.395 -22.143 -17.200  0.00  0.00    -0.004 C 
ATOM     29  C   UNL     1      33.442 -23.337 -17.974  0.00  0.00    -0.004 C 
ATOM     30  C   UNL     1      35.755 -21.877 -18.520  0.00  0.00    -0.000 C 
ATOM     31  C   UNL     1      33.802 -23.070 -19.295  0.00  0.00    -0.000 C 
ATOM     32  C   UNL     1      34.959 -22.339 -19.568  0.00  0.00    -0.000 C 
ENDBRANCH  20  27
ENDBRANCH   1  20
TORSDOF 8
ENDMDL
MODEL 6
REMARK VINA RESULT:      -8.7      8.912     12.589
REMARK  Name = 25271577
REMARK  8 active torsions:
REMARK  status: ('A' for Active; 'I' for Inactive)
REMARK    1  A    between atoms: C_1  and  C_8
REMARK    2  A    between atoms: C_1  and  N_16
REMARK    3  A    between atoms: C_1  and  C_20
REMARK    4  A    between atoms: C_4  and  C_11
REMARK    5  A    between atoms: N_10  and  C_13
REMARK    6  A    between atoms: C_13  and  C_14
REMARK    7  A    between atoms: C_20  and  C_21
REMARK    8  A    between atoms: C_20  and  C_27
REMARK                            x       y       z     vdW  Elec       q    Type
REMARK                         _______ _______ _______ _____ _____    ______ ____
ROOT
ATOM      1  C   UNL     1      33.535 -23.533 -14.854  0.00  0.00    +0.021 C 
ENDROOT
BRANCH   1   8
ATOM      2  O   UNL     1      32.162 -23.074 -16.744  0.00  0.00    -0.277 OA
ATOM      3  N   UNL     1      31.188 -24.220 -14.984  0.00  0.00    -0.275 N 
ATOM      4  C   UNL     1      29.921 -24.499 -15.647  0.00  0.00    +0.152 C 
ATOM      5  C   UNL     1      29.263 -25.574 -14.790  0.00  0.00    +0.031 C 
ATOM      6  C   UNL     1      29.812 -25.297 -13.392  0.00  0.00    +0.024 C 
ATOM      7  C   UNL     1      31.237 -24.837 -13.661  0.00  0.00    +0.094 C 
ATOM      8  C   UNL     1      32.240 -23.584 -15.625  0.00  0.00    +0.206 C 
BRANCH   4  11
ATOM      9  O   UNL     1      29.475 -22.250 -14.983  0.00  0.00    -0.273 OA
ATOM     10  N   UNL     1      28.003 -23.307 -16.444  0.00  0.00    -0.303 N 
ATOM     11  C   UNL     1      29.132 -23.225 -15.647  0.00  0.00    +0.241 C 
ATOM     12  H   UNL     1      27.833 -24.146 -16.931  0.00  0.00    +0.149 HD
BRANCH  10  13
ATOM     13  C   UNL     1      27.061 -22.221 -16.596  0.00  0.00    +0.089 C 
BRANCH  13  14
ATOM     14  C   UNL     1      26.710 -21.959 -18.055  0.00  0.00    +0.021 C 
ATOM     15  C   UNL     1      25.692 -20.839 -18.224  0.00  0.00    +0.002 C 
ENDBRANCH  13  14
ENDBRANCH  10  13
ENDBRANCH   4  11
ENDBRANCH   1   8
BRANCH   1  16
ATOM     16  N   UNL     1      33.735 -22.113 -14.568  0.00  0.00    +0.388 N 
ATOM     17  H   UNL     1      32.917 -21.586 -14.873  0.00  0.00    -0.089 HD
ATOM     18  H   UNL     1      34.560 -21.779 -15.067  0.00  0.00    -0.089 HD
ATOM     19  H   UNL     1      33.869 -21.983 -13.565  0.00  0.00    -0.089 HD
ENDBRANCH   1  16
BRANCH   1  20
ATOM     20  C   UNL     1      34.694 -24.150 -15.680  0.00  0.00    +0.033 C 
BRANCH  20  21
ATOM     21  C   UNL     1      35.653 -25.002 -14.849  0.00  0.00    -0.020 C 
ATOM     22  C   UNL     1      35.886 -24.688 -13.511  0.00  0.00    -0.004 C 
ATOM     23  C   UNL     1      36.294 -26.098 -15.429  0.00  0.00    -0.004 C 
ATOM     24  C   UNL     1      36.761 -25.465 -12.752  0.00  0.00    -0.000 C 
ATOM     25  C   UNL     1      37.168 -26.877 -14.671  0.00  0.00    -0.000 C 
ATOM     26  C   UNL     1      37.401 -26.561 -13.332  0.00  0.00    -0.000 C 
ENDBRANCH  20  21
BRANCH  20  27
ATOM     27  C   UNL     1      35.470 -23.127 -16.507  0.00  0.00    -0.020 C 
ATOM     28  C   UNL     1      35.007 -22.753 -17.769  0.00  0.00    -0.004 C 
ATOM     29  C   UNL     1      36.642 -22.566 -16.000  0.00  0.00    -0.004 C 
ATOM     30  C   UNL     1      35.714 -21.818 -18.523  0.00  0.00    -0.000 C 
ATOM     31  C   UNL     1      37.350 -21.630 -16.755  0.00  0.00    -0.000 C 
ATOM     32  C   UNL     1      36.887 -21.256 -18.016  0.00  0.00    -0.000 C 
ENDBRANCH  20  27
ENDBRANCH   1  20
TORSDOF 8
ENDMDL
MODEL 7
REMARK VINA RESULT:      -8.6      2.991      5.609
REMARK  Name = 25271577
REMARK  8 active torsions:
REMARK  status: ('A' for Active; 'I' for Inactive)
REMARK    1  A    between atoms: C_1  and  C_8
REMARK    2  A    between atoms: C_1  and  N_16
REMARK    3  A    between atoms: C_1  and  C_20
REMARK    4  A    between atoms: C_4  and  C_11
REMARK    5  A    between atoms: N_10  and  C_13
REMARK    6  A    between atoms: C_13  and  C_14
REMARK    7  A    between atoms: C_20  and  C_21
REMARK    8  A    between atoms: C_20  and  C_27
REMARK                            x       y       z     vdW  Elec       q    Type
REMARK                         _______ _______ _______ _____ _____    ______ ____
ROOT
ATOM      1  C   UNL     1      32.624 -11.263 -23.804  0.00  0.00    +0.021 C 
ENDROOT
BRANCH   1   8
ATOM      2  O   UNL     1      34.583 -12.317 -24.653  0.00  0.00    -0.277 OA
ATOM      3  N   UNL     1      33.440 -13.415 -22.966  0.00  0.00    -0.275 N 
ATOM      4  C   UNL     1      34.414 -14.480 -22.770  0.00  0.00    +0.152 C 
ATOM      5  C   UNL     1      34.032 -15.116 -21.438  0.00  0.00    +0.031 C 
ATOM      6  C   UNL     1      32.525 -14.882 -21.354  0.00  0.00    +0.024 C 
ATOM      7  C   UNL     1      32.345 -13.518 -22.003  0.00  0.00    +0.094 C 
ATOM      8  C   UNL     1      33.646 -12.371 -23.854  0.00  0.00    +0.206 C 
BRANCH   4  11
ATOM      9  O   UNL     1      33.512 -15.200 -24.860  0.00  0.00    -0.273 OA
ATOM     10  N   UNL     1      35.008 -16.588 -23.740  0.00  0.00    -0.303 N 
ATOM     11  C   UNL     1      34.254 -15.440 -23.911  0.00  0.00    +0.241 C 
ATOM     12  H   UNL     1      35.568 -16.665 -22.933  0.00  0.00    +0.149 HD
BRANCH  10  13
ATOM     13  C   UNL     1      35.013 -17.680 -24.687  0.00  0.00    +0.089 C 
BRANCH  13  14
ATOM     14  C   UNL     1      34.958 -19.040 -24.004  0.00  0.00    +0.021 C 
ATOM     15  C   UNL     1      34.586 -18.946 -22.530  0.00  0.00    +0.002 C 
ENDBRANCH  13  14
ENDBRANCH  10  13
ENDBRANCH   4  11
ENDBRANCH   1   8
BRANCH   1  16
ATOM     16  N   UNL     1      32.525 -10.793 -25.185  0.00  0.00    +0.388 N 
ATOM     17  H   UNL     1      32.898 -11.505 -25.814  0.00  0.00    -0.089 HD
ATOM     18  H   UNL     1      33.063  -9.933 -25.290  0.00  0.00    -0.089 HD
ATOM     19  H   UNL     1      31.548 -10.613 -25.414  0.00  0.00    -0.089 HD
ENDBRANCH   1  16
BRANCH   1  20
ATOM     20  C   UNL     1      33.066 -10.149 -22.819  0.00  0.00    +0.033 C 
BRANCH  20  21
ATOM     21  C   UNL     1      32.259 -10.124 -21.520  0.00  0.00    -0.020 C 
ATOM     22  C   UNL     1      31.206 -11.019 -21.335  0.00  0.00    -0.004 C 
ATOM     23  C   UNL     1      32.578  -9.207 -20.519  0.00  0.00    -0.004 C 
ATOM     24  C   UNL     1      30.470 -10.997 -20.151  0.00  0.00    -0.000 C 
ATOM     25  C   UNL     1      31.843  -9.185 -19.333  0.00  0.00    -0.000 C 
ATOM     26  C   UNL     1      30.789 -10.080 -19.149  0.00  0.00    -0.000 C 
ENDBRANCH  20  21
BRANCH  20  27
ATOM     27  C   UNL     1      33.109  -8.757 -23.446  0.00  0.00    -0.020 C 
ATOM     28  C   UNL     1      34.333  -8.190 -23.802  0.00  0.00    -0.004 C 
ATOM     29  C   UNL     1      31.925  -8.053 -23.663  0.00  0.00    -0.004 C 
ATOM     30  C   UNL     1      34.373  -6.920 -24.377  0.00  0.00    -0.000 C 
ATOM     31  C   UNL     1      31.964  -6.782 -24.238  0.00  0.00    -0.000 C 
ATOM     32  C   UNL     1      33.189  -6.215 -24.594  0.00  0.00    -0.000 C 
ENDBRANCH  20  27
ENDBRANCH   1  20
TORSDOF 8
ENDMDL
MODEL 8
REMARK VINA RESULT:      -8.5      8.203     11.292
REMARK  Name = 25271577
REMARK  8 active torsions:
REMARK  status: ('A' for Active; 'I' for Inactive)
REMARK    1  A    between atoms: C_1  and  C_8
REMARK    2  A    between atoms: C_1  and  N_16
REMARK    3  A    between atoms: C_1  and  C_20
REMARK    4  A    between atoms: C_4  and  C_11
REMARK    5  A    between atoms: N_10  and  C_13
REMARK    6  A    between atoms: C_13  and  C_14
REMARK    7  A    between atoms: C_20  and  C_21
REMARK    8  A    between atoms: C_20  and  C_27
REMARK                            x       y       z     vdW  Elec       q    Type
REMARK                         _______ _______ _______ _____ _____    ______ ____
ROOT
ATOM      1  C   UNL     1      33.581 -23.212 -15.135  0.00  0.00    +0.021 C 
ENDROOT
BRANCH   1   8
ATOM      2  O   UNL     1      33.507 -25.258 -13.920  0.00  0.00    -0.277 OA
ATOM      3  N   UNL     1      35.582 -24.539 -14.651  0.00  0.00    -0.275 N 
ATOM      4  C   UNL     1      36.321 -25.730 -14.253  0.00  0.00    +0.152 C 
ATOM      5  C   UNL     1      37.656 -25.620 -14.981  0.00  0.00    +0.031 C 
ATOM      6  C   UNL     1      37.859 -24.113 -15.122  0.00  0.00    +0.024 C 
ATOM      7  C   UNL     1      36.448 -23.589 -15.345  0.00  0.00    +0.094 C 
ATOM      8  C   UNL     1      34.207 -24.435 -14.512  0.00  0.00    +0.206 C 
BRANCH   4  11
ATOM      9  O   UNL     1      37.201 -26.467 -12.160  0.00  0.00    -0.273 OA
ATOM     10  N   UNL     1      35.754 -24.643 -12.195  0.00  0.00    -0.303 N 
ATOM     11  C   UNL     1      36.492 -25.667 -12.765  0.00  0.00    +0.241 C 
ATOM     12  H   UNL     1      35.222 -24.064 -12.787  0.00  0.00    +0.149 HD
BRANCH  10  13
ATOM     13  C   UNL     1      35.728 -24.384 -10.774  0.00  0.00    +0.089 C 
BRANCH  13  14
ATOM     14  C   UNL     1      36.622 -23.215 -10.381  0.00  0.00    +0.021 C 
ATOM     15  C   UNL     1      37.456 -22.694 -11.544  0.00  0.00    +0.002 C 
ENDBRANCH  13  14
ENDBRANCH  10  13
ENDBRANCH   4  11
ENDBRANCH   1   8
BRANCH   1  16
ATOM     16  N   UNL     1      32.680 -22.696 -14.105  0.00  0.00    +0.388 N 
ATOM     17  H   UNL     1      33.112 -21.894 -13.647  0.00  0.00    -0.089 HD
ATOM     18  H   UNL     1      32.500 -23.425 -13.415  0.00  0.00    -0.089 HD
ATOM     19  H   UNL     1      31.801 -22.411 -14.535  0.00  0.00    -0.089 HD
ENDBRANCH   1  16
BRANCH   1  20
ATOM     20  C   UNL     1      32.845 -23.579 -16.450  0.00  0.00    +0.033 C 
BRANCH  20  21
ATOM     21  C   UNL     1      33.266 -22.726 -17.647  0.00  0.00    -0.020 C 
ATOM     22  C   UNL     1      34.604 -22.688 -18.041  0.00  0.00    -0.004 C 
ATOM     23  C   UNL     1      32.312 -21.987 -18.348  0.00  0.00    -0.004 C 
ATOM     24  C   UNL     1      34.988 -21.910 -19.133  0.00  0.00    -0.000 C 
ATOM     25  C   UNL     1      32.696 -21.210 -19.441  0.00  0.00    -0.000 C 
ATOM     26  C   UNL     1      34.034 -21.172 -19.833  0.00  0.00    -0.000 C 
ENDBRANCH  20  21
BRANCH  20  27
ATOM     27  C   UNL     1      31.324 -23.595 -16.318  0.00  0.00    -0.020 C 
ATOM     28  C   UNL     1      30.584 -22.454 -16.629  0.00  0.00    -0.004 C 
ATOM     29  C   UNL     1      30.674 -24.751 -15.886  0.00  0.00    -0.004 C 
ATOM     30  C   UNL     1      29.195 -22.469 -16.510  0.00  0.00    -0.000 C 
ATOM     31  C   UNL     1      29.283 -24.767 -15.767  0.00  0.00    -0.000 C 
ATOM     32  C   UNL     1      28.544 -23.625 -16.078  0.00  0.00    -0.000 C 
ENDBRANCH  20  27
ENDBRANCH   1  20
TORSDOF 8
ENDMDL
MODEL 9
REMARK VINA RESULT:      -8.4      4.125      8.792
REMARK  Name = 25271577
REMARK  8 active torsions:
REMARK  status: ('A' for Active; 'I' for Inactive)
REMARK    1  A    between atoms: C_1  and  C_8
REMARK    2  A    between atoms: C_1  and  N_16
REMARK    3  A    between atoms: C_1  and  C_20
REMARK    4  A    between atoms: C_4  and  C_11
REMARK    5  A    between atoms: N_10  and  C_13
REMARK    6  A    between atoms: C_13  and  C_14
REMARK    7  A    between atoms: C_20  and  C_21
REMARK    8  A    between atoms: C_20  and  C_27
REMARK                            x       y       z     vdW  Elec       q    Type
REMARK                         _______ _______ _______ _____ _____    ______ ____
ROOT
ATOM      1  C   UNL     1      31.979 -11.349 -22.868  0.00  0.00    +0.021 C 
ENDROOT
BRANCH   1   8
ATOM      2  O   UNL     1      32.104 -10.162 -20.808  0.00  0.00    -0.277 OA
ATOM      3  N   UNL     1      33.035  -9.148 -22.669  0.00  0.00    -0.275 N 
ATOM      4  C   UNL     1      33.628  -8.019 -21.966  0.00  0.00    +0.152 C 
ATOM      5  C   UNL     1      34.610  -7.413 -22.961  0.00  0.00    +0.031 C 
ATOM      6  C   UNL     1      33.993  -7.749 -24.316  0.00  0.00    +0.024 C 
ATOM      7  C   UNL     1      33.376  -9.121 -24.090  0.00  0.00    +0.094 C 
ATOM      8  C   UNL     1      32.375 -10.174 -22.010  0.00  0.00    +0.206 C 
BRANCH   4  11
ATOM      9  O   UNL     1      32.013  -7.026 -20.514  0.00  0.00    -0.273 OA
ATOM     10  N   UNL     1      32.135  -6.305 -22.724  0.00  0.00    -0.303 N 
ATOM     11  C   UNL     1      32.515  -7.070 -21.635  0.00  0.00    +0.241 C 
ATOM     12  H   UNL     1      32.615  -6.431 -23.575  0.00  0.00    +0.149 HD
BRANCH  10  13
ATOM     13  C   UNL     1      31.069  -5.332 -22.674  0.00  0.00    +0.089 C 
BRANCH  13  14
ATOM     14  C   UNL     1      31.265  -4.205 -23.681  0.00  0.00    +0.021 C 
ATOM     15  C   UNL     1      31.884  -4.684 -24.987  0.00  0.00    +0.002 C 
ENDBRANCH  13  14
ENDBRANCH  10  13
ENDBRANCH   4  11
ENDBRANCH   1   8
BRANCH   1  16
ATOM     16  N   UNL     1      30.939 -12.031 -22.098  0.00  0.00    +0.388 N 
ATOM     17  H   UNL     1      30.300 -12.504 -22.736  0.00  0.00    -0.089 HD
ATOM     18  H   UNL     1      30.423 -11.347 -21.545  0.00  0.00    -0.089 HD
ATOM     19  H   UNL     1      31.370 -12.715 -21.477  0.00  0.00    -0.089 HD
ENDBRANCH   1  16
BRANCH   1  20
ATOM     20  C   UNL     1      33.203 -12.255 -23.162  0.00  0.00    +0.033 C 
BRANCH  20  21
ATOM     21  C   UNL     1      33.263 -12.757 -24.605  0.00  0.00    -0.020 C 
ATOM     22  C   UNL     1      33.805 -11.948 -25.604  0.00  0.00    -0.004 C 
ATOM     23  C   UNL     1      32.776 -14.025 -24.923  0.00  0.00    -0.004 C 
ATOM     24  C   UNL     1      33.860 -12.405 -26.920  0.00  0.00    -0.000 C 
ATOM     25  C   UNL     1      32.832 -14.483 -26.240  0.00  0.00    -0.000 C 
ATOM     26  C   UNL     1      33.374 -13.673 -27.238  0.00  0.00    -0.000 C 
ENDBRANCH  20  21
BRANCH  20  27
ATOM     27  C   UNL     1      33.351 -13.421 -22.187  0.00  0.00    -0.020 C 
ATOM     28  C   UNL     1      32.373 -13.648 -21.217  0.00  0.00    -0.004 C 
ATOM     29  C   UNL     1      34.463 -14.260 -22.266  0.00  0.00    -0.004 C 
ATOM     30  C   UNL     1      32.507 -14.714 -20.328  0.00  0.00    -0.000 C 
ATOM     31  C   UNL     1      34.597 -15.326 -21.376  0.00  0.00    -0.000 C 
ATOM     32  C   UNL     1      33.619 -15.553 -20.407  0.00  0.00    -0.000 C 
ENDBRANCH  20  27
ENDBRANCH   1  20
TORSDOF 8
ENDMDL
