MODEL 1
REMARK VINA RESULT:      -9.3      0.000      0.000
REMARK  Name = 51263
REMARK  9 active torsions:
REMARK  status: ('A' for Active; 'I' for Inactive)
REMARK    1  A    between atoms: N_1  and  C_22
REMARK    2  A    between atoms: C_2  and  N_9
REMARK    3  A    between atoms: C_2  and  C_19
REMARK    4  A    between atoms: N_9  and  C_11
REMARK    5  A    between atoms: C_10  and  C_17
REMARK    6  A    between atoms: C_19  and  O_20
REMARK    7  A    between atoms: C_22  and  C_23
REMARK    8  A    between atoms: C_23  and  N_25
REMARK    9  A    between atoms: N_27  and  C_30
REMARK                            x       y       z     vdW  Elec       q    Type
REMARK                         _______ _______ _______ _____ _____    ______ ____
ROOT
ATOM      1  N   UNL     1      34.382 -15.510 -21.215  0.00  0.00    +0.388 N 
ATOM      2  C   UNL     1      33.069 -13.534 -22.989  0.00  0.00    +0.088 C 
ATOM      3  C   UNL     1      34.574 -13.861 -23.051  0.00  0.00    -0.002 C 
ATOM      4  C   UNL     1      32.535 -13.908 -21.591  0.00  0.00    -0.002 C 
ATOM      5  C   UNL     1      34.899 -15.278 -22.570  0.00  0.00    -0.076 C 
ATOM      6  C   UNL     1      32.928 -15.323 -21.159  0.00  0.00    -0.076 C 
ATOM      7  H   UNL     1      34.810 -14.821 -20.596  0.00  0.00    -0.080 HD
ENDROOT
BRANCH   2   9
ATOM      8  O   UNL     1      31.094 -11.798 -21.693  0.00  0.00    -0.275 OA
ATOM      9  N   UNL     1      32.882 -12.107 -23.204  0.00  0.00    -0.260 N 
ATOM     10  C   UNL     1      31.891 -11.351 -22.523  0.00  0.00    +0.229 C 
BRANCH   9  11
ATOM     11  C   UNL     1      33.749 -11.427 -24.156  0.00  0.00    +0.054 C 
ATOM     12  C   UNL     1      33.864 -11.905 -25.462  0.00  0.00    +0.015 C 
ATOM     13  C   UNL     1      34.464 -10.296 -23.763  0.00  0.00    +0.015 C 
ATOM     14  C   UNL     1      34.694 -11.253 -26.374  0.00  0.00    +0.001 C 
ATOM     15  C   UNL     1      35.294  -9.643 -24.675  0.00  0.00    +0.001 C 
ATOM     16  C   UNL     1      35.410 -10.122 -25.980  0.00  0.00    +0.000 C 
ENDBRANCH   9  11
BRANCH  10  17
ATOM     17  C   UNL     1      31.814  -9.877 -22.910  0.00  0.00    +0.086 C 
ATOM     18  C   UNL     1      31.814  -8.949 -21.704  0.00  0.00    +0.010 C 
ENDBRANCH  10  17
ENDBRANCH   2   9
BRANCH   2  19
ATOM     19  C   UNL     1      32.298 -14.281 -24.089  0.00  0.00    +0.160 C 
BRANCH  19  20
ATOM     20  O   UNL     1      33.219 -15.066 -24.820  0.00  0.00    -0.349 OA
ATOM     21  C   UNL     1      32.874 -15.141 -26.199  0.00  0.00    +0.174 C 
ENDBRANCH  19  20
ENDBRANCH   2  19
BRANCH   1  22
ATOM     22  C   UNL     1      34.747 -16.848 -20.750  0.00  0.00    -0.050 C 
BRANCH  22  23
ATOM     23  C   UNL     1      34.214 -17.904 -21.706  0.00  0.00    +0.111 C 
BRANCH  23  25
ATOM     24  O   UNL     1      36.127 -19.829 -20.460  0.00  0.00    -0.243 OA
ATOM     25  N   UNL     1      33.951 -19.141 -21.022  0.00  0.00    -0.184 N 
ATOM     26  N   UNL     1      32.710 -19.678 -20.814  0.00  0.00    -0.042 NA
ATOM     27  N   UNL     1      34.158 -21.005 -19.944  0.00  0.00    -0.182 N 
ATOM     28  N   UNL     1      32.832 -20.771 -20.181  0.00  0.00    -0.042 NA
ATOM     29  C   UNL     1      34.916 -19.972 -20.474  0.00  0.00    +0.365 A 
BRANCH  27  30
ATOM     30  C   UNL     1      34.607 -22.177 -19.240  0.00  0.00    +0.134 C 
ATOM     31  C   UNL     1      33.556 -22.681 -18.274  0.00  0.00    +0.029 C 
ENDBRANCH  27  30
ENDBRANCH  23  25
ENDBRANCH  22  23
ENDBRANCH   1  22
TORSDOF 9
ENDMDL
MODEL 2
REMARK VINA RESULT:      -8.8      1.978      3.377
REMARK  Name = 51263
REMARK  9 active torsions:
REMARK  status: ('A' for Active; 'I' for Inactive)
REMARK    1  A    between atoms: N_1  and  C_22
REMARK    2  A    between atoms: C_2  and  N_9
REMARK    3  A    between atoms: C_2  and  C_19
REMARK    4  A    between atoms: N_9  and  C_11
REMARK    5  A    between atoms: C_10  and  C_17
REMARK    6  A    between atoms: C_19  and  O_20
REMARK    7  A    between atoms: C_22  and  C_23
REMARK    8  A    between atoms: C_23  and  N_25
REMARK    9  A    between atoms: N_27  and  C_30
REMARK                            x       y       z     vdW  Elec       q    Type
REMARK                         _______ _______ _______ _____ _____    ______ ____
ROOT
ATOM      1  N   UNL     1      33.428 -14.922 -24.018  0.00  0.00    +0.388 N 
ATOM      2  C   UNL     1      33.049 -12.121 -23.130  0.00  0.00    +0.088 C 
ATOM      3  C   UNL     1      33.816 -13.175 -22.307  0.00  0.00    -0.002 C 
ATOM      4  C   UNL     1      32.086 -12.845 -24.092  0.00  0.00    -0.002 C 
ATOM      5  C   UNL     1      34.440 -14.273 -23.174  0.00  0.00    -0.076 C 
ATOM      6  C   UNL     1      32.768 -13.953 -24.900  0.00  0.00    -0.076 C 
ATOM      7  H   UNL     1      32.718 -15.320 -23.402  0.00  0.00    -0.080 HD
ENDROOT
BRANCH   2   9
ATOM      8  O   UNL     1      31.611 -12.977 -20.724  0.00  0.00    -0.275 OA
ATOM      9  N   UNL     1      32.277 -11.282 -22.226  0.00  0.00    -0.260 N 
ATOM     10  C   UNL     1      31.613 -11.795 -21.080  0.00  0.00    +0.229 C 
BRANCH   9  11
ATOM     11  C   UNL     1      32.183  -9.856 -22.508  0.00  0.00    +0.054 C 
ATOM     12  C   UNL     1      33.109  -8.972 -21.953  0.00  0.00    +0.015 C 
ATOM     13  C   UNL     1      31.167  -9.374 -23.333  0.00  0.00    +0.015 C 
ATOM     14  C   UNL     1      33.018  -7.606 -22.223  0.00  0.00    +0.001 C 
ATOM     15  C   UNL     1      31.077  -8.009 -23.603  0.00  0.00    +0.001 C 
ATOM     16  C   UNL     1      32.002  -7.124 -23.048  0.00  0.00    +0.000 C 
ENDBRANCH   9  11
BRANCH  10  17
ATOM     17  C   UNL     1      30.816 -10.773 -20.274  0.00  0.00    +0.086 C 
ATOM     18  C   UNL     1      31.377 -10.555 -18.877  0.00  0.00    +0.010 C 
ENDBRANCH  10  17
ENDBRANCH   2   9
BRANCH   2  19
ATOM     19  C   UNL     1      34.019 -11.214 -23.902  0.00  0.00    +0.160 C 
BRANCH  19  20
ATOM     20  O   UNL     1      33.761 -11.363 -25.284  0.00  0.00    -0.349 OA
ATOM     21  C   UNL     1      34.885 -10.993 -26.076  0.00  0.00    +0.174 C 
ENDBRANCH  19  20
ENDBRANCH   2  19
BRANCH   1  22
ATOM     22  C   UNL     1      34.030 -16.002 -24.799  0.00  0.00    -0.050 C 
BRANCH  22  23
ATOM     23  C   UNL     1      35.295 -16.505 -24.121  0.00  0.00    +0.111 C 
BRANCH  23  25
ATOM     24  O   UNL     1      35.079 -16.976 -21.180  0.00  0.00    -0.243 OA
ATOM     25  N   UNL     1      35.052 -17.729 -23.407  0.00  0.00    -0.184 N 
ATOM     26  N   UNL     1      34.868 -18.955 -23.984  0.00  0.00    -0.042 NA
ATOM     27  N   UNL     1      34.727 -19.200 -21.855  0.00  0.00    -0.182 N 
ATOM     28  N   UNL     1      34.678 -19.818 -23.073  0.00  0.00    -0.042 NA
ATOM     29  C   UNL     1      34.969 -17.846 -22.028  0.00  0.00    +0.365 A 
BRANCH  27  30
ATOM     30  C   UNL     1      34.546 -19.929 -20.627  0.00  0.00    +0.134 C 
ATOM     31  C   UNL     1      33.088 -20.263 -20.390  0.00  0.00    +0.029 C 
ENDBRANCH  27  30
ENDBRANCH  23  25
ENDBRANCH  22  23
ENDBRANCH   1  22
TORSDOF 9
ENDMDL
MODEL 3
REMARK VINA RESULT:      -8.8      1.355      2.847
REMARK  Name = 51263
REMARK  9 active torsions:
REMARK  status: ('A' for Active; 'I' for Inactive)
REMARK    1  A    between atoms: N_1  and  C_22
REMARK    2  A    between atoms: C_2  and  N_9
REMARK    3  A    between atoms: C_2  and  C_19
REMARK    4  A    between atoms: N_9  and  C_11
REMARK    5  A    between atoms: C_10  and  C_17
REMARK    6  A    between atoms: C_19  and  O_20
REMARK    7  A    between atoms: C_22  and  C_23
REMARK    8  A    between atoms: C_23  and  N_25
REMARK    9  A    between atoms: N_27  and  C_30
REMARK                            x       y       z     vdW  Elec       q    Type
REMARK                         _______ _______ _______ _____ _____    ______ ____
ROOT
ATOM      1  N   UNL     1      34.495 -16.055 -21.274  0.00  0.00    +0.388 N 
ATOM      2  C   UNL     1      33.130 -13.899 -22.779  0.00  0.00    +0.088 C 
ATOM      3  C   UNL     1      34.647 -14.159 -22.859  0.00  0.00    -0.002 C 
ATOM      4  C   UNL     1      32.593 -14.483 -21.457  0.00  0.00    -0.002 C 
ATOM      5  C   UNL     1      35.020 -15.617 -22.574  0.00  0.00    -0.076 C 
ATOM      6  C   UNL     1      33.034 -15.930 -21.219  0.00  0.00    -0.076 C 
ATOM      7  H   UNL     1      34.889 -15.444 -20.558  0.00  0.00    -0.080 HD
ENDROOT
BRANCH   2   9
ATOM      8  O   UNL     1      34.059 -11.982 -24.792  0.00  0.00    -0.275 OA
ATOM      9  N   UNL     1      32.891 -12.464 -22.797  0.00  0.00    -0.260 N 
ATOM     10  C   UNL     1      33.387 -11.616 -23.823  0.00  0.00    +0.229 C 
BRANCH   9  11
ATOM     11  C   UNL     1      32.111 -11.873 -21.719  0.00  0.00    +0.054 C 
ATOM     12  C   UNL     1      30.770 -11.546 -21.926  0.00  0.00    +0.015 C 
ATOM     13  C   UNL     1      32.704 -11.633 -20.479  0.00  0.00    +0.015 C 
ATOM     14  C   UNL     1      30.023 -10.980 -20.893  0.00  0.00    +0.001 C 
ATOM     15  C   UNL     1      31.956 -11.067 -19.446  0.00  0.00    +0.001 C 
ATOM     16  C   UNL     1      30.616 -10.740 -19.653  0.00  0.00    +0.000 C 
ENDBRANCH   9  11
BRANCH  10  17
ATOM     17  C   UNL     1      33.076 -10.132 -23.652  0.00  0.00    +0.086 C 
ATOM     18  C   UNL     1      34.308  -9.250 -23.788  0.00  0.00    +0.010 C 
ENDBRANCH  10  17
ENDBRANCH   2   9
BRANCH   2  19
ATOM     19  C   UNL     1      32.403 -14.512 -23.986  0.00  0.00    +0.160 C 
BRANCH  19  20
ATOM     20  O   UNL     1      33.373 -15.052 -24.861  0.00  0.00    -0.349 OA
ATOM     21  C   UNL     1      32.932 -15.038 -26.215  0.00  0.00    +0.174 C 
ENDBRANCH  19  20
ENDBRANCH   2  19
BRANCH   1  22
ATOM     22  C   UNL     1      34.905 -17.430 -20.994  0.00  0.00    -0.050 C 
BRANCH  22  23
ATOM     23  C   UNL     1      33.944 -18.412 -21.647  0.00  0.00    +0.111 C 
BRANCH  23  25
ATOM     24  O   UNL     1      35.871 -20.448 -20.614  0.00  0.00    -0.243 OA
ATOM     25  N   UNL     1      33.706 -19.550 -20.799  0.00  0.00    -0.184 N 
ATOM     26  N   UNL     1      32.489 -19.914 -20.294  0.00  0.00    -0.042 NA
ATOM     27  N   UNL     1      33.945 -21.332 -19.597  0.00  0.00    -0.182 N 
ATOM     28  N   UNL     1      32.629 -20.960 -19.588  0.00  0.00    -0.042 NA
ATOM     29  C   UNL     1      34.675 -20.444 -20.372  0.00  0.00    +0.365 A 
BRANCH  27  30
ATOM     30  C   UNL     1      34.410 -22.490 -18.880  0.00  0.00    +0.134 C 
ATOM     31  C   UNL     1      33.377 -22.979 -17.887  0.00  0.00    +0.029 C 
ENDBRANCH  27  30
ENDBRANCH  23  25
ENDBRANCH  22  23
ENDBRANCH   1  22
TORSDOF 9
ENDMDL
MODEL 4
REMARK VINA RESULT:      -8.8      3.341      5.277
REMARK  Name = 51263
REMARK  9 active torsions:
REMARK  status: ('A' for Active; 'I' for Inactive)
REMARK    1  A    between atoms: N_1  and  C_22
REMARK    2  A    between atoms: C_2  and  N_9
REMARK    3  A    between atoms: C_2  and  C_19
REMARK    4  A    between atoms: N_9  and  C_11
REMARK    5  A    between atoms: C_10  and  C_17
REMARK    6  A    between atoms: C_19  and  O_20
REMARK    7  A    between atoms: C_22  and  C_23
REMARK    8  A    between atoms: C_23  and  N_25
REMARK    9  A    between atoms: N_27  and  C_30
REMARK                            x       y       z     vdW  Elec       q    Type
REMARK                         _______ _______ _______ _____ _____    ______ ____
ROOT
ATOM      1  N   UNL     1      35.803 -19.503 -20.381  0.00  0.00    +0.388 N 
ATOM      2  C   UNL     1      35.017 -17.972 -22.792  0.00  0.00    +0.088 C 
ATOM      3  C   UNL     1      36.214 -17.592 -21.899  0.00  0.00    -0.002 C 
ATOM      4  C   UNL     1      34.031 -18.823 -21.967  0.00  0.00    -0.002 C 
ATOM      5  C   UNL     1      36.820 -18.793 -21.167  0.00  0.00    -0.076 C 
ATOM      6  C   UNL     1      34.709 -19.983 -21.234  0.00  0.00    -0.076 C 
ATOM      7  H   UNL     1      35.411 -18.843 -19.710  0.00  0.00    -0.080 HD
ENDROOT
BRANCH   2   9
ATOM      8  O   UNL     1      34.595 -17.091 -25.555  0.00  0.00    -0.275 OA
ATOM      9  N   UNL     1      34.346 -16.757 -23.231  0.00  0.00    -0.260 N 
ATOM     10  C   UNL     1      34.191 -16.418 -24.602  0.00  0.00    +0.229 C 
BRANCH   9  11
ATOM     11  C   UNL     1      33.810 -15.854 -22.223  0.00  0.00    +0.054 C 
ATOM     12  C   UNL     1      34.341 -14.572 -22.081  0.00  0.00    +0.015 C 
ATOM     13  C   UNL     1      32.764 -16.270 -21.399  0.00  0.00    +0.015 C 
ATOM     14  C   UNL     1      33.827 -13.706 -21.115  0.00  0.00    +0.001 C 
ATOM     15  C   UNL     1      32.250 -15.405 -20.433  0.00  0.00    +0.001 C 
ATOM     16  C   UNL     1      32.781 -14.123 -20.291  0.00  0.00    +0.000 C 
ENDBRANCH   9  11
BRANCH  10  17
ATOM     17  C   UNL     1      33.501 -15.085 -24.871  0.00  0.00    +0.086 C 
ATOM     18  C   UNL     1      32.982 -14.966 -26.297  0.00  0.00    +0.010 C 
ENDBRANCH  10  17
ENDBRANCH   2   9
BRANCH   2  19
ATOM     19  C   UNL     1      35.483 -18.731 -24.044  0.00  0.00    +0.160 C 
BRANCH  19  20
ATOM     20  O   UNL     1      34.626 -19.838 -24.236  0.00  0.00    -0.349 OA
ATOM     21  C   UNL     1      34.995 -20.601 -25.381  0.00  0.00    +0.174 C 
ENDBRANCH  19  20
ENDBRANCH   2  19
BRANCH   1  22
ATOM     22  C   UNL     1      36.408 -20.615 -19.647  0.00  0.00    -0.050 C 
BRANCH  22  23
ATOM     23  C   UNL     1      35.636 -21.900 -19.903  0.00  0.00    +0.111 C 
BRANCH  23  25
ATOM     24  O   UNL     1      32.715 -22.247 -19.385  0.00  0.00    -0.243 OA
ATOM     25  N   UNL     1      34.966 -22.350 -18.712  0.00  0.00    -0.184 N 
ATOM     26  N   UNL     1      35.586 -22.716 -17.550  0.00  0.00    -0.042 NA
ATOM     27  N   UNL     1      33.467 -22.937 -17.267  0.00  0.00    -0.182 N 
ATOM     28  N   UNL     1      34.706 -23.061 -16.702  0.00  0.00    -0.042 NA
ATOM     29  C   UNL     1      33.593 -22.478 -18.569  0.00  0.00    +0.365 A 
BRANCH  27  30
ATOM     30  C   UNL     1      32.267 -23.257 -16.541  0.00  0.00    +0.134 C 
ATOM     31  C   UNL     1      32.572 -23.646 -15.109  0.00  0.00    +0.029 C 
ENDBRANCH  27  30
ENDBRANCH  23  25
ENDBRANCH  22  23
ENDBRANCH   1  22
TORSDOF 9
ENDMDL
MODEL 5
REMARK VINA RESULT:      -8.6      1.506      2.139
REMARK  Name = 51263
REMARK  9 active torsions:
REMARK  status: ('A' for Active; 'I' for Inactive)
REMARK    1  A    between atoms: N_1  and  C_22
REMARK    2  A    between atoms: C_2  and  N_9
REMARK    3  A    between atoms: C_2  and  C_19
REMARK    4  A    between atoms: N_9  and  C_11
REMARK    5  A    between atoms: C_10  and  C_17
REMARK    6  A    between atoms: C_19  and  O_20
REMARK    7  A    between atoms: C_22  and  C_23
REMARK    8  A    between atoms: C_23  and  N_25
REMARK    9  A    between atoms: N_27  and  C_30
REMARK                            x       y       z     vdW  Elec       q    Type
REMARK                         _______ _______ _______ _____ _____    ______ ____
ROOT
ATOM      1  N   UNL     1      34.956 -15.785 -23.256  0.00  0.00    +0.388 N 
ATOM      2  C   UNL     1      33.183 -13.442 -22.877  0.00  0.00    +0.088 C 
ATOM      3  C   UNL     1      33.198 -14.296 -24.160  0.00  0.00    -0.002 C 
ATOM      4  C   UNL     1      34.531 -13.613 -22.150  0.00  0.00    -0.002 C 
ATOM      5  C   UNL     1      33.644 -15.740 -23.914  0.00  0.00    -0.076 C 
ATOM      6  C   UNL     1      34.933 -15.080 -21.969  0.00  0.00    -0.076 C 
ATOM      7  H   UNL     1      35.624 -15.308 -23.862  0.00  0.00    -0.080 HD
ENDROOT
BRANCH   2   9
ATOM      8  O   UNL     1      31.292 -11.537 -21.700  0.00  0.00    -0.275 OA
ATOM      9  N   UNL     1      33.010 -12.043 -23.238  0.00  0.00    -0.260 N 
ATOM     10  C   UNL     1      32.061 -11.197 -22.604  0.00  0.00    +0.229 C 
BRANCH   9  11
ATOM     11  C   UNL     1      33.847 -11.486 -24.292  0.00  0.00    +0.054 C 
ATOM     12  C   UNL     1      33.820 -12.041 -25.571  0.00  0.00    +0.015 C 
ATOM     13  C   UNL     1      34.677 -10.398 -24.021  0.00  0.00    +0.015 C 
ATOM     14  C   UNL     1      34.622 -11.508 -26.581  0.00  0.00    +0.001 C 
ATOM     15  C   UNL     1      35.479  -9.865 -25.030  0.00  0.00    +0.001 C 
ATOM     16  C   UNL     1      35.452 -10.419 -26.310  0.00  0.00    +0.000 C 
ENDBRANCH   9  11
BRANCH  10  17
ATOM     17  C   UNL     1      31.991  -9.773 -23.144  0.00  0.00    +0.086 C 
ATOM     18  C   UNL     1      32.004  -8.722 -22.044  0.00  0.00    +0.010 C 
ENDBRANCH  10  17
ENDBRANCH   2   9
BRANCH   2  19
ATOM     19  C   UNL     1      32.012 -13.841 -21.965  0.00  0.00    +0.160 C 
BRANCH  19  20
ATOM     20  O   UNL     1      32.544 -14.336 -20.753  0.00  0.00    -0.349 OA
ATOM     21  C   UNL     1      32.022 -15.622 -20.432  0.00  0.00    +0.174 C 
ENDBRANCH  19  20
ENDBRANCH   2  19
BRANCH   1  22
ATOM     22  C   UNL     1      35.391 -17.169 -23.076  0.00  0.00    -0.050 C 
BRANCH  22  23
ATOM     23  C   UNL     1      34.379 -17.938 -22.241  0.00  0.00    +0.111 C 
BRANCH  23  25
ATOM     24  O   UNL     1      33.285 -20.365 -20.888  0.00  0.00    -0.243 OA
ATOM     25  N   UNL     1      35.031 -18.860 -21.351  0.00  0.00    -0.184 N 
ATOM     26  N   UNL     1      36.336 -18.779 -20.949  0.00  0.00    -0.042 NA
ATOM     27  N   UNL     1      35.465 -20.508 -20.019  0.00  0.00    -0.182 N 
ATOM     28  N   UNL     1      36.590 -19.746 -20.168  0.00  0.00    -0.042 NA
ATOM     29  C   UNL     1      34.432 -19.967 -20.769  0.00  0.00    +0.365 A 
BRANCH  27  30
ATOM     30  C   UNL     1      35.448 -21.681 -19.185  0.00  0.00    +0.134 C 
ATOM     31  C   UNL     1      36.613 -21.689 -18.216  0.00  0.00    +0.029 C 
ENDBRANCH  27  30
ENDBRANCH  23  25
ENDBRANCH  22  23
ENDBRANCH   1  22
TORSDOF 9
ENDMDL
MODEL 6
REMARK VINA RESULT:      -8.6     10.434     13.853
REMARK  Name = 51263
REMARK  9 active torsions:
REMARK  status: ('A' for Active; 'I' for Inactive)
REMARK    1  A    between atoms: N_1  and  C_22
REMARK    2  A    between atoms: C_2  and  N_9
REMARK    3  A    between atoms: C_2  and  C_19
REMARK    4  A    between atoms: N_9  and  C_11
REMARK    5  A    between atoms: C_10  and  C_17
REMARK    6  A    between atoms: C_19  and  O_20
REMARK    7  A    between atoms: C_22  and  C_23
REMARK    8  A    between atoms: C_23  and  N_25
REMARK    9  A    between atoms: N_27  and  C_30
REMARK                            x       y       z     vdW  Elec       q    Type
REMARK                         _______ _______ _______ _____ _____    ______ ____
ROOT
ATOM      1  N   UNL     1      31.397 -23.523 -14.201  0.00  0.00    +0.388 N 
ATOM      2  C   UNL     1      34.179 -24.294 -14.868  0.00  0.00    +0.088 C 
ATOM      3  C   UNL     1      33.038 -25.313 -14.684  0.00  0.00    -0.002 C 
ATOM      4  C   UNL     1      33.813 -22.996 -14.120  0.00  0.00    -0.002 C 
ATOM      5  C   UNL     1      31.657 -24.729 -14.998  0.00  0.00    -0.076 C 
ATOM      6  C   UNL     1      32.408 -22.489 -14.453  0.00  0.00    -0.076 C 
ATOM      7  H   UNL     1      31.455 -23.783 -13.216  0.00  0.00    -0.080 HD
ENDROOT
BRANCH   2   9
ATOM      8  O   UNL     1      35.827 -26.448 -15.978  0.00  0.00    -0.275 OA
ATOM      9  N   UNL     1      35.402 -24.842 -14.301  0.00  0.00    -0.260 N 
ATOM     10  C   UNL     1      36.133 -25.891 -14.920  0.00  0.00    +0.229 C 
BRANCH   9  11
ATOM     11  C   UNL     1      35.899 -24.289 -13.049  0.00  0.00    +0.054 C 
ATOM     12  C   UNL     1      36.878 -23.295 -13.064  0.00  0.00    +0.015 C 
ATOM     13  C   UNL     1      35.396 -24.754 -11.833  0.00  0.00    +0.015 C 
ATOM     14  C   UNL     1      37.354 -22.766 -11.864  0.00  0.00    +0.001 C 
ATOM     15  C   UNL     1      35.872 -24.225 -10.633  0.00  0.00    +0.001 C 
ATOM     16  C   UNL     1      36.850 -23.232 -10.648  0.00  0.00    +0.000 C 
ENDBRANCH   9  11
BRANCH  10  17
ATOM     17  C   UNL     1      37.366 -26.367 -14.158  0.00  0.00    +0.086 C 
ATOM     18  C   UNL     1      38.667 -25.874 -14.775  0.00  0.00    +0.010 C 
ENDBRANCH  10  17
ENDBRANCH   2   9
BRANCH   2  19
ATOM     19  C   UNL     1      34.433 -24.017 -16.358  0.00  0.00    +0.160 C 
BRANCH  19  20
ATOM     20  O   UNL     1      35.466 -23.056 -16.460  0.00  0.00    -0.349 OA
ATOM     21  C   UNL     1      35.376 -22.308 -17.668  0.00  0.00    +0.174 C 
ENDBRANCH  19  20
ENDBRANCH   2  19
BRANCH   1  22
ATOM     22  C   UNL     1      30.056 -23.009 -14.473  0.00  0.00    -0.050 C 
BRANCH  22  23
ATOM     23  C   UNL     1      29.230 -24.049 -15.213  0.00  0.00    +0.111 C 
BRANCH  23  25
ATOM     24  O   UNL     1      27.307 -21.776 -14.978  0.00  0.00    -0.243 OA
ATOM     25  N   UNL     1      28.408 -23.439 -16.223  0.00  0.00    -0.184 N 
ATOM     26  N   UNL     1      28.363 -23.817 -17.537  0.00  0.00    -0.042 NA
ATOM     27  N   UNL     1      27.002 -22.176 -17.274  0.00  0.00    -0.182 N 
ATOM     28  N   UNL     1      27.538 -23.075 -18.153  0.00  0.00    -0.042 NA
ATOM     29  C   UNL     1      27.539 -22.380 -16.013  0.00  0.00    +0.365 A 
BRANCH  27  30
ATOM     30  C   UNL     1      26.029 -21.199 -17.688  0.00  0.00    +0.134 C 
ATOM     31  C   UNL     1      25.666 -21.362 -19.149  0.00  0.00    +0.029 C 
ENDBRANCH  27  30
ENDBRANCH  23  25
ENDBRANCH  22  23
ENDBRANCH   1  22
TORSDOF 9
ENDMDL
MODEL 7
REMARK VINA RESULT:      -8.5      2.109      4.268
REMARK  Name = 51263
REMARK  9 active torsions:
REMARK  status: ('A' for Active; 'I' for Inactive)
REMARK    1  A    between atoms: N_1  and  C_22
REMARK    2  A    between atoms: C_2  and  N_9
REMARK    3  A    between atoms: C_2  and  C_19
REMARK    4  A    between atoms: N_9  and  C_11
REMARK    5  A    between atoms: C_10  and  C_17
REMARK    6  A    between atoms: C_19  and  O_20
REMARK    7  A    between atoms: C_22  and  C_23
REMARK    8  A    between atoms: C_23  and  N_25
REMARK    9  A    between atoms: N_27  and  C_30
REMARK                            x       y       z     vdW  Elec       q    Type
REMARK                         _______ _______ _______ _____ _____    ______ ____
ROOT
ATOM      1  N   UNL     1      33.803 -13.671 -24.023  0.00  0.00    +0.388 N 
ATOM      2  C   UNL     1      32.992 -10.884 -23.430  0.00  0.00    +0.088 C 
ATOM      3  C   UNL     1      33.167 -11.430 -24.861  0.00  0.00    -0.002 C 
ATOM      4  C   UNL     1      33.818 -11.753 -22.461  0.00  0.00    -0.002 C 
ATOM      5  C   UNL     1      32.936 -12.941 -24.957  0.00  0.00    -0.076 C 
ATOM      6  C   UNL     1      33.565 -13.253 -22.637  0.00  0.00    -0.076 C 
ATOM      7  H   UNL     1      34.770 -13.447 -24.256  0.00  0.00    -0.080 HD
ENDROOT
BRANCH   2   9
ATOM      8  O   UNL     1      35.418  -9.833 -24.695  0.00  0.00    -0.275 OA
ATOM      9  N   UNL     1      33.483  -9.515 -23.379  0.00  0.00    -0.260 N 
ATOM     10  C   UNL     1      34.677  -9.103 -24.030  0.00  0.00    +0.229 C 
BRANCH   9  11
ATOM     11  C   UNL     1      32.718  -8.527 -22.632  0.00  0.00    +0.054 C 
ATOM     12  C   UNL     1      31.744  -7.765 -23.276  0.00  0.00    +0.015 C 
ATOM     13  C   UNL     1      32.961  -8.342 -21.270  0.00  0.00    +0.015 C 
ATOM     14  C   UNL     1      31.011  -6.818 -22.559  0.00  0.00    +0.001 C 
ATOM     15  C   UNL     1      32.228  -7.396 -20.553  0.00  0.00    +0.001 C 
ATOM     16  C   UNL     1      31.254  -6.633 -21.197  0.00  0.00    +0.000 C 
ENDBRANCH   9  11
BRANCH  10  17
ATOM     17  C   UNL     1      35.058  -7.639 -23.830  0.00  0.00    +0.086 C 
ATOM     18  C   UNL     1      34.672  -6.761 -25.011  0.00  0.00    +0.010 C 
ENDBRANCH  10  17
ENDBRANCH   2   9
BRANCH   2  19
ATOM     19  C   UNL     1      31.510 -10.867 -23.025  0.00  0.00    +0.160 C 
BRANCH  19  20
ATOM     20  O   UNL     1      31.348 -11.707 -21.899  0.00  0.00    -0.349 OA
ATOM     21  C   UNL     1      30.535 -11.101 -20.899  0.00  0.00    +0.174 C 
ENDBRANCH  19  20
ENDBRANCH   2  19
BRANCH   1  22
ATOM     22  C   UNL     1      33.608 -15.113 -24.166  0.00  0.00    -0.050 C 
BRANCH  22  23
ATOM     23  C   UNL     1      34.931 -15.845 -24.000  0.00  0.00    +0.111 C 
BRANCH  23  25
ATOM     24  O   UNL     1      34.616 -18.814 -23.922  0.00  0.00    -0.243 OA
ATOM     25  N   UNL     1      34.897 -16.731 -22.867  0.00  0.00    -0.184 N 
ATOM     26  N   UNL     1      35.010 -16.345 -21.561  0.00  0.00    -0.042 NA
ATOM     27  N   UNL     1      34.779 -18.481 -21.601  0.00  0.00    -0.182 N 
ATOM     28  N   UNL     1      34.940 -17.372 -20.817  0.00  0.00    -0.042 NA
ATOM     29  C   UNL     1      34.745 -18.108 -22.936  0.00  0.00    +0.365 A 
BRANCH  27  30
ATOM     30  C   UNL     1      34.667 -19.799 -21.035  0.00  0.00    +0.134 C 
ATOM     31  C   UNL     1      33.253 -20.089 -20.576  0.00  0.00    +0.029 C 
ENDBRANCH  27  30
ENDBRANCH  23  25
ENDBRANCH  22  23
ENDBRANCH   1  22
TORSDOF 9
ENDMDL
MODEL 8
REMARK VINA RESULT:      -8.3      2.850      8.526
REMARK  Name = 51263
REMARK  9 active torsions:
REMARK  status: ('A' for Active; 'I' for Inactive)
REMARK    1  A    between atoms: N_1  and  C_22
REMARK    2  A    between atoms: C_2  and  N_9
REMARK    3  A    between atoms: C_2  and  C_19
REMARK    4  A    between atoms: N_9  and  C_11
REMARK    5  A    between atoms: C_10  and  C_17
REMARK    6  A    between atoms: C_19  and  O_20
REMARK    7  A    between atoms: C_22  and  C_23
REMARK    8  A    between atoms: C_23  and  N_25
REMARK    9  A    between atoms: N_27  and  C_30
REMARK                            x       y       z     vdW  Elec       q    Type
REMARK                         _______ _______ _______ _____ _____    ______ ____
ROOT
ATOM      1  N   UNL     1      32.662 -13.820 -20.634  0.00  0.00    +0.388 N 
ATOM      2  C   UNL     1      34.063 -15.201 -22.849  0.00  0.00    +0.088 C 
ATOM      3  C   UNL     1      32.531 -15.049 -22.779  0.00  0.00    -0.002 C 
ATOM      4  C   UNL     1      34.641 -15.076 -21.426  0.00  0.00    -0.002 C 
ATOM      5  C   UNL     1      32.088 -13.816 -21.986  0.00  0.00    -0.076 C 
ATOM      6  C   UNL     1      34.129 -13.842 -20.678  0.00  0.00    -0.076 C 
ATOM      7  H   UNL     1      32.350 -14.672 -20.166  0.00  0.00    -0.080 HD
ENDROOT
BRANCH   2   9
ATOM      8  O   UNL     1      34.046 -16.020 -25.664  0.00  0.00    -0.275 OA
ATOM      9  N   UNL     1      34.386 -16.517 -23.381  0.00  0.00    -0.260 N 
ATOM     10  C   UNL     1      34.349 -16.815 -24.769  0.00  0.00    +0.229 C 
BRANCH   9  11
ATOM     11  C   UNL     1      34.766 -17.570 -22.450  0.00  0.00    +0.054 C 
ATOM     12  C   UNL     1      33.783 -18.305 -21.788  0.00  0.00    +0.015 C 
ATOM     13  C   UNL     1      36.115 -17.845 -22.221  0.00  0.00    +0.015 C 
ATOM     14  C   UNL     1      34.148 -19.315 -20.896  0.00  0.00    +0.001 C 
ATOM     15  C   UNL     1      36.480 -18.854 -21.330  0.00  0.00    +0.001 C 
ATOM     16  C   UNL     1      35.497 -19.589 -20.667  0.00  0.00    +0.000 C 
ENDBRANCH   9  11
BRANCH  10  17
ATOM     17  C   UNL     1      34.675 -18.259 -25.136  0.00  0.00    +0.086 C 
ATOM     18  C   UNL     1      33.434 -19.090 -25.425  0.00  0.00    +0.010 C 
ENDBRANCH  10  17
ENDBRANCH   2   9
BRANCH   2  19
ATOM     19  C   UNL     1      34.678 -14.151 -23.787  0.00  0.00    +0.160 C 
BRANCH  19  20
ATOM     20  O   UNL     1      33.628 -13.389 -24.348  0.00  0.00    -0.349 OA
ATOM     21  C   UNL     1      33.989 -12.019 -24.498  0.00  0.00    +0.174 C 
ENDBRANCH  19  20
ENDBRANCH   2  19
BRANCH   1  22
ATOM     22  C   UNL     1      32.188 -12.666 -19.872  0.00  0.00    -0.050 C 
BRANCH  22  23
ATOM     23  C   UNL     1      31.365 -11.746 -20.762  0.00  0.00    +0.111 C 
BRANCH  23  25
ATOM     24  O   UNL     1      31.728  -9.645 -22.853  0.00  0.00    -0.243 OA
ATOM     25  N   UNL     1      31.779 -10.376 -20.619  0.00  0.00    -0.184 N 
ATOM     26  N   UNL     1      32.095  -9.768 -19.436  0.00  0.00    -0.042 NA
ATOM     27  N   UNL     1      32.329  -8.321 -21.006  0.00  0.00    -0.182 N 
ATOM     28  N   UNL     1      32.418  -8.562 -19.663  0.00  0.00    -0.042 NA
ATOM     29  C   UNL     1      31.919  -9.472 -21.660  0.00  0.00    +0.365 A 
BRANCH  27  30
ATOM     30  C   UNL     1      32.637  -7.032 -21.567  0.00  0.00    +0.134 C 
ATOM     31  C   UNL     1      31.394  -6.179 -21.712  0.00  0.00    +0.029 C 
ENDBRANCH  27  30
ENDBRANCH  23  25
ENDBRANCH  22  23
ENDBRANCH   1  22
TORSDOF 9
ENDMDL
MODEL 9
REMARK VINA RESULT:      -8.3      3.681      6.418
REMARK  Name = 51263
REMARK  9 active torsions:
REMARK  status: ('A' for Active; 'I' for Inactive)
REMARK    1  A    between atoms: N_1  and  C_22
REMARK    2  A    between atoms: C_2  and  N_9
REMARK    3  A    between atoms: C_2  and  C_19
REMARK    4  A    between atoms: N_9  and  C_11
REMARK    5  A    between atoms: C_10  and  C_17
REMARK    6  A    between atoms: C_19  and  O_20
REMARK    7  A    between atoms: C_22  and  C_23
REMARK    8  A    between atoms: C_23  and  N_25
REMARK    9  A    between atoms: N_27  and  C_30
REMARK                            x       y       z     vdW  Elec       q    Type
REMARK                         _______ _______ _______ _____ _____    ______ ____
ROOT
ATOM      1  N   UNL     1      33.373 -10.635 -24.064  0.00  0.00    +0.388 N 
ATOM      2  C   UNL     1      33.009  -7.753 -23.479  0.00  0.00    +0.088 C 
ATOM      3  C   UNL     1      31.860  -8.779 -23.435  0.00  0.00    -0.002 C 
ATOM      4  C   UNL     1      34.132  -8.302 -24.383  0.00  0.00    -0.002 C 
ATOM      5  C   UNL     1      32.337 -10.200 -23.118  0.00  0.00    -0.076 C 
ATOM      6  C   UNL     1      34.534  -9.738 -24.034  0.00  0.00    -0.076 C 
ATOM      7  H   UNL     1      32.973 -10.598 -25.002  0.00  0.00    -0.080 HD
ENDROOT
BRANCH   2   9
ATOM      8  O   UNL     1      30.720  -6.184 -22.538  0.00  0.00    -0.275 OA
ATOM      9  N   UNL     1      32.513  -6.506 -24.040  0.00  0.00    -0.260 N 
ATOM     10  C   UNL     1      31.390  -5.818 -23.508  0.00  0.00    +0.229 C 
BRANCH   9  11
ATOM     11  C   UNL     1      33.197  -5.939 -25.194  0.00  0.00    +0.054 C 
ATOM     12  C   UNL     1      34.577  -6.092 -25.332  0.00  0.00    +0.015 C 
ATOM     13  C   UNL     1      32.472  -5.242 -26.162  0.00  0.00    +0.015 C 
ATOM     14  C   UNL     1      35.232  -5.548 -26.437  0.00  0.00    +0.001 C 
ATOM     15  C   UNL     1      33.128  -4.699 -27.267  0.00  0.00    +0.001 C 
ATOM     16  C   UNL     1      34.507  -4.852 -27.405  0.00  0.00    +0.000 C 
ENDBRANCH   9  11
BRANCH  10  17
ATOM     17  C   UNL     1      30.987  -4.550 -24.254  0.00  0.00    +0.086 C 
ATOM     18  C   UNL     1      31.209  -3.287 -23.435  0.00  0.00    +0.010 C 
ENDBRANCH  10  17
ENDBRANCH   2   9
BRANCH   2  19
ATOM     19  C   UNL     1      33.537  -7.457 -22.067  0.00  0.00    +0.160 C 
BRANCH  19  20
ATOM     20  O   UNL     1      32.734  -8.158 -21.138  0.00  0.00    -0.349 OA
ATOM     21  C   UNL     1      32.542  -7.417 -19.937  0.00  0.00    +0.174 C 
ENDBRANCH  19  20
ENDBRANCH   2  19
BRANCH   1  22
ATOM     22  C   UNL     1      33.779 -12.011 -23.781  0.00  0.00    -0.050 C 
BRANCH  22  23
ATOM     23  C   UNL     1      33.364 -12.930 -24.919  0.00  0.00    +0.111 C 
BRANCH  23  25
ATOM     24  O   UNL     1      33.318 -15.309 -26.725  0.00  0.00    -0.243 OA
ATOM     25  N   UNL     1      33.720 -14.296 -24.641  0.00  0.00    -0.184 N 
ATOM     26  N   UNL     1      34.164 -14.765 -23.436  0.00  0.00    -0.042 NA
ATOM     27  N   UNL     1      34.100 -16.419 -24.806  0.00  0.00    -0.182 N 
ATOM     28  N   UNL     1      34.388 -16.011 -23.533  0.00  0.00    -0.042 NA
ATOM     29  C   UNL     1      33.663 -15.337 -25.555  0.00  0.00    +0.365 A 
BRANCH  27  30
ATOM     30  C   UNL     1      34.256 -17.789 -25.216  0.00  0.00    +0.134 C 
ATOM     31  C   UNL     1      34.834 -18.639 -24.104  0.00  0.00    +0.029 C 
ENDBRANCH  27  30
ENDBRANCH  23  25
ENDBRANCH  22  23
ENDBRANCH   1  22
TORSDOF 9
ENDMDL
