MODEL 1
REMARK VINA RESULT:      -8.0      0.000      0.000
REMARK  Name = 55281
REMARK  6 active torsions:
REMARK  status: ('A' for Active; 'I' for Inactive)
REMARK    1  A    between atoms: N_3  and  C1*_13
REMARK    2  A    between atoms: C_7  and  C_22
REMARK    3  A    between atoms: C2*_11  and  O2*_15
REMARK    4  A    between atoms: C3*_12  and  O3*_17
REMARK    5  A    between atoms: C4*_14  and  C5*_19
REMARK    6  A    between atoms: C5*_19  and  O5*_20
REMARK                            x       y       z     vdW  Elec       q    Type
REMARK                         _______ _______ _______ _____ _____    ______ ____
ROOT
ATOM      1  O   UNL     1      32.802 -24.775 -13.515  0.00  0.00    -0.252 OA
ATOM      2  O   UNL     1      31.992 -22.634 -17.504  0.00  0.00    -0.269 OA
ATOM      3  N   UNL     1      34.642 -24.109 -14.788  0.00  0.00    -0.216 N 
ATOM      4  N   UNL     1      32.412 -23.707 -15.506  0.00  0.00    -0.235 N 
ATOM      5  C   UNL     1      35.073 -23.485 -15.957  0.00  0.00    +0.084 C 
ATOM      6  C   UNL     1      33.257 -24.238 -14.526  0.00  0.00    +0.315 C 
ATOM      7  C   UNL     1      34.259 -22.979 -16.891  0.00  0.00    +0.110 C 
ATOM      8  C   UNL     1      32.791 -23.079 -16.684  0.00  0.00    +0.262 C 
ATOM      9  H   UNL     1      31.444 -23.787 -15.343  0.00  0.00    +0.159 HD
ENDROOT
BRANCH   3  13
ATOM     10  O4* UNL     1      36.837 -23.907 -13.990  0.00  0.00    -0.333 OA
ATOM     11  C2* UNL     1      35.931 -26.090 -14.035  0.00  0.00    +0.187 C 
ATOM     12  C3* UNL     1      37.304 -26.176 -13.402  0.00  0.00    +0.171 C 
ATOM     13  C1* UNL     1      35.599 -24.617 -13.851  0.00  0.00    +0.229 C 
ATOM     14  C4* UNL     1      37.924 -24.813 -13.712  0.00  0.00    +0.175 C 
BRANCH  11  15
ATOM     15  O2* UNL     1      36.045 -26.427 -15.413  0.00  0.00    -0.378 OA
ATOM     16  H2* UNL     1      36.614 -25.779 -15.858  0.00  0.00    +0.211 HD
ENDBRANCH  11  15
BRANCH  12  17
ATOM     17  O3* UNL     1      37.163 -26.294 -11.988  0.00  0.00    -0.379 OA
ATOM     18  H3* UNL     1      38.007 -26.575 -11.602  0.00  0.00    +0.211 HD
ENDBRANCH  12  17
BRANCH  14  19
ATOM     19  C5* UNL     1      38.840 -24.827 -14.928  0.00  0.00    +0.169 C 
BRANCH  19  20
ATOM     20  O5* UNL     1      39.030 -26.170 -15.339  0.00  0.00    -0.379 OA
ATOM     21  H5* UNL     1      39.467 -26.184 -16.205  0.00  0.00    +0.211 HD
ENDBRANCH  19  20
ENDBRANCH  14  19
ENDBRANCH   3  13
BRANCH   7  22
ATOM     22  C   UNL     1      34.781 -22.357 -18.057  0.00  0.00    -0.058 C 
ATOM     23  C   UNL     1      35.222 -21.832 -19.043  0.00  0.00    -0.085 C 
ATOM     24  C   UNL     1      35.758 -21.191 -20.242  0.00  0.00    +0.090 C 
ENDBRANCH   7  22
TORSDOF 6
ENDMDL
MODEL 2
REMARK VINA RESULT:      -7.8      2.184      5.062
REMARK  Name = 55281
REMARK  6 active torsions:
REMARK  status: ('A' for Active; 'I' for Inactive)
REMARK    1  A    between atoms: N_3  and  C1*_13
REMARK    2  A    between atoms: C_7  and  C_22
REMARK    3  A    between atoms: C2*_11  and  O2*_15
REMARK    4  A    between atoms: C3*_12  and  O3*_17
REMARK    5  A    between atoms: C4*_14  and  C5*_19
REMARK    6  A    between atoms: C5*_19  and  O5*_20
REMARK                            x       y       z     vdW  Elec       q    Type
REMARK                         _______ _______ _______ _____ _____    ______ ____
ROOT
ATOM      1  O   UNL     1      34.593 -24.470 -12.557  0.00  0.00    -0.252 OA
ATOM      2  O   UNL     1      37.722 -22.450 -15.256  0.00  0.00    -0.269 OA
ATOM      3  N   UNL     1      33.942 -23.864 -14.715  0.00  0.00    -0.216 N 
ATOM      4  N   UNL     1      36.144 -23.462 -13.913  0.00  0.00    -0.235 N 
ATOM      5  C   UNL     1      34.335 -23.285 -15.920  0.00  0.00    +0.084 C 
ATOM      6  C   UNL     1      34.867 -23.970 -13.649  0.00  0.00    +0.315 C 
ATOM      7  C   UNL     1      35.557 -22.800 -16.166  0.00  0.00    +0.110 C 
ATOM      8  C   UNL     1      36.582 -22.877 -15.092  0.00  0.00    +0.262 C 
ATOM      9  H   UNL     1      36.802 -23.526 -13.183  0.00  0.00    +0.159 HD
ENDROOT
BRANCH   3  13
ATOM     10  O4* UNL     1      31.933 -24.346 -15.822  0.00  0.00    -0.333 OA
ATOM     11  C2* UNL     1      31.746 -23.522 -13.614  0.00  0.00    +0.187 C 
ATOM     12  C3* UNL     1      30.351 -23.855 -14.100  0.00  0.00    +0.171 C 
ATOM     13  C1* UNL     1      32.605 -24.352 -14.556  0.00  0.00    +0.229 C 
ATOM     14  C4* UNL     1      30.537 -24.058 -15.605  0.00  0.00    +0.175 C 
BRANCH  11  15
ATOM     15  O2* UNL     1      31.970 -22.130 -13.801  0.00  0.00    -0.378 OA
ATOM     16  H2* UNL     1      31.658 -21.866 -14.681  0.00  0.00    +0.211 HD
ENDBRANCH  11  15
BRANCH  12  17
ATOM     17  O3* UNL     1      29.937 -25.093 -13.528  0.00  0.00    -0.379 OA
ATOM     18  H3* UNL     1      29.178 -24.941 -12.942  0.00  0.00    +0.211 HD
ENDBRANCH  12  17
BRANCH  14  19
ATOM     19  C5* UNL     1      30.180 -22.829 -16.429  0.00  0.00    +0.169 C 
BRANCH  19  20
ATOM     20  O5* UNL     1      31.280 -22.505 -17.263  0.00  0.00    -0.379 OA
ATOM     21  H5* UNL     1      31.245 -23.044 -18.068  0.00  0.00    +0.211 HD
ENDBRANCH  19  20
ENDBRANCH  14  19
ENDBRANCH   3  13
BRANCH   7  22
ATOM     22  C   UNL     1      35.877 -22.224 -17.426  0.00  0.00    -0.058 C 
ATOM     23  C   UNL     1      36.146 -21.737 -18.489  0.00  0.00    -0.085 C 
ATOM     24  C   UNL     1      36.475 -21.144 -19.784  0.00  0.00    +0.090 C 
ENDBRANCH   7  22
TORSDOF 6
ENDMDL
MODEL 3
REMARK VINA RESULT:      -7.4      2.688      5.346
REMARK  Name = 55281
REMARK  6 active torsions:
REMARK  status: ('A' for Active; 'I' for Inactive)
REMARK    1  A    between atoms: N_3  and  C1*_13
REMARK    2  A    between atoms: C_7  and  C_22
REMARK    3  A    between atoms: C2*_11  and  O2*_15
REMARK    4  A    between atoms: C3*_12  and  O3*_17
REMARK    5  A    between atoms: C4*_14  and  C5*_19
REMARK    6  A    between atoms: C5*_19  and  O5*_20
REMARK                            x       y       z     vdW  Elec       q    Type
REMARK                         _______ _______ _______ _____ _____    ______ ____
ROOT
ATOM      1  O   UNL     1      34.897 -24.496 -14.706  0.00  0.00    -0.252 OA
ATOM      2  O   UNL     1      36.249 -21.899 -18.253  0.00  0.00    -0.269 OA
ATOM      3  N   UNL     1      33.247 -23.624 -16.109  0.00  0.00    -0.216 N 
ATOM      4  N   UNL     1      35.558 -23.199 -16.478  0.00  0.00    -0.235 N 
ATOM      5  C   UNL     1      32.982 -22.849 -17.237  0.00  0.00    +0.084 C 
ATOM      6  C   UNL     1      34.584 -23.824 -15.690  0.00  0.00    +0.315 C 
ATOM      7  C   UNL     1      33.917 -22.254 -17.986  0.00  0.00    +0.110 C 
ATOM      8  C   UNL     1      35.344 -22.420 -17.606  0.00  0.00    +0.262 C 
ATOM      9  H   UNL     1      36.494 -23.326 -16.202  0.00  0.00    +0.159 HD
ENDROOT
BRANCH   3  13
ATOM     10  O4* UNL     1      30.959 -24.130 -16.139  0.00  0.00    -0.333 OA
ATOM     11  C2* UNL     1      31.880 -23.549 -14.041  0.00  0.00    +0.187 C 
ATOM     12  C3* UNL     1      30.431 -23.928 -13.817  0.00  0.00    +0.171 C 
ATOM     13  C1* UNL     1      32.169 -24.217 -15.376  0.00  0.00    +0.229 C 
ATOM     14  C4* UNL     1      29.851 -23.963 -15.232  0.00  0.00    +0.175 C 
BRANCH  11  15
ATOM     15  O2* UNL     1      31.969 -22.133 -14.141  0.00  0.00    -0.378 OA
ATOM     16  H2* UNL     1      32.865 -21.883 -14.417  0.00  0.00    +0.211 HD
ENDBRANCH  11  15
BRANCH  12  17
ATOM     17  O3* UNL     1      30.368 -25.243 -13.272  0.00  0.00    -0.379 OA
ATOM     18  H3* UNL     1      30.572 -25.211 -12.324  0.00  0.00    +0.211 HD
ENDBRANCH  12  17
BRANCH  14  19
ATOM     19  C5* UNL     1      29.120 -22.685 -15.618  0.00  0.00    +0.169 C 
BRANCH  19  20
ATOM     20  O5* UNL     1      29.374 -22.411 -16.985  0.00  0.00    -0.379 OA
ATOM     21  H5* UNL     1      30.303 -22.603 -17.186  0.00  0.00    +0.211 HD
ENDBRANCH  19  20
ENDBRANCH  14  19
ENDBRANCH   3  13
BRANCH   7  22
ATOM     22  C   UNL     1      33.560 -21.479 -19.123  0.00  0.00    -0.058 C 
ATOM     23  C   UNL     1      33.259 -20.824 -20.083  0.00  0.00    -0.085 C 
ATOM     24  C   UNL     1      32.893 -20.027 -21.252  0.00  0.00    +0.090 C 
ENDBRANCH   7  22
TORSDOF 6
ENDMDL
MODEL 4
REMARK VINA RESULT:      -7.2      8.129     11.281
REMARK  Name = 55281
REMARK  6 active torsions:
REMARK  status: ('A' for Active; 'I' for Inactive)
REMARK    1  A    between atoms: N_3  and  C1*_13
REMARK    2  A    between atoms: C_7  and  C_22
REMARK    3  A    between atoms: C2*_11  and  O2*_15
REMARK    4  A    between atoms: C3*_12  and  O3*_17
REMARK    5  A    between atoms: C4*_14  and  C5*_19
REMARK    6  A    between atoms: C5*_19  and  O5*_20
REMARK                            x       y       z     vdW  Elec       q    Type
REMARK                         _______ _______ _______ _____ _____    ______ ____
ROOT
ATOM      1  O   UNL     1      34.879 -17.782 -25.714  0.00  0.00    -0.252 OA
ATOM      2  O   UNL     1      32.579 -13.800 -25.802  0.00  0.00    -0.269 OA
ATOM      3  N   UNL     1      34.439 -16.732 -23.676  0.00  0.00    -0.216 N 
ATOM      4  N   UNL     1      33.733 -15.796 -25.744  0.00  0.00    -0.235 N 
ATOM      5  C   UNL     1      33.857 -15.635 -23.044  0.00  0.00    +0.084 C 
ATOM      6  C   UNL     1      34.389 -16.842 -25.085  0.00  0.00    +0.315 C 
ATOM      7  C   UNL     1      33.232 -14.638 -23.678  0.00  0.00    +0.110 C 
ATOM      8  C   UNL     1      33.140 -14.685 -25.161  0.00  0.00    +0.262 C 
ATOM      9  H   UNL     1      33.688 -15.854 -26.726  0.00  0.00    +0.159 HD
ENDROOT
BRANCH   3  13
ATOM     10  O4* UNL     1      34.271 -18.927 -22.870  0.00  0.00    -0.333 OA
ATOM     11  C2* UNL     1      35.332 -17.363 -21.449  0.00  0.00    +0.187 C 
ATOM     12  C3* UNL     1      35.418 -18.720 -20.783  0.00  0.00    +0.171 C 
ATOM     13  C1* UNL     1      35.086 -17.748 -22.900  0.00  0.00    +0.229 C 
ATOM     14  C4* UNL     1      34.443 -19.576 -21.594  0.00  0.00    +0.175 C 
BRANCH  11  15
ATOM     15  O2* UNL     1      34.221 -16.661 -20.904  0.00  0.00    -0.378 OA
ATOM     16  H2* UNL     1      33.422 -16.875 -21.411  0.00  0.00    +0.211 HD
ENDBRANCH  11  15
BRANCH  12  17
ATOM     17  O3* UNL     1      36.731 -19.247 -20.958  0.00  0.00    -0.379 OA
ATOM     18  H3* UNL     1      37.232 -18.672 -21.558  0.00  0.00    +0.211 HD
ENDBRANCH  12  17
BRANCH  14  19
ATOM     19  C5* UNL     1      33.071 -19.707 -20.948  0.00  0.00    +0.169 C 
BRANCH  19  20
ATOM     20  O5* UNL     1      32.966 -20.991 -20.358  0.00  0.00    -0.379 OA
ATOM     21  H5* UNL     1      33.802 -21.469 -20.473  0.00  0.00    +0.211 HD
ENDBRANCH  19  20
ENDBRANCH  14  19
ENDBRANCH   3  13
BRANCH   7  22
ATOM     22  C   UNL     1      32.664 -13.553 -22.957  0.00  0.00    -0.058 C 
ATOM     23  C   UNL     1      32.184 -12.636 -22.347  0.00  0.00    -0.085 C 
ATOM     24  C   UNL     1      31.599 -11.521 -21.605  0.00  0.00    +0.090 C 
ENDBRANCH   7  22
TORSDOF 6
ENDMDL
MODEL 5
REMARK VINA RESULT:      -7.1      1.306      1.878
REMARK  Name = 55281
REMARK  6 active torsions:
REMARK  status: ('A' for Active; 'I' for Inactive)
REMARK    1  A    between atoms: N_3  and  C1*_13
REMARK    2  A    between atoms: C_7  and  C_22
REMARK    3  A    between atoms: C2*_11  and  O2*_15
REMARK    4  A    between atoms: C3*_12  and  O3*_17
REMARK    5  A    between atoms: C4*_14  and  C5*_19
REMARK    6  A    between atoms: C5*_19  and  O5*_20
REMARK                            x       y       z     vdW  Elec       q    Type
REMARK                         _______ _______ _______ _____ _____    ______ ____
ROOT
ATOM      1  O   UNL     1      32.667 -24.966 -13.216  0.00  0.00    -0.252 OA
ATOM      2  O   UNL     1      31.629 -22.670 -17.064  0.00  0.00    -0.269 OA
ATOM      3  N   UNL     1      34.418 -24.398 -14.652  0.00  0.00    -0.216 N 
ATOM      4  N   UNL     1      32.163 -23.822 -15.138  0.00  0.00    -0.235 N 
ATOM      5  C   UNL     1      34.776 -23.775 -15.846  0.00  0.00    +0.084 C 
ATOM      6  C   UNL     1      33.060 -24.436 -14.257  0.00  0.00    +0.315 C 
ATOM      7  C   UNL     1      33.914 -23.190 -16.685  0.00  0.00    +0.110 C 
ATOM      8  C   UNL     1      32.470 -23.192 -16.335  0.00  0.00    +0.262 C 
ATOM      9  H   UNL     1      31.213 -23.838 -14.881  0.00  0.00    +0.159 HD
ENDROOT
BRANCH   3  13
ATOM     10  O4* UNL     1      35.385 -24.411 -12.517  0.00  0.00    -0.333 OA
ATOM     11  C2* UNL     1      36.844 -24.809 -14.334  0.00  0.00    +0.187 C 
ATOM     12  C3* UNL     1      37.647 -24.957 -13.059  0.00  0.00    +0.171 C 
ATOM     13  C1* UNL     1      35.423 -24.996 -13.825  0.00  0.00    +0.229 C 
ATOM     14  C4* UNL     1      36.726 -24.372 -11.988  0.00  0.00    +0.175 C 
BRANCH  11  15
ATOM     15  O2* UNL     1      37.041 -23.495 -14.844  0.00  0.00    -0.378 OA
ATOM     16  H2* UNL     1      37.019 -23.518 -15.814  0.00  0.00    +0.211 HD
ENDBRANCH  11  15
BRANCH  12  17
ATOM     17  O3* UNL     1      37.836 -26.343 -12.781  0.00  0.00    -0.379 OA
ATOM     18  H3* UNL     1      38.540 -26.693 -13.351  0.00  0.00    +0.211 HD
ENDBRANCH  12  17
BRANCH  14  19
ATOM     19  C5* UNL     1      37.046 -22.926 -11.638  0.00  0.00    +0.169 C 
BRANCH  19  20
ATOM     20  O5* UNL     1      38.454 -22.761 -11.628  0.00  0.00    -0.379 OA
ATOM     21  H5* UNL     1      38.690 -22.041 -11.023  0.00  0.00    +0.211 HD
ENDBRANCH  19  20
ENDBRANCH  14  19
ENDBRANCH   3  13
BRANCH   7  22
ATOM     22  C   UNL     1      34.364 -22.576 -17.885  0.00  0.00    -0.058 C 
ATOM     23  C   UNL     1      34.743 -22.057 -18.899  0.00  0.00    -0.085 C 
ATOM     24  C   UNL     1      35.207 -21.426 -20.134  0.00  0.00    +0.090 C 
ENDBRANCH   7  22
TORSDOF 6
ENDMDL
MODEL 6
REMARK VINA RESULT:      -6.9      2.648      6.186
REMARK  Name = 55281
REMARK  6 active torsions:
REMARK  status: ('A' for Active; 'I' for Inactive)
REMARK    1  A    between atoms: N_3  and  C1*_13
REMARK    2  A    between atoms: C_7  and  C_22
REMARK    3  A    between atoms: C2*_11  and  O2*_15
REMARK    4  A    between atoms: C3*_12  and  O3*_17
REMARK    5  A    between atoms: C4*_14  and  C5*_19
REMARK    6  A    between atoms: C5*_19  and  O5*_20
REMARK                            x       y       z     vdW  Elec       q    Type
REMARK                         _______ _______ _______ _____ _____    ______ ____
ROOT
ATOM      1  O   UNL     1      32.087 -25.066 -13.149  0.00  0.00    -0.252 OA
ATOM      2  O   UNL     1      36.042 -24.599 -15.452  0.00  0.00    -0.269 OA
ATOM      3  N   UNL     1      32.131 -23.582 -14.951  0.00  0.00    -0.216 N 
ATOM      4  N   UNL     1      34.053 -24.824 -14.306  0.00  0.00    -0.235 N 
ATOM      5  C   UNL     1      32.903 -23.021 -15.967  0.00  0.00    +0.084 C 
ATOM      6  C   UNL     1      32.706 -24.527 -14.069  0.00  0.00    +0.315 C 
ATOM      7  C   UNL     1      34.190 -23.309 -16.188  0.00  0.00    +0.110 C 
ATOM      8  C   UNL     1      34.862 -24.293 -15.300  0.00  0.00    +0.262 C 
ATOM      9  H   UNL     1      34.472 -25.479 -13.701  0.00  0.00    +0.159 HD
ENDROOT
BRANCH   3  13
ATOM     10  O4* UNL     1      29.923 -24.366 -14.884  0.00  0.00    -0.333 OA
ATOM     11  C2* UNL     1      30.255 -22.241 -15.866  0.00  0.00    +0.187 C 
ATOM     12  C3* UNL     1      28.765 -22.507 -15.839  0.00  0.00    +0.171 C 
ATOM     13  C1* UNL     1      30.758 -23.204 -14.801  0.00  0.00    +0.229 C 
ATOM     14  C4* UNL     1      28.675 -23.997 -15.504  0.00  0.00    +0.175 C 
BRANCH  11  15
ATOM     15  O2* UNL     1      30.754 -22.588 -17.152  0.00  0.00    -0.378 OA
ATOM     16  H2* UNL     1      31.320 -21.872 -17.484  0.00  0.00    +0.211 HD
ENDBRANCH  11  15
BRANCH  12  17
ATOM     17  O3* UNL     1      28.175 -21.770 -14.771  0.00  0.00    -0.379 OA
ATOM     18  H3* UNL     1      27.213 -21.734 -14.895  0.00  0.00    +0.211 HD
ENDBRANCH  12  17
BRANCH  14  19
ATOM     19  C5* UNL     1      28.482 -24.882 -16.727  0.00  0.00    +0.169 C 
BRANCH  19  20
ATOM     20  O5* UNL     1      27.650 -24.204 -17.653  0.00  0.00    -0.379 OA
ATOM     21  H5* UNL     1      28.132 -23.454 -18.033  0.00  0.00    +0.211 HD
ENDBRANCH  19  20
ENDBRANCH  14  19
ENDBRANCH   3  13
BRANCH   7  22
ATOM     22  C   UNL     1      34.906 -22.690 -17.249  0.00  0.00    -0.058 C 
ATOM     23  C   UNL     1      35.511 -22.167 -18.144  0.00  0.00    -0.085 C 
ATOM     24  C   UNL     1      36.249 -21.531 -19.234  0.00  0.00    +0.090 C 
ENDBRANCH   7  22
TORSDOF 6
ENDMDL
MODEL 7
REMARK VINA RESULT:      -6.8      9.931     13.109
REMARK  Name = 55281
REMARK  6 active torsions:
REMARK  status: ('A' for Active; 'I' for Inactive)
REMARK    1  A    between atoms: N_3  and  C1*_13
REMARK    2  A    between atoms: C_7  and  C_22
REMARK    3  A    between atoms: C2*_11  and  O2*_15
REMARK    4  A    between atoms: C3*_12  and  O3*_17
REMARK    5  A    between atoms: C4*_14  and  C5*_19
REMARK    6  A    between atoms: C5*_19  and  O5*_20
REMARK                            x       y       z     vdW  Elec       q    Type
REMARK                         _______ _______ _______ _____ _____    ______ ____
ROOT
ATOM      1  O   UNL     1      33.192 -16.787 -26.156  0.00  0.00    -0.252 OA
ATOM      2  O   UNL     1      33.444 -12.315 -27.202  0.00  0.00    -0.269 OA
ATOM      3  N   UNL     1      33.500 -15.273 -24.405  0.00  0.00    -0.216 N 
ATOM      4  N   UNL     1      33.319 -14.554 -26.664  0.00  0.00    -0.235 N 
ATOM      5  C   UNL     1      33.645 -13.934 -24.048  0.00  0.00    +0.084 C 
ATOM      6  C   UNL     1      33.328 -15.626 -25.764  0.00  0.00    +0.315 C 
ATOM      7  C   UNL     1      33.637 -12.913 -24.913  0.00  0.00    +0.110 C 
ATOM      8  C   UNL     1      33.461 -13.208 -26.359  0.00  0.00    +0.262 C 
ATOM      9  H   UNL     1      33.201 -14.779 -27.615  0.00  0.00    +0.159 HD
ENDROOT
BRANCH   3  13
ATOM     10  O4* UNL     1      33.213 -15.717 -22.121  0.00  0.00    -0.333 OA
ATOM     11  C2* UNL     1      34.871 -16.980 -23.238  0.00  0.00    +0.187 C 
ATOM     12  C3* UNL     1      34.787 -17.489 -21.814  0.00  0.00    +0.171 C 
ATOM     13  C1* UNL     1      33.524 -16.291 -23.398  0.00  0.00    +0.229 C 
ATOM     14  C4* UNL     1      33.952 -16.422 -21.104  0.00  0.00    +0.175 C 
BRANCH  11  15
ATOM     15  O2* UNL     1      35.942 -16.048 -23.324  0.00  0.00    -0.378 OA
ATOM     16  H2* UNL     1      36.222 -15.794 -22.430  0.00  0.00    +0.211 HD
ENDBRANCH  11  15
BRANCH  12  17
ATOM     17  O3* UNL     1      34.059 -18.715 -21.796  0.00  0.00    -0.379 OA
ATOM     18  H3* UNL     1      33.665 -18.844 -20.918  0.00  0.00    +0.211 HD
ENDBRANCH  12  17
BRANCH  14  19
ATOM     19  C5* UNL     1      34.791 -15.403 -20.346  0.00  0.00    +0.169 C 
BRANCH  19  20
ATOM     20  O5* UNL     1      34.768 -14.176 -21.055  0.00  0.00    -0.379 OA
ATOM     21  H5* UNL     1      35.619 -13.725 -20.949  0.00  0.00    +0.211 HD
ENDBRANCH  19  20
ENDBRANCH  14  19
ENDBRANCH   3  13
BRANCH   7  22
ATOM     22  C   UNL     1      33.792 -11.573 -24.465  0.00  0.00    -0.058 C 
ATOM     23  C   UNL     1      33.922 -10.442 -24.086  0.00  0.00    -0.085 C 
ATOM     24  C   UNL     1      34.081  -9.064 -23.624  0.00  0.00    +0.090 C 
ENDBRANCH   7  22
TORSDOF 6
ENDMDL
MODEL 8
REMARK VINA RESULT:      -6.6     12.126     14.944
REMARK  Name = 55281
REMARK  6 active torsions:
REMARK  status: ('A' for Active; 'I' for Inactive)
REMARK    1  A    between atoms: N_3  and  C1*_13
REMARK    2  A    between atoms: C_7  and  C_22
REMARK    3  A    between atoms: C2*_11  and  O2*_15
REMARK    4  A    between atoms: C3*_12  and  O3*_17
REMARK    5  A    between atoms: C4*_14  and  C5*_19
REMARK    6  A    between atoms: C5*_19  and  O5*_20
REMARK                            x       y       z     vdW  Elec       q    Type
REMARK                         _______ _______ _______ _____ _____    ______ ____
ROOT
ATOM      1  O   UNL     1      32.112 -13.455 -20.307  0.00  0.00    -0.252 OA
ATOM      2  O   UNL     1      31.802  -8.991 -19.240  0.00  0.00    -0.269 OA
ATOM      3  N   UNL     1      32.038 -11.917 -22.062  0.00  0.00    -0.216 N 
ATOM      4  N   UNL     1      31.957 -11.226 -19.788  0.00  0.00    -0.235 N 
ATOM      5  C   UNL     1      31.956 -10.572 -22.416  0.00  0.00    +0.084 C 
ATOM      6  C   UNL     1      32.041 -12.288 -20.696  0.00  0.00    +0.315 C 
ATOM      7  C   UNL     1      31.876  -9.561 -21.543  0.00  0.00    +0.110 C 
ATOM      8  C   UNL     1      31.873  -9.875 -20.090  0.00  0.00    +0.262 C 
ATOM      9  H   UNL     1      31.957 -11.464 -18.833  0.00  0.00    +0.159 HD
ENDROOT
BRANCH   3  13
ATOM     10  O4* UNL     1      32.455 -14.184 -22.485  0.00  0.00    -0.333 OA
ATOM     11  C2* UNL     1      33.179 -12.656 -24.137  0.00  0.00    +0.187 C 
ATOM     12  C3* UNL     1      33.457 -14.053 -24.651  0.00  0.00    +0.171 C 
ATOM     13  C1* UNL     1      32.120 -12.923 -23.078  0.00  0.00    +0.229 C 
ATOM     14  C4* UNL     1      33.268 -14.931 -23.413  0.00  0.00    +0.175 C 
BRANCH  11  15
ATOM     15  O2* UNL     1      34.372 -12.141 -23.557  0.00  0.00    -0.378 OA
ATOM     16  H2* UNL     1      34.895 -11.690 -24.238  0.00  0.00    +0.211 HD
ENDBRANCH  11  15
BRANCH  12  17
ATOM     17  O3* UNL     1      32.463 -14.407 -25.609  0.00  0.00    -0.379 OA
ATOM     18  H3* UNL     1      32.893 -14.757 -26.406  0.00  0.00    +0.211 HD
ENDBRANCH  12  17
BRANCH  14  19
ATOM     19  C5* UNL     1      34.574 -15.279 -22.713  0.00  0.00    +0.169 C 
BRANCH  19  20
ATOM     20  O5* UNL     1      34.645 -14.557 -21.496  0.00  0.00    -0.379 OA
ATOM     21  H5* UNL     1      33.961 -14.880 -20.888  0.00  0.00    +0.211 HD
ENDBRANCH  19  20
ENDBRANCH  14  19
ENDBRANCH   3  13
BRANCH   7  22
ATOM     22  C   UNL     1      31.795  -8.214 -21.989  0.00  0.00    -0.058 C 
ATOM     23  C   UNL     1      31.727  -7.076 -22.365  0.00  0.00    -0.085 C 
ATOM     24  C   UNL     1      31.644  -5.690 -22.822  0.00  0.00    +0.090 C 
ENDBRANCH   7  22
TORSDOF 6
ENDMDL
MODEL 9
REMARK VINA RESULT:      -6.5     13.042     16.526
REMARK  Name = 55281
REMARK  6 active torsions:
REMARK  status: ('A' for Active; 'I' for Inactive)
REMARK    1  A    between atoms: N_3  and  C1*_13
REMARK    2  A    between atoms: C_7  and  C_22
REMARK    3  A    between atoms: C2*_11  and  O2*_15
REMARK    4  A    between atoms: C3*_12  and  O3*_17
REMARK    5  A    between atoms: C4*_14  and  C5*_19
REMARK    6  A    between atoms: C5*_19  and  O5*_20
REMARK                            x       y       z     vdW  Elec       q    Type
REMARK                         _______ _______ _______ _____ _____    ______ ____
ROOT
ATOM      1  O   UNL     1      31.207  -9.656 -19.497  0.00  0.00    -0.252 OA
ATOM      2  O   UNL     1      32.299 -13.996 -20.560  0.00  0.00    -0.269 OA
ATOM      3  N   UNL     1      31.771 -10.126 -21.714  0.00  0.00    -0.216 N 
ATOM      4  N   UNL     1      31.754 -11.816 -20.041  0.00  0.00    -0.235 N 
ATOM      5  C   UNL     1      32.159 -11.108 -22.623  0.00  0.00    +0.084 C 
ATOM      6  C   UNL     1      31.552 -10.468 -20.358  0.00  0.00    +0.315 C 
ATOM      7  C   UNL     1      32.351 -12.395 -22.314  0.00  0.00    +0.110 C 
ATOM      8  C   UNL     1      32.139 -12.828 -20.907  0.00  0.00    +0.262 C 
ATOM      9  H   UNL     1      31.607 -12.074 -19.102  0.00  0.00    +0.159 HD
ENDROOT
BRANCH   3  13
ATOM     10  O4* UNL     1      32.256  -8.579 -23.406  0.00  0.00    -0.333 OA
ATOM     11  C2* UNL     1      32.164  -7.731 -21.201  0.00  0.00    +0.187 C 
ATOM     12  C3* UNL     1      32.392  -6.561 -22.134  0.00  0.00    +0.171 C 
ATOM     13  C1* UNL     1      31.593  -8.774 -22.150  0.00  0.00    +0.229 C 
ATOM     14  C4* UNL     1      32.759  -7.229 -23.460  0.00  0.00    +0.175 C 
BRANCH  11  15
ATOM     15  O2* UNL     1      33.421  -8.143 -20.676  0.00  0.00    -0.378 OA
ATOM     16  H2* UNL     1      33.337  -8.304 -19.723  0.00  0.00    +0.211 HD
ENDBRANCH  11  15
BRANCH  12  17
ATOM     17  O3* UNL     1      31.166  -5.855 -22.311  0.00  0.00    -0.379 OA
ATOM     18  H3* UNL     1      31.308  -5.106 -22.911  0.00  0.00    +0.211 HD
ENDBRANCH  12  17
BRANCH  14  19
ATOM     19  C5* UNL     1      34.259  -7.299 -23.707  0.00  0.00    +0.169 C 
BRANCH  19  20
ATOM     20  O5* UNL     1      34.696  -8.628 -23.480  0.00  0.00    -0.379 OA
ATOM     21  H5* UNL     1      35.653  -8.630 -23.319  0.00  0.00    +0.211 HD
ENDBRANCH  19  20
ENDBRANCH  14  19
ENDBRANCH   3  13
BRANCH   7  22
ATOM     22  C   UNL     1      32.747 -13.335 -23.304  0.00  0.00    -0.058 C 
ATOM     23  C   UNL     1      33.081 -14.129 -24.140  0.00  0.00    -0.085 C 
ATOM     24  C   UNL     1      33.488 -15.095 -25.159  0.00  0.00    +0.090 C 
ENDBRANCH   7  22
TORSDOF 6
ENDMDL
