MODEL 1
REMARK VINA RESULT:     -11.1      0.000      0.000
REMARK  Name = 11647372
REMARK  1 active torsions:
REMARK  status: ('A' for Active; 'I' for Inactive)
REMARK    1  A    between atoms: C_22  and  C_30
REMARK                            x       y       z     vdW  Elec       q    Type
REMARK                         _______ _______ _______ _____ _____    ______ ____
ROOT
ATOM      1  O   UNL     1      36.200 -20.858 -20.177  0.00  0.00    -0.350 OA
ATOM      2  O   UNL     1      29.358 -24.433 -14.545  0.00  0.00    -0.350 OA
ATOM      3  N   UNL     1      35.401 -22.140 -17.808  0.00  0.00    -0.228 N 
ATOM      4  N   UNL     1      32.073 -24.115 -15.199  0.00  0.00    -0.228 N 
ATOM      5  N   UNL     1      36.548 -24.536 -13.982  0.00  0.00    -0.161 N 
ATOM      6  N   UNL     1      33.710 -23.114 -16.528  0.00  0.00    -0.246 NA
ATOM      7  N   UNL     1      34.304 -24.348 -14.557  0.00  0.00    -0.246 NA
ATOM      8  N   UNL     1      36.015 -23.333 -15.899  0.00  0.00    -0.246 NA
ATOM      9  N   UNL     1      37.492 -25.221 -12.089  0.00  0.00    -0.387 NA
ATOM     10  C   UNL     1      34.556 -22.203 -19.007  0.00  0.00    +0.135 C 
ATOM     11  C   UNL     1      36.819 -21.860 -18.056  0.00  0.00    +0.135 C 
ATOM     12  C   UNL     1      31.080 -23.130 -15.650  0.00  0.00    +0.135 C 
ATOM     13  C   UNL     1      31.681 -24.906 -14.028  0.00  0.00    +0.135 C 
ATOM     14  C   UNL     1      35.025 -22.897 -16.694  0.00  0.00    +0.225 C 
ATOM     15  C   UNL     1      33.424 -23.847 -15.439  0.00  0.00    +0.225 C 
ATOM     16  C   UNL     1      34.809 -20.980 -19.882  0.00  0.00    +0.164 C 
ATOM     17  C   UNL     1      36.953 -20.655 -18.982  0.00  0.00    +0.164 C 
ATOM     18  C   UNL     1      29.714 -23.794 -15.772  0.00  0.00    +0.164 C 
ATOM     19  C   UNL     1      30.282 -25.476 -14.237  0.00  0.00    +0.164 C 
ATOM     20  C   UNL     1      35.575 -24.048 -14.856  0.00  0.00    +0.235 C 
ATOM     21  C   UNL     1      37.835 -24.876 -14.316  0.00  0.00    +0.095 C 
ATOM     22  C   UNL     1      36.392 -24.759 -12.643  0.00  0.00    +0.244 C 
ATOM     23  C   UNL     1      38.403 -25.300 -13.117  0.00  0.00    +0.129 C 
ATOM     24  C   UNL     1      38.530 -24.848 -15.525  0.00  0.00    +0.018 C 
ATOM     25  C   UNL     1      39.742 -25.725 -13.107  0.00  0.00    +0.086 C 
ATOM     26  C   UNL     1      39.861 -25.277 -15.497  0.00  0.00    -0.003 C 
ATOM     27  C   UNL     1      40.458 -25.707 -14.310  0.00  0.00    -0.019 C 
ENDROOT
BRANCH  22  30
ATOM     28  F   UNL     1      34.905 -23.162 -11.761  0.00  0.00    -0.189 F 
ATOM     29  F   UNL     1      35.125 -25.038 -10.679  0.00  0.00    -0.189 F 
ATOM     30  C   UNL     1      35.120 -24.500 -11.935  0.00  0.00    +0.385 C 
ENDBRANCH  22  30
TORSDOF 1
ENDMDL
MODEL 2
REMARK VINA RESULT:      -9.6      2.681      6.924
REMARK  Name = 11647372
REMARK  1 active torsions:
REMARK  status: ('A' for Active; 'I' for Inactive)
REMARK    1  A    between atoms: C_22  and  C_30
REMARK                            x       y       z     vdW  Elec       q    Type
REMARK                         _______ _______ _______ _____ _____    ______ ____
ROOT
ATOM      1  O   UNL     1      29.422 -24.175 -14.490  0.00  0.00    -0.350 OA
ATOM      2  O   UNL     1      38.575 -26.270 -12.716  0.00  0.00    -0.350 OA
ATOM      3  N   UNL     1      32.162 -23.777 -14.971  0.00  0.00    -0.228 N 
ATOM      4  N   UNL     1      36.612 -25.005 -14.280  0.00  0.00    -0.228 N 
ATOM      5  N   UNL     1      35.527 -21.947 -17.620  0.00  0.00    -0.161 N 
ATOM      6  N   UNL     1      34.376 -24.415 -14.597  0.00  0.00    -0.246 NA
ATOM      7  N   UNL     1      36.107 -23.470 -15.963  0.00  0.00    -0.246 NA
ATOM      8  N   UNL     1      33.820 -22.839 -16.318  0.00  0.00    -0.246 NA
ATOM      9  N   UNL     1      36.801 -20.568 -18.811  0.00  0.00    -0.387 NA
ATOM     10  C   UNL     1      31.682 -25.052 -14.420  0.00  0.00    +0.135 C 
ATOM     11  C   UNL     1      31.160 -22.997 -15.705  0.00  0.00    +0.135 C 
ATOM     12  C   UNL     1      36.345 -25.329 -12.871  0.00  0.00    +0.135 C 
ATOM     13  C   UNL     1      38.030 -24.890 -14.636  0.00  0.00    +0.135 C 
ATOM     14  C   UNL     1      33.514 -23.672 -15.311  0.00  0.00    +0.225 C 
ATOM     15  C   UNL     1      35.655 -24.263 -14.979  0.00  0.00    +0.225 C 
ATOM     16  C   UNL     1      30.381 -24.827 -13.658  0.00  0.00    +0.164 C 
ATOM     17  C   UNL     1      29.886 -22.882 -14.876  0.00  0.00    +0.164 C 
ATOM     18  C   UNL     1      37.196 -26.521 -12.447  0.00  0.00    +0.164 C 
ATOM     19  C   UNL     1      38.791 -26.105 -14.117  0.00  0.00    +0.164 C 
ATOM     20  C   UNL     1      35.132 -22.794 -16.583  0.00  0.00    +0.235 C 
ATOM     21  C   UNL     1      34.781 -21.621 -18.725  0.00  0.00    +0.095 C 
ATOM     22  C   UNL     1      36.723 -21.293 -17.717  0.00  0.00    +0.244 C 
ATOM     23  C   UNL     1      35.598 -20.759 -19.452  0.00  0.00    +0.129 C 
ATOM     24  C   UNL     1      33.502 -21.994 -19.137  0.00  0.00    +0.018 C 
ATOM     25  C   UNL     1      35.126 -20.229 -20.665  0.00  0.00    +0.086 C 
ATOM     26  C   UNL     1      33.049 -21.458 -20.347  0.00  0.00    -0.003 C 
ATOM     27  C   UNL     1      33.845 -20.590 -21.098  0.00  0.00    -0.019 C 
ENDROOT
BRANCH  22  30
ATOM     28  F   UNL     1      38.612 -20.328 -16.697  0.00  0.00    -0.189 F 
ATOM     29  F   UNL     1      38.587 -22.493 -16.925  0.00  0.00    -0.189 F 
ATOM     30  C   UNL     1      37.783 -21.414 -16.692  0.00  0.00    +0.385 C 
ENDBRANCH  22  30
TORSDOF 1
ENDMDL
MODEL 3
REMARK VINA RESULT:      -8.6      2.023      5.601
REMARK  Name = 11647372
REMARK  1 active torsions:
REMARK  status: ('A' for Active; 'I' for Inactive)
REMARK    1  A    between atoms: C_22  and  C_30
REMARK                            x       y       z     vdW  Elec       q    Type
REMARK                         _______ _______ _______ _____ _____    ______ ____
ROOT
ATOM      1  O   UNL     1      29.191 -24.495 -15.142  0.00  0.00    -0.350 OA
ATOM      2  O   UNL     1      35.887 -20.762 -20.846  0.00  0.00    -0.350 OA
ATOM      3  N   UNL     1      31.885 -23.944 -15.719  0.00  0.00    -0.228 N 
ATOM      4  N   UNL     1      35.112 -21.881 -18.386  0.00  0.00    -0.228 N 
ATOM      5  N   UNL     1      36.316 -23.751 -14.295  0.00  0.00    -0.161 N 
ATOM      6  N   UNL     1      33.471 -22.904 -17.079  0.00  0.00    -0.246 NA
ATOM      7  N   UNL     1      35.753 -22.806 -16.343  0.00  0.00    -0.246 NA
ATOM      8  N   UNL     1      34.094 -23.866 -14.971  0.00  0.00    -0.246 NA
ATOM      9  N   UNL     1      38.309 -24.228 -13.434  0.00  0.00    -0.387 NA
ATOM     10  C   UNL     1      30.817 -23.123 -16.304  0.00  0.00    +0.135 C 
ATOM     11  C   UNL     1      31.522 -24.657 -14.490  0.00  0.00    +0.135 C 
ATOM     12  C   UNL     1      34.336 -22.154 -19.605  0.00  0.00    +0.135 C 
ATOM     13  C   UNL     1      36.504 -21.476 -18.610  0.00  0.00    +0.135 C 
ATOM     14  C   UNL     1      33.211 -23.553 -15.932  0.00  0.00    +0.225 C 
ATOM     15  C   UNL     1      34.763 -22.561 -17.216  0.00  0.00    +0.225 C 
ATOM     16  C   UNL     1      29.536 -23.942 -16.411  0.00  0.00    +0.164 C 
ATOM     17  C   UNL     1      30.203 -25.395 -14.692  0.00  0.00    +0.164 C 
ATOM     18  C   UNL     1      34.503 -21.004 -20.590  0.00  0.00    +0.164 C 
ATOM     19  C   UNL     1      36.555 -20.362 -19.650  0.00  0.00    +0.164 C 
ATOM     20  C   UNL     1      35.339 -23.460 -15.250  0.00  0.00    +0.235 C 
ATOM     21  C   UNL     1      36.114 -23.859 -12.942  0.00  0.00    +0.095 C 
ATOM     22  C   UNL     1      37.641 -23.980 -14.539  0.00  0.00    +0.244 C 
ATOM     23  C   UNL     1      37.373 -24.157 -12.427  0.00  0.00    +0.129 C 
ATOM     24  C   UNL     1      34.974 -23.726 -12.149  0.00  0.00    +0.018 C 
ATOM     25  C   UNL     1      37.522 -24.337 -11.042  0.00  0.00    +0.086 C 
ATOM     26  C   UNL     1      35.141 -23.907 -10.772  0.00  0.00    -0.003 C 
ATOM     27  C   UNL     1      36.391 -24.208 -10.226  0.00  0.00    -0.019 C 
ENDROOT
BRANCH  22  30
ATOM     28  F   UNL     1      39.422 -24.588 -15.952  0.00  0.00    -0.189 F 
ATOM     29  F   UNL     1      38.468 -22.663 -16.306  0.00  0.00    -0.189 F 
ATOM     30  C   UNL     1      38.218 -23.944 -15.900  0.00  0.00    +0.385 C 
ENDBRANCH  22  30
TORSDOF 1
ENDMDL
