MODEL 1
REMARK VINA RESULT:      -8.8      0.000      0.000
REMARK  Name = 11823650
REMARK  2 active torsions:
REMARK  status: ('A' for Active; 'I' for Inactive)
REMARK    1  A    between atoms: C_7  and  C_22
REMARK    2  A    between atoms: C_7  and  O_24
REMARK                            x       y       z     vdW  Elec       q    Type
REMARK                         _______ _______ _______ _____ _____    ______ ____
ROOT
ATOM      1  O   UNL     1      33.385 -19.423 -21.322  0.00  0.00    -0.291 OA
ATOM      2  C   UNL     1      35.690 -23.974 -14.568  0.00  0.00    +0.033 C 
ATOM      3  C   UNL     1      36.554 -22.876 -15.242  0.00  0.00    +0.007 C 
ATOM      4  C   UNL     1      36.303 -22.751 -16.749  0.00  0.00    +0.001 C 
ATOM      5  C   UNL     1      34.804 -22.407 -16.988  0.00  0.00    +0.004 C 
ATOM      6  C   UNL     1      34.217 -23.579 -14.766  0.00  0.00    +0.003 C 
ATOM      7  C   UNL     1      36.245 -23.902 -13.113  0.00  0.00    +0.154 C 
ATOM      8  C   UNL     1      33.862 -23.392 -16.253  0.00  0.00    +0.000 C 
ATOM      9  C   UNL     1      37.972 -23.193 -14.769  0.00  0.00    +0.025 C 
ATOM     10  C   UNL     1      34.489 -22.303 -18.512  0.00  0.00    +0.019 C 
ATOM     11  C   UNL     1      37.191 -21.677 -17.392  0.00  0.00    +0.004 C 
ATOM     12  C   UNL     1      37.732 -23.676 -13.351  0.00  0.00    -0.014 C 
ATOM     13  C   UNL     1      35.928 -25.390 -15.173  0.00  0.00    +0.003 C 
ATOM     14  C   UNL     1      36.935 -21.593 -18.892  0.00  0.00    +0.022 C 
ATOM     15  C   UNL     1      35.477 -21.382 -19.215  0.00  0.00    -0.042 C 
ATOM     16  C   UNL     1      33.030 -21.852 -18.731  0.00  0.00    +0.012 C 
ATOM     17  C   UNL     1      32.758 -21.425 -20.163  0.00  0.00    +0.069 C 
ATOM     18  C   UNL     1      35.121 -20.448 -20.113  0.00  0.00    +0.029 C 
ATOM     19  C   UNL     1      38.725 -23.832 -12.467  0.00  0.00    -0.006 C 
ATOM     20  C   UNL     1      33.717 -20.336 -20.570  0.00  0.00    +0.173 C 
ENDROOT
BRANCH   7  22
ATOM     21  O   UNL     1      34.943 -25.133 -11.530  0.00  0.00    -0.293 OA
ATOM     22  C   UNL     1      35.932 -25.102 -12.260  0.00  0.00    +0.178 C 
ATOM     23  C   UNL     1      36.886 -26.262 -12.348  0.00  0.00    +0.075 C 
ENDBRANCH   7  22
BRANCH   7  24
ATOM     24  O   UNL     1      35.745 -22.779 -12.397  0.00  0.00    -0.376 OA
ATOM     25  H   UNL     1      35.629 -22.033 -13.005  0.00  0.00    +0.211 HD
ENDBRANCH   7  24
TORSDOF 2
ENDMDL
MODEL 2
REMARK VINA RESULT:      -8.8     10.709     15.775
REMARK  Name = 11823650
REMARK  2 active torsions:
REMARK  status: ('A' for Active; 'I' for Inactive)
REMARK    1  A    between atoms: C_7  and  C_22
REMARK    2  A    between atoms: C_7  and  O_24
REMARK                            x       y       z     vdW  Elec       q    Type
REMARK                         _______ _______ _______ _____ _____    ______ ____
ROOT
ATOM      1  O   UNL     1      33.942 -16.815 -21.375  0.00  0.00    -0.291 OA
ATOM      2  C   UNL     1      32.822  -8.717 -23.567  0.00  0.00    +0.033 C 
ATOM      3  C   UNL     1      32.679  -9.281 -22.129  0.00  0.00    +0.007 C 
ATOM      4  C   UNL     1      32.201 -10.736 -22.096  0.00  0.00    +0.001 C 
ATOM      5  C   UNL     1      33.219 -11.624 -22.869  0.00  0.00    +0.004 C 
ATOM      6  C   UNL     1      33.877  -9.573 -24.288  0.00  0.00    +0.003 C 
ATOM      7  C   UNL     1      33.217  -7.244 -23.244  0.00  0.00    +0.154 C 
ATOM      8  C   UNL     1      33.511 -11.068 -24.285  0.00  0.00    +0.000 C 
ATOM      9  C   UNL     1      31.837  -8.227 -21.412  0.00  0.00    +0.025 C 
ATOM     10  C   UNL     1      32.758 -13.114 -22.895  0.00  0.00    +0.019 C 
ATOM     11  C   UNL     1      32.043 -11.257 -20.662  0.00  0.00    +0.004 C 
ATOM     12  C   UNL     1      32.344  -6.940 -22.035  0.00  0.00    -0.014 C 
ATOM     13  C   UNL     1      31.488  -8.761 -24.371  0.00  0.00    +0.003 C 
ATOM     14  C   UNL     1      31.544 -12.697 -20.663  0.00  0.00    +0.022 C 
ATOM     15  C   UNL     1      32.413 -13.606 -21.496  0.00  0.00    -0.042 C 
ATOM     16  C   UNL     1      33.831 -13.998 -23.565  0.00  0.00    +0.012 C 
ATOM     17  C   UNL     1      33.593 -15.481 -23.335  0.00  0.00    +0.069 C 
ATOM     18  C   UNL     1      32.802 -14.793 -21.003  0.00  0.00    +0.029 C 
ATOM     19  C   UNL     1      32.057  -5.734 -21.528  0.00  0.00    -0.006 C 
ATOM     20  C   UNL     1      33.513 -15.770 -21.859  0.00  0.00    +0.173 C 
ENDROOT
BRANCH   7  22
ATOM     21  O   UNL     1      32.016  -5.619 -24.524  0.00  0.00    -0.293 OA
ATOM     22  C   UNL     1      33.044  -6.281 -24.388  0.00  0.00    +0.178 C 
ATOM     23  C   UNL     1      34.191  -6.165 -25.354  0.00  0.00    +0.075 C 
ENDBRANCH   7  22
BRANCH   7  24
ATOM     24  O   UNL     1      34.575  -7.122 -22.841  0.00  0.00    -0.376 OA
ATOM     25  H   UNL     1      35.143  -7.083 -23.626  0.00  0.00    +0.211 HD
ENDBRANCH   7  24
TORSDOF 2
ENDMDL
MODEL 3
REMARK VINA RESULT:      -8.7      2.800      4.090
REMARK  Name = 11823650
REMARK  2 active torsions:
REMARK  status: ('A' for Active; 'I' for Inactive)
REMARK    1  A    between atoms: C_7  and  C_22
REMARK    2  A    between atoms: C_7  and  O_24
REMARK                            x       y       z     vdW  Elec       q    Type
REMARK                         _______ _______ _______ _____ _____    ______ ____
ROOT
ATOM      1  O   UNL     1      28.097 -22.003 -15.884  0.00  0.00    -0.291 OA
ATOM      2  C   UNL     1      35.946 -24.447 -13.868  0.00  0.00    +0.033 C 
ATOM      3  C   UNL     1      35.576 -23.531 -15.064  0.00  0.00    +0.007 C 
ATOM      4  C   UNL     1      34.190 -23.830 -15.645  0.00  0.00    +0.001 C 
ATOM      5  C   UNL     1      33.119 -23.635 -14.532  0.00  0.00    +0.004 C 
ATOM      6  C   UNL     1      34.909 -24.191 -12.760  0.00  0.00    +0.003 C 
ATOM      7  C   UNL     1      37.401 -23.958 -13.591  0.00  0.00    +0.154 C 
ATOM      8  C   UNL     1      33.469 -24.430 -13.249  0.00  0.00    +0.000 C 
ATOM      9  C   UNL     1      36.787 -23.641 -15.989  0.00  0.00    +0.025 C 
ATOM     10  C   UNL     1      31.690 -23.962 -15.066  0.00  0.00    +0.019 C 
ATOM     11  C   UNL     1      33.863 -22.928 -16.842  0.00  0.00    +0.004 C 
ATOM     12  C   UNL     1      37.933 -23.734 -15.000  0.00  0.00    -0.014 C 
ATOM     13  C   UNL     1      35.940 -25.960 -14.237  0.00  0.00    +0.003 C 
ATOM     14  C   UNL     1      32.490 -23.264 -17.412  0.00  0.00    +0.022 C 
ATOM     15  C   UNL     1      31.406 -23.218 -16.364  0.00  0.00    -0.042 C 
ATOM     16  C   UNL     1      30.629 -23.657 -13.988  0.00  0.00    +0.012 C 
ATOM     17  C   UNL     1      29.216 -23.645 -14.544  0.00  0.00    +0.069 C 
ATOM     18  C   UNL     1      30.253 -22.579 -16.624  0.00  0.00    +0.029 C 
ATOM     19  C   UNL     1      39.213 -23.599 -15.368  0.00  0.00    -0.006 C 
ATOM     20  C   UNL     1      29.114 -22.662 -15.681  0.00  0.00    +0.173 C 
ENDROOT
BRANCH   7  22
ATOM     21  O   UNL     1      38.108 -24.958 -11.537  0.00  0.00    -0.293 OA
ATOM     22  C   UNL     1      38.233 -24.897 -12.759  0.00  0.00    +0.178 C 
ATOM     23  C   UNL     1      39.220 -25.760 -13.496  0.00  0.00    +0.075 C 
ENDBRANCH   7  22
BRANCH   7  24
ATOM     24  O   UNL     1      37.434 -22.709 -12.911  0.00  0.00    -0.376 OA
ATOM     25  H   UNL     1      36.757 -22.122 -13.282  0.00  0.00    +0.211 HD
ENDBRANCH   7  24
TORSDOF 2
ENDMDL
MODEL 4
REMARK VINA RESULT:      -8.6      3.276      4.979
REMARK  Name = 11823650
REMARK  2 active torsions:
REMARK  status: ('A' for Active; 'I' for Inactive)
REMARK    1  A    between atoms: C_7  and  C_22
REMARK    2  A    between atoms: C_7  and  O_24
REMARK                            x       y       z     vdW  Elec       q    Type
REMARK                         _______ _______ _______ _____ _____    ______ ____
ROOT
ATOM      1  O   UNL     1      27.439 -23.578 -16.182  0.00  0.00    -0.291 OA
ATOM      2  C   UNL     1      35.815 -23.945 -15.014  0.00  0.00    +0.033 C 
ATOM      3  C   UNL     1      34.760 -24.690 -14.155  0.00  0.00    +0.007 C 
ATOM      4  C   UNL     1      33.427 -23.942 -14.053  0.00  0.00    +0.001 C 
ATOM      5  C   UNL     1      32.842 -23.748 -15.483  0.00  0.00    +0.004 C 
ATOM      6  C   UNL     1      35.238 -23.821 -16.435  0.00  0.00    +0.003 C 
ATOM      7  C   UNL     1      37.035 -24.899 -14.835  0.00  0.00    +0.154 C 
ATOM      8  C   UNL     1      33.873 -23.109 -16.446  0.00  0.00    +0.000 C 
ATOM      9  C   UNL     1      35.510 -25.010 -12.863  0.00  0.00    +0.025 C 
ATOM     10  C   UNL     1      31.498 -22.957 -15.437  0.00  0.00    +0.019 C 
ATOM     11  C   UNL     1      32.414 -24.689 -13.176  0.00  0.00    +0.004 C 
ATOM     12  C   UNL     1      36.908 -25.305 -13.373  0.00  0.00    -0.014 C 
ATOM     13  C   UNL     1      36.148 -22.524 -14.469  0.00  0.00    +0.003 C 
ATOM     14  C   UNL     1      31.108 -23.909 -13.076  0.00  0.00    +0.022 C 
ATOM     15  C   UNL     1      30.535 -23.572 -14.429  0.00  0.00    -0.042 C 
ATOM     16  C   UNL     1      30.875 -22.871 -16.845  0.00  0.00    +0.012 C 
ATOM     17  C   UNL     1      29.430 -22.404 -16.818  0.00  0.00    +0.069 C 
ATOM     18  C   UNL     1      29.231 -23.780 -14.672  0.00  0.00    +0.029 C 
ATOM     19  C   UNL     1      37.848 -25.873 -12.608  0.00  0.00    -0.006 C 
ATOM     20  C   UNL     1      28.611 -23.304 -15.930  0.00  0.00    +0.173 C 
ENDROOT
BRANCH   7  22
ATOM     21  O   UNL     1      38.451 -23.160 -15.666  0.00  0.00    -0.293 OA
ATOM     22  C   UNL     1      38.365 -24.293 -15.193  0.00  0.00    +0.178 C 
ATOM     23  C   UNL     1      39.584 -25.138 -14.942  0.00  0.00    +0.075 C 
ENDBRANCH   7  22
BRANCH   7  24
ATOM     24  O   UNL     1      36.924 -26.077 -15.624  0.00  0.00    -0.376 OA
ATOM     25  H   UNL     1      37.513 -26.760 -15.269  0.00  0.00    +0.211 HD
ENDBRANCH   7  24
TORSDOF 2
ENDMDL
MODEL 5
REMARK VINA RESULT:      -8.2     10.609     15.442
REMARK  Name = 11823650
REMARK  2 active torsions:
REMARK  status: ('A' for Active; 'I' for Inactive)
REMARK    1  A    between atoms: C_7  and  C_22
REMARK    2  A    between atoms: C_7  and  O_24
REMARK                            x       y       z     vdW  Elec       q    Type
REMARK                         _______ _______ _______ _____ _____    ______ ____
ROOT
ATOM      1  O   UNL     1      34.495 -17.178 -23.408  0.00  0.00    -0.291 OA
ATOM      2  C   UNL     1      32.601  -8.929 -23.299  0.00  0.00    +0.033 C 
ATOM      3  C   UNL     1      32.716  -9.836 -22.045  0.00  0.00    +0.007 C 
ATOM      4  C   UNL     1      32.330 -11.294 -22.317  0.00  0.00    +0.001 C 
ATOM      5  C   UNL     1      33.263 -11.869 -23.422  0.00  0.00    +0.004 C 
ATOM      6  C   UNL     1      33.577  -9.483 -24.352  0.00  0.00    +0.003 C 
ATOM      7  C   UNL     1      32.960  -7.548 -22.670  0.00  0.00    +0.154 C 
ATOM      8  C   UNL     1      33.298 -10.962 -24.677  0.00  0.00    +0.000 C 
ATOM      9  C   UNL     1      31.940  -9.070 -20.975  0.00  0.00    +0.025 C 
ATOM     10  C   UNL     1      32.886 -13.345 -23.762  0.00  0.00    +0.019 C 
ATOM     11  C   UNL     1      32.427 -12.159 -21.054  0.00  0.00    +0.004 C 
ATOM     12  C   UNL     1      32.272  -7.629 -21.315  0.00  0.00    -0.014 C 
ATOM     13  C   UNL     1      31.163  -8.900 -23.896  0.00  0.00    +0.003 C 
ATOM     14  C   UNL     1      32.015 -13.595 -21.351  0.00  0.00    +0.022 C 
ATOM     15  C   UNL     1      32.792 -14.191 -22.499  0.00  0.00    -0.042 C 
ATOM     16  C   UNL     1      33.887 -13.937 -24.774  0.00  0.00    +0.012 C 
ATOM     17  C   UNL     1      33.771 -15.447 -24.898  0.00  0.00    +0.069 C 
ATOM     18  C   UNL     1      33.318 -15.421 -22.381  0.00  0.00    +0.029 C 
ATOM     19  C   UNL     1      32.002  -6.614 -20.484  0.00  0.00    -0.006 C 
ATOM     20  C   UNL     1      33.938 -16.092 -23.547  0.00  0.00    +0.173 C 
ENDROOT
BRANCH   7  22
ATOM     21  O   UNL     1      31.647  -5.608 -23.148  0.00  0.00    -0.293 OA
ATOM     22  C   UNL     1      32.558  -6.357 -23.497  0.00  0.00    +0.178 C 
ATOM     23  C   UNL     1      33.327  -6.126 -24.769  0.00  0.00    +0.075 C 
ENDBRANCH   7  22
BRANCH   7  24
ATOM     24  O   UNL     1      34.357  -7.404 -22.440  0.00  0.00    -0.376 OA
ATOM     25  H   UNL     1      34.773  -7.007 -23.221  0.00  0.00    +0.211 HD
ENDBRANCH   7  24
TORSDOF 2
ENDMDL
MODEL 6
REMARK VINA RESULT:      -7.7      6.401     10.487
REMARK  Name = 11823650
REMARK  2 active torsions:
REMARK  status: ('A' for Active; 'I' for Inactive)
REMARK    1  A    between atoms: C_7  and  C_22
REMARK    2  A    between atoms: C_7  and  O_24
REMARK                            x       y       z     vdW  Elec       q    Type
REMARK                         _______ _______ _______ _____ _____    ______ ____
ROOT
ATOM      1  O   UNL     1      31.969  -8.887 -21.577  0.00  0.00    -0.291 OA
ATOM      2  C   UNL     1      33.935 -17.119 -21.465  0.00  0.00    +0.033 C 
ATOM      3  C   UNL     1      34.099 -16.178 -22.688  0.00  0.00    +0.007 C 
ATOM      4  C   UNL     1      33.062 -15.051 -22.725  0.00  0.00    +0.001 C 
ATOM      5  C   UNL     1      33.193 -14.196 -21.431  0.00  0.00    +0.004 C 
ATOM      6  C   UNL     1      34.129 -16.262 -20.202  0.00  0.00    +0.003 C 
ATOM      7  C   UNL     1      35.046 -18.168 -21.777  0.00  0.00    +0.154 C 
ATOM      8  C   UNL     1      33.153 -15.072 -20.154  0.00  0.00    +0.000 C 
ATOM      9  C   UNL     1      34.166 -17.139 -23.874  0.00  0.00    +0.025 C 
ATOM     10  C   UNL     1      32.131 -13.053 -21.404  0.00  0.00    +0.019 C 
ATOM     11  C   UNL     1      33.232 -14.155 -23.958  0.00  0.00    +0.004 C 
ATOM     12  C   UNL     1      34.930 -18.312 -23.288  0.00  0.00    -0.014 C 
ATOM     13  C   UNL     1      32.537 -17.805 -21.410  0.00  0.00    +0.003 C 
ATOM     14  C   UNL     1      32.173 -13.059 -23.979  0.00  0.00    +0.022 C 
ATOM     15  C   UNL     1      32.151 -12.257 -22.702  0.00  0.00    -0.042 C 
ATOM     16  C   UNL     1      32.346 -12.147 -20.174  0.00  0.00    +0.012 C 
ATOM     17  C   UNL     1      31.564 -10.848 -20.260  0.00  0.00    +0.069 C 
ATOM     18  C   UNL     1      32.108 -10.915 -22.758  0.00  0.00    +0.029 C 
ATOM     19  C   UNL     1      35.436 -19.291 -24.048  0.00  0.00    -0.006 C 
ATOM     20  C   UNL     1      31.918 -10.114 -21.527  0.00  0.00    +0.173 C 
ENDROOT
BRANCH   7  22
ATOM     21  O   UNL     1      33.842 -20.052 -20.929  0.00  0.00    -0.293 OA
ATOM     22  C   UNL     1      34.918 -19.463 -21.022  0.00  0.00    +0.178 C 
ATOM     23  C   UNL     1      36.171 -20.004 -20.389  0.00  0.00    +0.075 C 
ENDBRANCH   7  22
BRANCH   7  24
ATOM     24  O   UNL     1      36.350 -17.679 -21.486  0.00  0.00    -0.376 OA
ATOM     25  H   UNL     1      36.718 -18.169 -20.734  0.00  0.00    +0.211 HD
ENDBRANCH   7  24
TORSDOF 2
ENDMDL
MODEL 7
REMARK VINA RESULT:      -7.6      2.118      3.231
REMARK  Name = 11823650
REMARK  2 active torsions:
REMARK  status: ('A' for Active; 'I' for Inactive)
REMARK    1  A    between atoms: C_7  and  C_22
REMARK    2  A    between atoms: C_7  and  O_24
REMARK                            x       y       z     vdW  Elec       q    Type
REMARK                         _______ _______ _______ _____ _____    ______ ____
ROOT
ATOM      1  O   UNL     1      35.978 -18.093 -22.179  0.00  0.00    -0.291 OA
ATOM      2  C   UNL     1      33.017 -23.393 -16.281  0.00  0.00    +0.033 C 
ATOM      3  C   UNL     1      34.418 -22.726 -16.260  0.00  0.00    +0.007 C 
ATOM      4  C   UNL     1      34.982 -22.463 -17.660  0.00  0.00    +0.001 C 
ATOM      5  C   UNL     1      34.007 -21.527 -18.434  0.00  0.00    +0.004 C 
ATOM      6  C   UNL     1      32.062 -22.422 -16.996  0.00  0.00    +0.003 C 
ATOM      7  C   UNL     1      32.791 -23.599 -14.752  0.00  0.00    +0.154 C 
ATOM      8  C   UNL     1      32.554 -22.062 -18.409  0.00  0.00    +0.000 C 
ATOM      9  C   UNL     1      35.223 -23.611 -15.310  0.00  0.00    +0.025 C 
ATOM     10  C   UNL     1      34.521 -21.257 -19.882  0.00  0.00    +0.019 C 
ATOM     11  C   UNL     1      36.378 -21.828 -17.607  0.00  0.00    +0.004 C 
ATOM     12  C   UNL     1      34.182 -23.996 -14.276  0.00  0.00    -0.014 C 
ATOM     13  C   UNL     1      33.009 -24.762 -17.023  0.00  0.00    +0.003 C 
ATOM     14  C   UNL     1      36.920 -21.601 -19.013  0.00  0.00    +0.022 C 
ATOM     15  C   UNL     1      35.974 -20.801 -19.872  0.00  0.00    -0.042 C 
ATOM     16  C   UNL     1      33.606 -20.241 -20.597  0.00  0.00    +0.012 C 
ATOM     17  C   UNL     1      34.223 -19.696 -21.873  0.00  0.00    +0.069 C 
ATOM     18  C   UNL     1      36.441 -19.776 -20.604  0.00  0.00    +0.029 C 
ATOM     19  C   UNL     1      34.503 -24.572 -13.112  0.00  0.00    -0.006 C 
ATOM     20  C   UNL     1      35.568 -19.085 -21.580  0.00  0.00    +0.173 C 
ENDROOT
BRANCH   7  22
ATOM     21  O   UNL     1      31.982 -25.743 -14.068  0.00  0.00    -0.293 OA
ATOM     22  C   UNL     1      31.713 -24.591 -14.404  0.00  0.00    +0.178 C 
ATOM     23  C   UNL     1      30.293 -24.102 -14.483  0.00  0.00    +0.075 C 
ENDBRANCH   7  22
BRANCH   7  24
ATOM     24  O   UNL     1      32.433 -22.392 -14.089  0.00  0.00    -0.376 OA
ATOM     25  H   UNL     1      32.734 -22.428 -13.168  0.00  0.00    +0.211 HD
ENDBRANCH   7  24
TORSDOF 2
ENDMDL
MODEL 8
REMARK VINA RESULT:      -7.4      3.352      6.684
REMARK  Name = 11823650
REMARK  2 active torsions:
REMARK  status: ('A' for Active; 'I' for Inactive)
REMARK    1  A    between atoms: C_7  and  C_22
REMARK    2  A    between atoms: C_7  and  O_24
REMARK                            x       y       z     vdW  Elec       q    Type
REMARK                         _______ _______ _______ _____ _____    ______ ____
ROOT
ATOM      1  O   UNL     1      39.889 -25.068 -14.493  0.00  0.00    -0.291 OA
ATOM      2  C   UNL     1      31.506 -23.927 -14.734  0.00  0.00    +0.033 C 
ATOM      3  C   UNL     1      32.479 -23.654 -15.912  0.00  0.00    +0.007 C 
ATOM      4  C   UNL     1      33.875 -23.221 -15.452  0.00  0.00    +0.001 C 
ATOM      5  C   UNL     1      34.488 -24.342 -14.563  0.00  0.00    +0.004 C 
ATOM      6  C   UNL     1      32.105 -25.078 -13.907  0.00  0.00    +0.003 C 
ATOM      7  C   UNL     1      30.200 -24.240 -15.527  0.00  0.00    +0.154 C 
ATOM      8  C   UNL     1      33.530 -24.760 -13.420  0.00  0.00    +0.000 C 
ATOM      9  C   UNL     1      31.690 -22.710 -16.817  0.00  0.00    +0.025 C 
ATOM     10  C   UNL     1      35.900 -23.933 -14.039  0.00  0.00    +0.019 C 
ATOM     11  C   UNL     1      34.805 -22.932 -16.637  0.00  0.00    +0.004 C 
ATOM     12  C   UNL     1      30.275 -23.238 -16.670  0.00  0.00    -0.014 C 
ATOM     13  C   UNL     1      31.302 -22.686 -13.815  0.00  0.00    +0.003 C 
ATOM     14  C   UNL     1      36.177 -22.482 -16.149  0.00  0.00    +0.022 C 
ATOM     15  C   UNL     1      36.792 -23.460 -15.180  0.00  0.00    -0.042 C 
ATOM     16  C   UNL     1      36.541 -25.096 -13.255  0.00  0.00    +0.012 C 
ATOM     17  C   UNL     1      38.024 -24.882 -13.000  0.00  0.00    +0.069 C 
ATOM     18  C   UNL     1      38.073 -23.833 -15.332  0.00  0.00    +0.029 C 
ATOM     19  C   UNL     1      29.280 -22.862 -17.482  0.00  0.00    -0.006 C 
ATOM     20  C   UNL     1      38.746 -24.658 -14.303  0.00  0.00    +0.173 C 
ENDROOT
BRANCH   7  22
ATOM     21  O   UNL     1      28.550 -25.098 -14.023  0.00  0.00    -0.293 OA
ATOM     22  C   UNL     1      28.936 -24.157 -14.715  0.00  0.00    +0.178 C 
ATOM     23  C   UNL     1      28.169 -22.864 -14.788  0.00  0.00    +0.075 C 
ENDBRANCH   7  22
BRANCH   7  24
ATOM     24  O   UNL     1      30.209 -25.546 -16.093  0.00  0.00    -0.376 OA
ATOM     25  H   UNL     1      30.145 -26.205 -15.385  0.00  0.00    +0.211 HD
ENDBRANCH   7  24
TORSDOF 2
ENDMDL
MODEL 9
REMARK VINA RESULT:      -7.1      7.504     11.402
REMARK  Name = 11823650
REMARK  2 active torsions:
REMARK  status: ('A' for Active; 'I' for Inactive)
REMARK    1  A    between atoms: C_7  and  C_22
REMARK    2  A    between atoms: C_7  and  O_24
REMARK                            x       y       z     vdW  Elec       q    Type
REMARK                         _______ _______ _______ _____ _____    ______ ____
ROOT
ATOM      1  O   UNL     1      31.637  -8.344 -19.818  0.00  0.00    -0.291 OA
ATOM      2  C   UNL     1      33.847 -16.256 -21.857  0.00  0.00    +0.033 C 
ATOM      3  C   UNL     1      33.754 -15.070 -22.853  0.00  0.00    +0.007 C 
ATOM      4  C   UNL     1      32.692 -14.036 -22.463  0.00  0.00    +0.001 C 
ATOM      5  C   UNL     1      33.032 -13.465 -21.055  0.00  0.00    +0.004 C 
ATOM      6  C   UNL     1      34.243 -15.672 -20.490  0.00  0.00    +0.003 C 
ATOM      7  C   UNL     1      34.914 -17.134 -22.579  0.00  0.00    +0.154 C 
ATOM      8  C   UNL     1      33.255 -14.591 -20.014  0.00  0.00    +0.000 C 
ATOM      9  C   UNL     1      33.632 -15.752 -24.215  0.00  0.00    +0.025 C 
ATOM     10  C   UNL     1      31.958 -12.431 -20.595  0.00  0.00    +0.019 C 
ATOM     11  C   UNL     1      32.605 -12.890 -23.479  0.00  0.00    +0.004 C 
ATOM     12  C   UNL     1      34.527 -16.965 -24.042  0.00  0.00    -0.014 C 
ATOM     13  C   UNL     1      32.505 -17.034 -21.714  0.00  0.00    +0.003 C 
ATOM     14  C   UNL     1      31.526 -11.892 -23.076  0.00  0.00    +0.022 C 
ATOM     15  C   UNL     1      31.714 -11.380 -21.670  0.00  0.00    -0.042 C 
ATOM     16  C   UNL     1      32.366 -11.792 -19.252  0.00  0.00    +0.012 C 
ATOM     17  C   UNL     1      31.542 -10.561 -18.915  0.00  0.00    +0.069 C 
ATOM     18  C   UNL     1      31.620 -10.063 -21.421  0.00  0.00    +0.029 C 
ATOM     19  C   UNL     1      34.915 -17.725 -25.073  0.00  0.00    -0.006 C 
ATOM     20  C   UNL     1      31.633  -9.554 -20.031  0.00  0.00    +0.173 C 
ENDROOT
BRANCH   7  22
ATOM     21  O   UNL     1      34.212 -19.421 -22.577  0.00  0.00    -0.293 OA
ATOM     22  C   UNL     1      34.967 -18.566 -22.116  0.00  0.00    +0.178 C 
ATOM     23  C   UNL     1      35.992 -18.899 -21.066  0.00  0.00    +0.075 C 
ENDBRANCH   7  22
BRANCH   7  24
ATOM     24  O   UNL     1      36.233 -16.628 -22.417  0.00  0.00    -0.376 OA
ATOM     25  H   UNL     1      36.366 -16.362 -21.494  0.00  0.00    +0.211 HD
ENDBRANCH   7  24
TORSDOF 2
ENDMDL
