MODEL 1
REMARK VINA RESULT:      -7.5      0.000      0.000
REMARK  Name = 169682
REMARK  5 active torsions:
REMARK  status: ('A' for Active; 'I' for Inactive)
REMARK    1  A    between atoms: C_1  and  C_13
REMARK    2  A    between atoms: C_2  and  S_7
REMARK    3  A    between atoms: S_7  and  N_10
REMARK    4  A    between atoms: C_13  and  C_14
REMARK    5  A    between atoms: C_14  and  N_15
REMARK                            x       y       z     vdW  Elec       q    Type
REMARK                         _______ _______ _______ _____ _____    ______ ____
ROOT
ATOM      1  C   UNL     1      35.073 -19.150 -21.133  0.00  0.00    -0.024 C 
ATOM      2  C   UNL     1      34.262 -21.371 -19.654  0.00  0.00    +0.122 C 
ATOM      3  C   UNL     1      33.715 -19.423 -20.975  0.00  0.00    -0.003 C 
ATOM      4  C   UNL     1      36.026 -19.986 -20.553  0.00  0.00    -0.003 C 
ATOM      5  C   UNL     1      33.309 -20.535 -20.235  0.00  0.00    +0.020 C 
ATOM      6  C   UNL     1      35.621 -21.098 -19.814  0.00  0.00    +0.020 C 
ENDROOT
BRANCH   2   7
ATOM      7  S   UNL     1      33.755 -22.761 -18.727  0.00  0.00    +0.057 S 
ATOM      8  O   UNL     1      32.448 -22.478 -18.153  0.00  0.00    -0.153 OA
ATOM      9  O   UNL     1      33.946 -23.954 -19.540  0.00  0.00    -0.153 OA
BRANCH   7  10
ATOM     10  N   UNL     1      34.919 -22.759 -17.475  0.00  0.00    -0.203 NA
ATOM     11  H   UNL     1      34.969 -21.829 -17.058  0.00  0.00    +0.144 HD
ATOM     12  H   UNL     1      35.831 -23.008 -17.859  0.00  0.00    +0.144 HD
ENDBRANCH   7  10
ENDBRANCH   2   7
BRANCH   1  13
ATOM     13  C   UNL     1      35.507 -17.961 -21.925  0.00  0.00    +0.002 C 
BRANCH  13  14
ATOM     14  C   UNL     1      35.315 -18.171 -23.433  0.00  0.00    -0.081 C 
BRANCH  14  15
ATOM     15  N   UNL     1      35.389 -16.909 -24.163  0.00  0.00    +0.381 N 
ATOM     16  H   UNL     1      36.341 -16.545 -24.116  0.00  0.00    -0.089 HD
ATOM     17  H   UNL     1      34.746 -16.236 -23.746  0.00  0.00    -0.089 HD
ATOM     18  H   UNL     1      35.133 -17.065 -25.138  0.00  0.00    -0.089 HD
ENDBRANCH  14  15
ENDBRANCH  13  14
ENDBRANCH   1  13
TORSDOF 5
ENDMDL
MODEL 2
REMARK VINA RESULT:      -6.7      3.429      5.815
REMARK  Name = 169682
REMARK  5 active torsions:
REMARK  status: ('A' for Active; 'I' for Inactive)
REMARK    1  A    between atoms: C_1  and  C_13
REMARK    2  A    between atoms: C_2  and  S_7
REMARK    3  A    between atoms: S_7  and  N_10
REMARK    4  A    between atoms: C_13  and  C_14
REMARK    5  A    between atoms: C_14  and  N_15
REMARK                            x       y       z     vdW  Elec       q    Type
REMARK                         _______ _______ _______ _____ _____    ______ ____
ROOT
ATOM      1  C   UNL     1      34.027 -21.875 -19.153  0.00  0.00    -0.024 C 
ATOM      2  C   UNL     1      34.948 -19.794 -20.767  0.00  0.00    +0.122 C 
ATOM      3  C   UNL     1      35.397 -21.677 -19.321  0.00  0.00    -0.003 C 
ATOM      4  C   UNL     1      33.117 -21.033 -19.791  0.00  0.00    -0.003 C 
ATOM      5  C   UNL     1      35.857 -20.636 -20.128  0.00  0.00    +0.020 C 
ATOM      6  C   UNL     1      33.577 -19.993 -20.599  0.00  0.00    +0.020 C 
ENDROOT
BRANCH   2   7
ATOM      7  S   UNL     1      35.523 -18.491 -21.776  0.00  0.00    +0.057 S 
ATOM      8  O   UNL     1      36.969 -18.609 -21.898  0.00  0.00    -0.153 OA
ATOM      9  O   UNL     1      34.698 -18.434 -22.974  0.00  0.00    -0.153 OA
BRANCH   7  10
ATOM     10  N   UNL     1      35.161 -17.137 -20.797  0.00  0.00    -0.203 NA
ATOM     11  H   UNL     1      34.837 -16.369 -21.385  0.00  0.00    +0.144 HD
ATOM     12  H   UNL     1      35.999 -16.848 -20.292  0.00  0.00    +0.144 HD
ENDBRANCH   7  10
ENDBRANCH   2   7
BRANCH   1  13
ATOM     13  C   UNL     1      33.534 -22.988 -18.290  0.00  0.00    +0.002 C 
BRANCH  13  14
ATOM     14  C   UNL     1      34.295 -23.066 -16.959  0.00  0.00    -0.081 C 
BRANCH  14  15
ATOM     15  N   UNL     1      33.398 -23.363 -15.846  0.00  0.00    +0.381 N 
ATOM     16  H   UNL     1      32.749 -22.586 -15.716  0.00  0.00    -0.089 HD
ATOM     17  H   UNL     1      33.945 -23.496 -14.996  0.00  0.00    -0.089 HD
ATOM     18  H   UNL     1      32.873 -24.213 -16.050  0.00  0.00    -0.089 HD
ENDBRANCH  14  15
ENDBRANCH  13  14
ENDBRANCH   1  13
TORSDOF 5
ENDMDL
MODEL 3
REMARK VINA RESULT:      -6.6      3.385      5.662
REMARK  Name = 169682
REMARK  5 active torsions:
REMARK  status: ('A' for Active; 'I' for Inactive)
REMARK    1  A    between atoms: C_1  and  C_13
REMARK    2  A    between atoms: C_2  and  S_7
REMARK    3  A    between atoms: S_7  and  N_10
REMARK    4  A    between atoms: C_13  and  C_14
REMARK    5  A    between atoms: C_14  and  N_15
REMARK                            x       y       z     vdW  Elec       q    Type
REMARK                         _______ _______ _______ _____ _____    ______ ____
ROOT
ATOM      1  C   UNL     1      34.016 -21.723 -19.264  0.00  0.00    -0.024 C 
ATOM      2  C   UNL     1      35.114 -19.712 -20.856  0.00  0.00    +0.122 C 
ATOM      3  C   UNL     1      33.180 -20.827 -19.930  0.00  0.00    -0.003 C 
ATOM      4  C   UNL     1      35.400 -21.615 -19.394  0.00  0.00    -0.003 C 
ATOM      5  C   UNL     1      33.729 -19.821 -20.726  0.00  0.00    +0.020 C 
ATOM      6  C   UNL     1      35.949 -20.608 -20.189  0.00  0.00    +0.020 C 
ENDROOT
BRANCH   2   7
ATOM      7  S   UNL     1      35.801 -18.455 -21.853  0.00  0.00    +0.057 S 
ATOM      8  O   UNL     1      35.235 -17.179 -21.439  0.00  0.00    -0.153 OA
ATOM      9  O   UNL     1      37.247 -18.628 -21.885  0.00  0.00    -0.153 OA
BRANCH   7  10
ATOM     10  N   UNL     1      35.166 -18.870 -23.384  0.00  0.00    -0.203 NA
ATOM     11  H   UNL     1      35.452 -18.172 -24.072  0.00  0.00    +0.144 HD
ATOM     12  H   UNL     1      34.148 -18.899 -23.334  0.00  0.00    +0.144 HD
ENDBRANCH   7  10
ENDBRANCH   2   7
BRANCH   1  13
ATOM     13  C   UNL     1      33.429 -22.799 -18.413  0.00  0.00    +0.002 C 
BRANCH  13  14
ATOM     14  C   UNL     1      34.238 -23.026 -17.130  0.00  0.00    -0.081 C 
BRANCH  14  15
ATOM     15  N   UNL     1      33.383 -23.440 -16.022  0.00  0.00    +0.381 N 
ATOM     16  H   UNL     1      32.448 -23.649 -16.374  0.00  0.00    -0.089 HD
ATOM     17  H   UNL     1      33.327 -22.688 -15.336  0.00  0.00    -0.089 HD
ATOM     18  H   UNL     1      33.775 -24.273 -15.583  0.00  0.00    -0.089 HD
ENDBRANCH  14  15
ENDBRANCH  13  14
ENDBRANCH   1  13
TORSDOF 5
ENDMDL
MODEL 4
REMARK VINA RESULT:      -6.4      6.320      7.597
REMARK  Name = 169682
REMARK  5 active torsions:
REMARK  status: ('A' for Active; 'I' for Inactive)
REMARK    1  A    between atoms: C_1  and  C_13
REMARK    2  A    between atoms: C_2  and  S_7
REMARK    3  A    between atoms: S_7  and  N_10
REMARK    4  A    between atoms: C_13  and  C_14
REMARK    5  A    between atoms: C_14  and  N_15
REMARK                            x       y       z     vdW  Elec       q    Type
REMARK                         _______ _______ _______ _____ _____    ______ ____
ROOT
ATOM      1  C   UNL     1      35.245 -23.168 -15.728  0.00  0.00    -0.024 C 
ATOM      2  C   UNL     1      36.209 -23.795 -13.186  0.00  0.00    +0.122 C 
ATOM      3  C   UNL     1      34.377 -23.667 -14.757  0.00  0.00    -0.003 C 
ATOM      4  C   UNL     1      36.594 -22.981 -15.429  0.00  0.00    -0.003 C 
ATOM      5  C   UNL     1      34.860 -23.981 -13.486  0.00  0.00    +0.020 C 
ATOM      6  C   UNL     1      37.077 -23.296 -14.158  0.00  0.00    +0.020 C 
ENDROOT
BRANCH   2   7
ATOM      7  S   UNL     1      36.813 -24.185 -11.596  0.00  0.00    +0.057 S 
ATOM      8  O   UNL     1      37.796 -25.251 -11.726  0.00  0.00    -0.153 OA
ATOM      9  O   UNL     1      37.174 -22.946 -10.921  0.00  0.00    -0.153 OA
BRANCH   7  10
ATOM     10  N   UNL     1      35.406 -24.819 -10.860  0.00  0.00    -0.203 NA
ATOM     11  H   UNL     1      35.582 -24.974  -9.867  0.00  0.00    +0.144 HD
ATOM     12  H   UNL     1      35.159 -25.704 -11.304  0.00  0.00    +0.144 HD
ENDBRANCH   7  10
ENDBRANCH   2   7
BRANCH   1  13
ATOM     13  C   UNL     1      34.729 -22.833 -17.087  0.00  0.00    +0.002 C 
BRANCH  13  14
ATOM     14  C   UNL     1      33.253 -23.217 -17.255  0.00  0.00    -0.081 C 
BRANCH  14  15
ATOM     15  N   UNL     1      32.621 -22.459 -18.331  0.00  0.00    +0.381 N 
ATOM     16  H   UNL     1      33.019 -22.743 -19.227  0.00  0.00    -0.089 HD
ATOM     17  H   UNL     1      32.784 -21.463 -18.187  0.00  0.00    -0.089 HD
ATOM     18  H   UNL     1      31.618 -22.642 -18.332  0.00  0.00    -0.089 HD
ENDBRANCH  14  15
ENDBRANCH  13  14
ENDBRANCH   1  13
TORSDOF 5
ENDMDL
MODEL 5
REMARK VINA RESULT:      -6.3      4.956      6.126
REMARK  Name = 169682
REMARK  5 active torsions:
REMARK  status: ('A' for Active; 'I' for Inactive)
REMARK    1  A    between atoms: C_1  and  C_13
REMARK    2  A    between atoms: C_2  and  S_7
REMARK    3  A    between atoms: S_7  and  N_10
REMARK    4  A    between atoms: C_13  and  C_14
REMARK    5  A    between atoms: C_14  and  N_15
REMARK                            x       y       z     vdW  Elec       q    Type
REMARK                         _______ _______ _______ _____ _____    ______ ____
ROOT
ATOM      1  C   UNL     1      33.050 -14.080 -22.389  0.00  0.00    -0.024 C 
ATOM      2  C   UNL     1      34.306 -16.544 -22.025  0.00  0.00    +0.122 C 
ATOM      3  C   UNL     1      32.710 -14.881 -21.299  0.00  0.00    -0.003 C 
ATOM      4  C   UNL     1      34.017 -14.509 -23.297  0.00  0.00    -0.003 C 
ATOM      5  C   UNL     1      33.338 -16.113 -21.117  0.00  0.00    +0.020 C 
ATOM      6  C   UNL     1      34.645 -15.743 -23.116  0.00  0.00    +0.020 C 
ENDROOT
BRANCH   2   7
ATOM      7  S   UNL     1      35.094 -18.085 -21.797  0.00  0.00    +0.057 S 
ATOM      8  O   UNL     1      35.756 -18.075 -20.500  0.00  0.00    -0.153 OA
ATOM      9  O   UNL     1      34.144 -19.142 -22.116  0.00  0.00    -0.153 OA
BRANCH   7  10
ATOM     10  N   UNL     1      36.282 -18.028 -23.024  0.00  0.00    -0.203 NA
ATOM     11  H   UNL     1      35.885 -18.373 -23.898  0.00  0.00    +0.144 HD
ATOM     12  H   UNL     1      37.074 -18.612 -22.757  0.00  0.00    +0.144 HD
ENDBRANCH   7  10
ENDBRANCH   2   7
BRANCH   1  13
ATOM     13  C   UNL     1      32.378 -12.762 -22.584  0.00  0.00    +0.002 C 
BRANCH  13  14
ATOM     14  C   UNL     1      31.741 -12.242 -21.288  0.00  0.00    -0.081 C 
BRANCH  14  15
ATOM     15  N   UNL     1      30.526 -11.480 -21.557  0.00  0.00    +0.381 N 
ATOM     16  H   UNL     1      29.720 -12.107 -21.538  0.00  0.00    -0.089 HD
ATOM     17  H   UNL     1      30.594 -11.042 -22.475  0.00  0.00    -0.089 HD
ATOM     18  H   UNL     1      30.412 -10.759 -20.844  0.00  0.00    -0.089 HD
ENDBRANCH  14  15
ENDBRANCH  13  14
ENDBRANCH   1  13
TORSDOF 5
ENDMDL
MODEL 6
REMARK VINA RESULT:      -6.3      6.175      7.263
REMARK  Name = 169682
REMARK  5 active torsions:
REMARK  status: ('A' for Active; 'I' for Inactive)
REMARK    1  A    between atoms: C_1  and  C_13
REMARK    2  A    between atoms: C_2  and  S_7
REMARK    3  A    between atoms: S_7  and  N_10
REMARK    4  A    between atoms: C_13  and  C_14
REMARK    5  A    between atoms: C_14  and  N_15
REMARK                            x       y       z     vdW  Elec       q    Type
REMARK                         _______ _______ _______ _____ _____    ______ ____
ROOT
ATOM      1  C   UNL     1      30.747 -23.015 -15.486  0.00  0.00    -0.024 C 
ATOM      2  C   UNL     1      33.502 -23.455 -15.520  0.00  0.00    +0.122 C 
ATOM      3  C   UNL     1      31.436 -23.031 -16.699  0.00  0.00    -0.003 C 
ATOM      4  C   UNL     1      31.435 -23.218 -14.291  0.00  0.00    -0.003 C 
ATOM      5  C   UNL     1      32.813 -23.251 -16.716  0.00  0.00    +0.020 C 
ATOM      6  C   UNL     1      32.813 -23.437 -14.307  0.00  0.00    +0.020 C 
ENDROOT
BRANCH   2   7
ATOM      7  S   UNL     1      35.225 -23.731 -15.541  0.00  0.00    +0.057 S 
ATOM      8  O   UNL     1      35.461 -25.167 -15.499  0.00  0.00    -0.153 OA
ATOM      9  O   UNL     1      35.809 -22.933 -16.609  0.00  0.00    -0.153 OA
BRANCH   7  10
ATOM     10  N   UNL     1      35.682 -23.054 -14.039  0.00  0.00    -0.203 NA
ATOM     11  H   UNL     1      35.698 -22.036 -14.116  0.00  0.00    +0.144 HD
ATOM     12  H   UNL     1      36.610 -23.390 -13.783  0.00  0.00    +0.144 HD
ENDBRANCH   7  10
ENDBRANCH   2   7
BRANCH   1  13
ATOM     13  C   UNL     1      29.274 -22.780 -15.469  0.00  0.00    +0.002 C 
BRANCH  13  14
ATOM     14  C   UNL     1      28.533 -23.687 -16.459  0.00  0.00    -0.081 C 
BRANCH  14  15
ATOM     15  N   UNL     1      27.898 -22.914 -17.523  0.00  0.00    +0.381 N 
ATOM     16  H   UNL     1      26.946 -22.673 -17.246  0.00  0.00    -0.089 HD
ATOM     17  H   UNL     1      27.874 -23.468 -18.378  0.00  0.00    -0.089 HD
ATOM     18  H   UNL     1      28.431 -22.059 -17.686  0.00  0.00    -0.089 HD
ENDBRANCH  14  15
ENDBRANCH  13  14
ENDBRANCH   1  13
TORSDOF 5
ENDMDL
MODEL 7
REMARK VINA RESULT:      -6.3      6.286      7.783
REMARK  Name = 169682
REMARK  5 active torsions:
REMARK  status: ('A' for Active; 'I' for Inactive)
REMARK    1  A    between atoms: C_1  and  C_13
REMARK    2  A    between atoms: C_2  and  S_7
REMARK    3  A    between atoms: S_7  and  N_10
REMARK    4  A    between atoms: C_13  and  C_14
REMARK    5  A    between atoms: C_14  and  N_15
REMARK                            x       y       z     vdW  Elec       q    Type
REMARK                         _______ _______ _______ _____ _____    ______ ____
ROOT
ATOM      1  C   UNL     1      34.099 -23.456 -15.093  0.00  0.00    -0.024 C 
ATOM      2  C   UNL     1      36.077 -23.616 -13.131  0.00  0.00    +0.122 C 
ATOM      3  C   UNL     1      35.393 -23.015 -15.370  0.00  0.00    -0.003 C 
ATOM      4  C   UNL     1      33.794 -23.977 -13.836  0.00  0.00    -0.003 C 
ATOM      5  C   UNL     1      36.382 -23.095 -14.389  0.00  0.00    +0.020 C 
ATOM      6  C   UNL     1      34.783 -24.056 -12.854  0.00  0.00    +0.020 C 
ENDROOT
BRANCH   2   7
ATOM      7  S   UNL     1      37.315 -23.717 -11.904  0.00  0.00    +0.057 S 
ATOM      8  O   UNL     1      38.059 -22.466 -11.898  0.00  0.00    -0.153 OA
ATOM      9  O   UNL     1      36.707 -24.203 -10.674  0.00  0.00    -0.153 OA
BRANCH   7  10
ATOM     10  N   UNL     1      38.310 -24.949 -12.547  0.00  0.00    -0.203 NA
ATOM     11  H   UNL     1      38.927 -25.303 -11.816  0.00  0.00    +0.144 HD
ATOM     12  H   UNL     1      38.871 -24.569 -13.310  0.00  0.00    +0.144 HD
ENDBRANCH   7  10
ENDBRANCH   2   7
BRANCH   1  13
ATOM     13  C   UNL     1      33.042 -23.371 -16.142  0.00  0.00    +0.002 C 
BRANCH  13  14
ATOM     14  C   UNL     1      33.632 -23.142 -17.539  0.00  0.00    -0.081 C 
BRANCH  14  15
ATOM     15  N   UNL     1      32.702 -22.422 -18.403  0.00  0.00    +0.381 N 
ATOM     16  H   UNL     1      33.196 -22.085 -19.230  0.00  0.00    -0.089 HD
ATOM     17  H   UNL     1      32.310 -21.629 -17.895  0.00  0.00    -0.089 HD
ATOM     18  H   UNL     1      31.949 -23.048 -18.689  0.00  0.00    -0.089 HD
ENDBRANCH  14  15
ENDBRANCH  13  14
ENDBRANCH   1  13
TORSDOF 5
ENDMDL
MODEL 8
REMARK VINA RESULT:      -6.2      5.986      7.143
REMARK  Name = 169682
REMARK  5 active torsions:
REMARK  status: ('A' for Active; 'I' for Inactive)
REMARK    1  A    between atoms: C_1  and  C_13
REMARK    2  A    between atoms: C_2  and  S_7
REMARK    3  A    between atoms: S_7  and  N_10
REMARK    4  A    between atoms: C_13  and  C_14
REMARK    5  A    between atoms: C_14  and  N_15
REMARK                            x       y       z     vdW  Elec       q    Type
REMARK                         _______ _______ _______ _____ _____    ______ ____
ROOT
ATOM      1  C   UNL     1      35.726 -23.007 -15.908  0.00  0.00    -0.024 C 
ATOM      2  C   UNL     1      36.100 -24.110 -13.373  0.00  0.00    +0.122 C 
ATOM      3  C   UNL     1      34.678 -23.678 -15.279  0.00  0.00    -0.003 C 
ATOM      4  C   UNL     1      36.961 -22.888 -15.272  0.00  0.00    -0.003 C 
ATOM      5  C   UNL     1      34.865 -24.230 -14.011  0.00  0.00    +0.020 C 
ATOM      6  C   UNL     1      37.148 -23.440 -14.004  0.00  0.00    +0.020 C 
ENDROOT
BRANCH   2   7
ATOM      7  S   UNL     1      36.334 -24.799 -11.786  0.00  0.00    +0.057 S 
ATOM      8  O   UNL     1      37.409 -24.073 -11.125  0.00  0.00    -0.153 OA
ATOM      9  O   UNL     1      35.036 -24.918 -11.138  0.00  0.00    -0.153 OA
BRANCH   7  10
ATOM     10  N   UNL     1      36.890 -26.364 -12.189  0.00  0.00    -0.203 NA
ATOM     11  H   UNL     1      37.099 -26.404 -13.187  0.00  0.00    +0.144 HD
ATOM     12  H   UNL     1      36.169 -27.049 -11.966  0.00  0.00    +0.144 HD
ENDBRANCH   7  10
ENDBRANCH   2   7
BRANCH   1  13
ATOM     13  C   UNL     1      35.526 -22.418 -17.264  0.00  0.00    +0.002 C 
BRANCH  13  14
ATOM     14  C   UNL     1      36.770 -21.668 -17.757  0.00  0.00    -0.081 C 
BRANCH  14  15
ATOM     15  N   UNL     1      36.497 -20.922 -18.982  0.00  0.00    +0.381 N 
ATOM     16  H   UNL     1      35.493 -20.764 -19.067  0.00  0.00    -0.089 HD
ATOM     17  H   UNL     1      36.826 -21.456 -19.786  0.00  0.00    -0.089 HD
ATOM     18  H   UNL     1      36.981 -20.025 -18.948  0.00  0.00    -0.089 HD
ENDBRANCH  14  15
ENDBRANCH  13  14
ENDBRANCH   1  13
TORSDOF 5
ENDMDL
MODEL 9
REMARK VINA RESULT:      -6.2      4.606      5.893
REMARK  Name = 169682
REMARK  5 active torsions:
REMARK  status: ('A' for Active; 'I' for Inactive)
REMARK    1  A    between atoms: C_1  and  C_13
REMARK    2  A    between atoms: C_2  and  S_7
REMARK    3  A    between atoms: S_7  and  N_10
REMARK    4  A    between atoms: C_13  and  C_14
REMARK    5  A    between atoms: C_14  and  N_15
REMARK                            x       y       z     vdW  Elec       q    Type
REMARK                         _______ _______ _______ _____ _____    ______ ____
ROOT
ATOM      1  C   UNL     1      33.664 -14.050 -22.873  0.00  0.00    -0.024 C 
ATOM      2  C   UNL     1      34.630 -16.590 -22.238  0.00  0.00    +0.122 C 
ATOM      3  C   UNL     1      33.686 -14.476 -21.545  0.00  0.00    -0.003 C 
ATOM      4  C   UNL     1      34.124 -14.894 -23.883  0.00  0.00    -0.003 C 
ATOM      5  C   UNL     1      34.169 -15.746 -21.227  0.00  0.00    +0.020 C 
ATOM      6  C   UNL     1      34.607 -16.164 -23.566  0.00  0.00    +0.020 C 
ENDROOT
BRANCH   2   7
ATOM      7  S   UNL     1      35.235 -18.178 -21.841  0.00  0.00    +0.057 S 
ATOM      8  O   UNL     1      35.735 -18.151 -20.474  0.00  0.00    -0.153 OA
ATOM      9  O   UNL     1      34.235 -19.164 -22.226  0.00  0.00    -0.153 OA
BRANCH   7  10
ATOM     10  N   UNL     1      36.562 -18.297 -22.911  0.00  0.00    -0.203 NA
ATOM     11  H   UNL     1      37.412 -18.489 -22.380  0.00  0.00    +0.144 HD
ATOM     12  H   UNL     1      36.670 -17.419 -23.419  0.00  0.00    +0.144 HD
ENDBRANCH   7  10
ENDBRANCH   2   7
BRANCH   1  13
ATOM     13  C   UNL     1      33.148 -12.692 -23.212  0.00  0.00    +0.002 C 
BRANCH  13  14
ATOM     14  C   UNL     1      33.781 -12.138 -24.495  0.00  0.00    -0.081 C 
BRANCH  14  15
ATOM     15  N   UNL     1      34.581 -10.948 -24.227  0.00  0.00    +0.381 N 
ATOM     16  H   UNL     1      35.198 -11.124 -23.433  0.00  0.00    -0.089 HD
ATOM     17  H   UNL     1      33.965 -10.165 -24.012  0.00  0.00    -0.089 HD
ATOM     18  H   UNL     1      35.142 -10.723 -25.049  0.00  0.00    -0.089 HD
ENDBRANCH  14  15
ENDBRANCH  13  14
ENDBRANCH   1  13
TORSDOF 5
ENDMDL
