MODEL 1
REMARK VINA RESULT:      -9.3      0.000      0.000
REMARK  Name = 7006709
REMARK  5 active torsions:
REMARK  status: ('A' for Active; 'I' for Inactive)
REMARK    1  A    between atoms: C_1  and  C_13
REMARK    2  A    between atoms: C_2  and  C_7
REMARK    3  A    between atoms: C_13  and  CA_14
REMARK    4  A    between atoms: CA_14  and  N_15
REMARK    5  A    between atoms: CA_14  and  C_21
REMARK                            x       y       z     vdW  Elec       q    Type
REMARK                         _______ _______ _______ _____ _____    ______ ____
ROOT
ATOM      1  C   UNL     1      34.787 -16.816 -23.371  0.00  0.00    -0.024 C 
ATOM      2  C   UNL     1      34.703 -18.943 -21.598  0.00  0.00    -0.000 C 
ATOM      3  C   UNL     1      34.811 -18.110 -23.863  0.00  0.00    -0.004 C 
ATOM      4  C   UNL     1      34.722 -16.562 -22.010  0.00  0.00    -0.004 C 
ATOM      5  C   UNL     1      34.768 -19.181 -22.970  0.00  0.00    -0.000 C 
ATOM      6  C   UNL     1      34.680 -17.633 -21.118  0.00  0.00    -0.000 C 
ENDROOT
BRANCH   2   7
ATOM      7  C   UNL     1      34.659 -20.054 -20.672  0.00  0.00    -0.000 C 
ATOM      8  C   UNL     1      35.845 -20.633 -20.221  0.00  0.00    -0.000 C 
ATOM      9  C   UNL     1      33.431 -20.546 -20.231  0.00  0.00    -0.000 C 
ATOM     10  C   UNL     1      35.802 -21.706 -19.330  0.00  0.00    +0.000 C 
ATOM     11  C   UNL     1      33.388 -21.617 -19.339  0.00  0.00    +0.000 C 
ATOM     12  C   UNL     1      34.574 -22.198 -18.889  0.00  0.00    +0.000 C 
ENDBRANCH   2   7
BRANCH   1  13
ATOM     13  C   UNL     1      34.832 -15.656 -24.337  0.00  0.00    +0.016 C 
BRANCH  13  14
ATOM     14  CA  UNL     1      33.443 -15.077 -24.630  0.00  0.00    +0.045 C 
BRANCH  14  15
ATOM     15  N   UNL     1      33.306 -14.995 -26.118  0.00  0.00    +0.389 N 
ATOM     16  H1  UNL     1      32.418 -15.410 -26.402  0.00  0.00    -0.088 HD
ATOM     17  H2  UNL     1      34.074 -15.502 -26.559  0.00  0.00    -0.088 HD
ATOM     18  H3  UNL     1      33.332 -14.018 -26.409  0.00  0.00    -0.088 HD
ENDBRANCH  14  15
BRANCH  14  21
ATOM     19  O   UNL     1      32.434 -13.722 -22.978  0.00  0.00    -0.248 OA
ATOM     20  OXT UNL     1      33.894 -12.753 -24.447  0.00  0.00    -0.248 OA
ATOM     21  C   UNL     1      33.235 -13.712 -23.955  0.00  0.00    +0.345 C 
ENDBRANCH  14  21
ENDBRANCH  13  14
ENDBRANCH   1  13
TORSDOF 5
ENDMDL
MODEL 2
REMARK VINA RESULT:      -9.3      0.060      1.612
REMARK  Name = 7006709
REMARK  5 active torsions:
REMARK  status: ('A' for Active; 'I' for Inactive)
REMARK    1  A    between atoms: C_1  and  C_13
REMARK    2  A    between atoms: C_2  and  C_7
REMARK    3  A    between atoms: C_13  and  CA_14
REMARK    4  A    between atoms: CA_14  and  N_15
REMARK    5  A    between atoms: CA_14  and  C_21
REMARK                            x       y       z     vdW  Elec       q    Type
REMARK                         _______ _______ _______ _____ _____    ______ ____
ROOT
ATOM      1  C   UNL     1      34.780 -16.835 -23.420  0.00  0.00    -0.024 C 
ATOM      2  C   UNL     1      34.691 -18.953 -21.635  0.00  0.00    -0.000 C 
ATOM      3  C   UNL     1      34.699 -16.575 -22.062  0.00  0.00    -0.004 C 
ATOM      4  C   UNL     1      34.818 -18.133 -23.904  0.00  0.00    -0.004 C 
ATOM      5  C   UNL     1      34.654 -17.641 -21.164  0.00  0.00    -0.000 C 
ATOM      6  C   UNL     1      34.773 -19.199 -23.006  0.00  0.00    -0.000 C 
ENDROOT
BRANCH   2   7
ATOM      7  C   UNL     1      34.644 -20.058 -20.703  0.00  0.00    -0.000 C 
ATOM      8  C   UNL     1      33.415 -20.524 -20.235  0.00  0.00    -0.000 C 
ATOM      9  C   UNL     1      35.828 -20.658 -20.272  0.00  0.00    -0.000 C 
ATOM     10  C   UNL     1      33.371 -21.589 -19.334  0.00  0.00    +0.000 C 
ATOM     11  C   UNL     1      35.783 -21.723 -19.373  0.00  0.00    +0.000 C 
ATOM     12  C   UNL     1      34.554 -22.189 -18.904  0.00  0.00    +0.000 C 
ENDBRANCH   2   7
BRANCH   1  13
ATOM     13  C   UNL     1      34.830 -15.681 -24.393  0.00  0.00    +0.016 C 
BRANCH  13  14
ATOM     14  CA  UNL     1      33.450 -15.064 -24.647  0.00  0.00    +0.045 C 
BRANCH  14  15
ATOM     15  N   UNL     1      33.301 -14.918 -26.130  0.00  0.00    +0.389 N 
ATOM     16  H1  UNL     1      32.459 -14.380 -26.336  0.00  0.00    -0.088 HD
ATOM     17  H2  UNL     1      33.226 -15.842 -26.557  0.00  0.00    -0.088 HD
ATOM     18  H3  UNL     1      34.114 -14.434 -26.507  0.00  0.00    -0.088 HD
ENDBRANCH  14  15
BRANCH  14  21
ATOM     19  O   UNL     1      32.428 -13.741 -22.978  0.00  0.00    -0.248 OA
ATOM     20  OXT UNL     1      34.002 -12.777 -24.327  0.00  0.00    -0.248 OA
ATOM     21  C   UNL     1      33.276 -13.724 -23.915  0.00  0.00    +0.345 C 
ENDBRANCH  14  21
ENDBRANCH  13  14
ENDBRANCH   1  13
TORSDOF 5
ENDMDL
MODEL 3
REMARK VINA RESULT:      -9.1      5.163      7.999
REMARK  Name = 7006709
REMARK  5 active torsions:
REMARK  status: ('A' for Active; 'I' for Inactive)
REMARK    1  A    between atoms: C_1  and  C_13
REMARK    2  A    between atoms: C_2  and  C_7
REMARK    3  A    between atoms: C_13  and  CA_14
REMARK    4  A    between atoms: CA_14  and  N_15
REMARK    5  A    between atoms: CA_14  and  C_21
REMARK                            x       y       z     vdW  Elec       q    Type
REMARK                         _______ _______ _______ _____ _____    ______ ____
ROOT
ATOM      1  C   UNL     1      33.917 -22.059 -19.201  0.00  0.00    -0.024 C 
ATOM      2  C   UNL     1      34.386 -19.859 -20.818  0.00  0.00    -0.000 C 
ATOM      3  C   UNL     1      32.845 -21.305 -19.648  0.00  0.00    -0.004 C 
ATOM      4  C   UNL     1      35.219 -21.736 -19.546  0.00  0.00    -0.004 C 
ATOM      5  C   UNL     1      33.081 -20.197 -20.462  0.00  0.00    -0.000 C 
ATOM      6  C   UNL     1      35.456 -20.628 -20.359  0.00  0.00    -0.000 C 
ENDROOT
BRANCH   2   7
ATOM      7  C   UNL     1      34.631 -18.709 -21.662  0.00  0.00    -0.000 C 
ATOM      8  C   UNL     1      34.654 -17.429 -21.108  0.00  0.00    -0.000 C 
ATOM      9  C   UNL     1      34.843 -18.881 -23.030  0.00  0.00    -0.000 C 
ATOM     10  C   UNL     1      34.888 -16.321 -21.922  0.00  0.00    +0.000 C 
ATOM     11  C   UNL     1      35.078 -17.774 -23.844  0.00  0.00    +0.000 C 
ATOM     12  C   UNL     1      35.101 -16.493 -23.290  0.00  0.00    +0.000 C 
ENDBRANCH   2   7
BRANCH   1  13
ATOM     13  C   UNL     1      33.661 -23.259 -18.321  0.00  0.00    +0.016 C 
BRANCH  13  14
ATOM     14  CA  UNL     1      33.428 -22.877 -16.854  0.00  0.00    +0.045 C 
BRANCH  14  15
ATOM     15  N   UNL     1      34.449 -23.610 -16.042  0.00  0.00    +0.389 N 
ATOM     16  H1  UNL     1      34.686 -23.060 -15.216  0.00  0.00    -0.088 HD
ATOM     17  H2  UNL     1      35.288 -23.759 -16.603  0.00  0.00    -0.088 HD
ATOM     18  H3  UNL     1      34.070 -24.511 -15.751  0.00  0.00    -0.088 HD
ENDBRANCH  14  15
BRANCH  14  21
ATOM     19  O   UNL     1      31.913 -23.980 -15.416  0.00  0.00    -0.248 OA
ATOM     20  OXT UNL     1      31.076 -22.618 -17.051  0.00  0.00    -0.248 OA
ATOM     21  C   UNL     1      31.994 -23.190 -16.400  0.00  0.00    +0.345 C 
ENDBRANCH  14  21
ENDBRANCH  13  14
ENDBRANCH   1  13
TORSDOF 5
ENDMDL
MODEL 4
REMARK VINA RESULT:      -9.1      7.341     10.249
REMARK  Name = 7006709
REMARK  5 active torsions:
REMARK  status: ('A' for Active; 'I' for Inactive)
REMARK    1  A    between atoms: C_1  and  C_13
REMARK    2  A    between atoms: C_2  and  C_7
REMARK    3  A    between atoms: C_13  and  CA_14
REMARK    4  A    between atoms: CA_14  and  N_15
REMARK    5  A    between atoms: CA_14  and  C_21
REMARK                            x       y       z     vdW  Elec       q    Type
REMARK                         _______ _______ _______ _____ _____    ______ ____
ROOT
ATOM      1  C   UNL     1      36.439 -23.285 -15.952  0.00  0.00    -0.024 C 
ATOM      2  C   UNL     1      35.413 -21.912 -18.129  0.00  0.00    -0.000 C 
ATOM      3  C   UNL     1      37.264 -22.431 -16.665  0.00  0.00    -0.004 C 
ATOM      4  C   UNL     1      35.112 -23.467 -16.304  0.00  0.00    -0.004 C 
ATOM      5  C   UNL     1      36.747 -21.740 -17.761  0.00  0.00    -0.000 C 
ATOM      6  C   UNL     1      34.595 -22.776 -17.400  0.00  0.00    -0.000 C 
ENDROOT
BRANCH   2   7
ATOM      7  C   UNL     1      34.877 -21.196 -19.266  0.00  0.00    -0.000 C 
ATOM      8  C   UNL     1      33.500 -21.163 -19.484  0.00  0.00    -0.000 C 
ATOM      9  C   UNL     1      35.739 -20.539 -20.145  0.00  0.00    -0.000 C 
ATOM     10  C   UNL     1      32.984 -20.474 -20.582  0.00  0.00    +0.000 C 
ATOM     11  C   UNL     1      35.223 -19.850 -21.242  0.00  0.00    +0.000 C 
ATOM     12  C   UNL     1      33.845 -19.817 -21.461  0.00  0.00    +0.000 C 
ENDBRANCH   2   7
BRANCH   1  13
ATOM     13  C   UNL     1      36.998 -24.032 -14.764  0.00  0.00    +0.016 C 
BRANCH  13  14
ATOM     14  CA  UNL     1      36.330 -25.397 -14.558  0.00  0.00    +0.045 C 
BRANCH  14  15
ATOM     15  N   UNL     1      36.113 -25.561 -13.086  0.00  0.00    +0.389 N 
ATOM     16  H1  UNL     1      36.431 -24.723 -12.599  0.00  0.00    -0.088 HD
ATOM     17  H2  UNL     1      36.640 -26.368 -12.752  0.00  0.00    -0.088 HD
ATOM     18  H3  UNL     1      35.120 -25.704 -12.902  0.00  0.00    -0.088 HD
ENDBRANCH  14  15
BRANCH  14  21
ATOM     19  O   UNL     1      36.622 -27.149 -16.115  0.00  0.00    -0.248 OA
ATOM     20  OXT UNL     1      38.293 -26.731 -14.612  0.00  0.00    -0.248 OA
ATOM     21  C   UNL     1      37.166 -26.542 -15.150  0.00  0.00    +0.345 C 
ENDBRANCH  14  21
ENDBRANCH  13  14
ENDBRANCH   1  13
TORSDOF 5
ENDMDL
MODEL 5
REMARK VINA RESULT:      -8.9      7.616     10.564
REMARK  Name = 7006709
REMARK  5 active torsions:
REMARK  status: ('A' for Active; 'I' for Inactive)
REMARK    1  A    between atoms: C_1  and  C_13
REMARK    2  A    between atoms: C_2  and  C_7
REMARK    3  A    between atoms: C_13  and  CA_14
REMARK    4  A    between atoms: CA_14  and  N_15
REMARK    5  A    between atoms: CA_14  and  C_21
REMARK                            x       y       z     vdW  Elec       q    Type
REMARK                         _______ _______ _______ _____ _____    ______ ____
ROOT
ATOM      1  C   UNL     1      35.517 -23.730 -15.537  0.00  0.00    -0.024 C 
ATOM      2  C   UNL     1      35.006 -22.244 -17.819  0.00  0.00    -0.000 C 
ATOM      3  C   UNL     1      36.516 -22.926 -16.061  0.00  0.00    -0.004 C 
ATOM      4  C   UNL     1      34.267 -23.807 -16.130  0.00  0.00    -0.004 C 
ATOM      5  C   UNL     1      36.258 -22.179 -17.209  0.00  0.00    -0.000 C 
ATOM      6  C   UNL     1      34.010 -23.059 -17.279  0.00  0.00    -0.000 C 
ENDROOT
BRANCH   2   7
ATOM      7  C   UNL     1      34.739 -21.469 -19.011  0.00  0.00    -0.000 C 
ATOM      8  C   UNL     1      35.797 -20.950 -19.757  0.00  0.00    -0.000 C 
ATOM      9  C   UNL     1      33.423 -21.240 -19.413  0.00  0.00    -0.000 C 
ATOM     10  C   UNL     1      35.539 -20.200 -20.905  0.00  0.00    +0.000 C 
ATOM     11  C   UNL     1      33.165 -20.491 -20.561  0.00  0.00    +0.000 C 
ATOM     12  C   UNL     1      34.224 -19.971 -21.307  0.00  0.00    +0.000 C 
ENDBRANCH   2   7
BRANCH   1  13
ATOM     13  C   UNL     1      35.795 -24.539 -14.292  0.00  0.00    +0.016 C 
BRANCH  13  14
ATOM     14  CA  UNL     1      36.817 -25.657 -14.531  0.00  0.00    +0.045 C 
BRANCH  14  15
ATOM     15  N   UNL     1      36.068 -26.821 -15.102  0.00  0.00    +0.389 N 
ATOM     16  H1  UNL     1      36.296 -27.664 -14.575  0.00  0.00    -0.088 HD
ATOM     17  H2  UNL     1      36.333 -26.950 -16.079  0.00  0.00    -0.088 HD
ATOM     18  H3  UNL     1      35.066 -26.644 -15.042  0.00  0.00    -0.088 HD
ENDBRANCH  14  15
BRANCH  14  21
ATOM     19  O   UNL     1      38.821 -26.157 -13.385  0.00  0.00    -0.248 OA
ATOM     20  OXT UNL     1      36.859 -26.156 -12.210  0.00  0.00    -0.248 OA
ATOM     21  C   UNL     1      37.571 -26.031 -13.246  0.00  0.00    +0.345 C 
ENDBRANCH  14  21
ENDBRANCH  13  14
ENDBRANCH   1  13
TORSDOF 5
ENDMDL
MODEL 6
REMARK VINA RESULT:      -8.8      7.137     10.154
REMARK  Name = 7006709
REMARK  5 active torsions:
REMARK  status: ('A' for Active; 'I' for Inactive)
REMARK    1  A    between atoms: C_1  and  C_13
REMARK    2  A    between atoms: C_2  and  C_7
REMARK    3  A    between atoms: C_13  and  CA_14
REMARK    4  A    between atoms: CA_14  and  N_15
REMARK    5  A    between atoms: CA_14  and  C_21
REMARK                            x       y       z     vdW  Elec       q    Type
REMARK                         _______ _______ _______ _____ _____    ______ ____
ROOT
ATOM      1  C   UNL     1      35.433 -23.514 -16.019  0.00  0.00    -0.024 C 
ATOM      2  C   UNL     1      34.892 -21.967 -18.253  0.00  0.00    -0.000 C 
ATOM      3  C   UNL     1      34.177 -23.579 -16.602  0.00  0.00    -0.004 C 
ATOM      4  C   UNL     1      36.424 -22.692 -16.531  0.00  0.00    -0.004 C 
ATOM      5  C   UNL     1      33.906 -22.800 -17.726  0.00  0.00    -0.000 C 
ATOM      6  C   UNL     1      36.151 -21.913 -17.655  0.00  0.00    -0.000 C 
ENDROOT
BRANCH   2   7
ATOM      7  C   UNL     1      34.610 -21.158 -19.419  0.00  0.00    -0.000 C 
ATOM      8  C   UNL     1      33.289 -20.891 -19.779  0.00  0.00    -0.000 C 
ATOM      9  C   UNL     1      35.659 -20.647 -20.183  0.00  0.00    -0.000 C 
ATOM     10  C   UNL     1      33.017 -20.113 -20.906  0.00  0.00    +0.000 C 
ATOM     11  C   UNL     1      35.388 -19.869 -21.308  0.00  0.00    +0.000 C 
ATOM     12  C   UNL     1      34.066 -19.602 -21.669  0.00  0.00    +0.000 C 
ENDBRANCH   2   7
BRANCH   1  13
ATOM     13  C   UNL     1      35.728 -24.359 -14.802  0.00  0.00    +0.016 C 
BRANCH  13  14
ATOM     14  CA  UNL     1      36.794 -25.428 -15.070  0.00  0.00    +0.045 C 
BRANCH  14  15
ATOM     15  N   UNL     1      36.104 -26.756 -15.026  0.00  0.00    +0.389 N 
ATOM     16  H1  UNL     1      36.715 -27.442 -14.583  0.00  0.00    -0.088 HD
ATOM     17  H2  UNL     1      35.887 -27.059 -15.976  0.00  0.00    -0.088 HD
ATOM     18  H3  UNL     1      35.241 -26.673 -14.490  0.00  0.00    -0.088 HD
ENDBRANCH  14  15
BRANCH  14  21
ATOM     19  O   UNL     1      38.516 -24.216 -13.999  0.00  0.00    -0.248 OA
ATOM     20  OXT UNL     1      38.200 -26.407 -13.426  0.00  0.00    -0.248 OA
ATOM     21  C   UNL     1      37.954 -25.346 -14.066  0.00  0.00    +0.345 C 
ENDBRANCH  14  21
ENDBRANCH  13  14
ENDBRANCH   1  13
TORSDOF 5
ENDMDL
MODEL 7
REMARK VINA RESULT:      -8.7      1.531      2.245
REMARK  Name = 7006709
REMARK  5 active torsions:
REMARK  status: ('A' for Active; 'I' for Inactive)
REMARK    1  A    between atoms: C_1  and  C_13
REMARK    2  A    between atoms: C_2  and  C_7
REMARK    3  A    between atoms: C_13  and  CA_14
REMARK    4  A    between atoms: CA_14  and  N_15
REMARK    5  A    between atoms: CA_14  and  C_21
REMARK                            x       y       z     vdW  Elec       q    Type
REMARK                         _______ _______ _______ _____ _____    ______ ____
ROOT
ATOM      1  C   UNL     1      34.247 -15.336 -23.343  0.00  0.00    -0.024 C 
ATOM      2  C   UNL     1      34.785 -17.649 -21.917  0.00  0.00    -0.000 C 
ATOM      3  C   UNL     1      34.290 -15.285 -21.960  0.00  0.00    -0.004 C 
ATOM      4  C   UNL     1      34.467 -16.520 -24.029  0.00  0.00    -0.004 C 
ATOM      5  C   UNL     1      34.561 -16.450 -21.242  0.00  0.00    -0.000 C 
ATOM      6  C   UNL     1      34.737 -17.684 -23.310  0.00  0.00    -0.000 C 
ENDROOT
BRANCH   2   7
ATOM      7  C   UNL     1      35.065 -18.857 -21.172  0.00  0.00    -0.000 C 
ATOM      8  C   UNL     1      36.382 -19.202 -20.870  0.00  0.00    -0.000 C 
ATOM      9  C   UNL     1      34.017 -19.679 -20.756  0.00  0.00    -0.000 C 
ATOM     10  C   UNL     1      36.652 -20.369 -20.154  0.00  0.00    +0.000 C 
ATOM     11  C   UNL     1      34.286 -20.844 -20.039  0.00  0.00    +0.000 C 
ATOM     12  C   UNL     1      35.604 -21.189 -19.738  0.00  0.00    +0.000 C 
ENDBRANCH   2   7
BRANCH   1  13
ATOM     13  C   UNL     1      33.955 -14.075 -24.121  0.00  0.00    +0.016 C 
BRANCH  13  14
ATOM     14  CA  UNL     1      33.416 -12.946 -23.235  0.00  0.00    +0.045 C 
BRANCH  14  15
ATOM     15  N   UNL     1      31.969 -13.237 -22.985  0.00  0.00    +0.389 N 
ATOM     16  H1  UNL     1      31.884 -13.930 -22.242  0.00  0.00    -0.088 HD
ATOM     17  H2  UNL     1      31.542 -13.599 -23.838  0.00  0.00    -0.088 HD
ATOM     18  H3  UNL     1      31.493 -12.379 -22.705  0.00  0.00    -0.088 HD
ENDBRANCH  14  15
BRANCH  14  21
ATOM     19  O   UNL     1      33.062 -10.610 -23.264  0.00  0.00    -0.248 OA
ATOM     20  OXT UNL     1      34.339 -11.545 -24.915  0.00  0.00    -0.248 OA
ATOM     21  C   UNL     1      33.626 -11.564 -23.873  0.00  0.00    +0.345 C 
ENDBRANCH  14  21
ENDBRANCH  13  14
ENDBRANCH   1  13
TORSDOF 5
ENDMDL
MODEL 8
REMARK VINA RESULT:      -8.6      3.910      7.324
REMARK  Name = 7006709
REMARK  5 active torsions:
REMARK  status: ('A' for Active; 'I' for Inactive)
REMARK    1  A    between atoms: C_1  and  C_13
REMARK    2  A    between atoms: C_2  and  C_7
REMARK    3  A    between atoms: C_13  and  CA_14
REMARK    4  A    between atoms: CA_14  and  N_15
REMARK    5  A    between atoms: CA_14  and  C_21
REMARK                            x       y       z     vdW  Elec       q    Type
REMARK                         _______ _______ _______ _____ _____    ______ ____
ROOT
ATOM      1  C   UNL     1      35.543 -18.370 -21.569  0.00  0.00    -0.024 C 
ATOM      2  C   UNL     1      34.563 -16.450 -23.309  0.00  0.00    -0.000 C 
ATOM      3  C   UNL     1      35.120 -17.151 -21.065  0.00  0.00    -0.004 C 
ATOM      4  C   UNL     1      35.486 -18.649 -22.925  0.00  0.00    -0.004 C 
ATOM      5  C   UNL     1      34.627 -16.185 -21.941  0.00  0.00    -0.000 C 
ATOM      6  C   UNL     1      34.993 -17.682 -23.801  0.00  0.00    -0.000 C 
ENDROOT
BRANCH   2   7
ATOM      7  C   UNL     1      34.052 -15.447 -24.217  0.00  0.00    -0.000 C 
ATOM      8  C   UNL     1      33.938 -14.121 -23.801  0.00  0.00    -0.000 C 
ATOM      9  C   UNL     1      33.670 -15.807 -25.510  0.00  0.00    -0.000 C 
ATOM     10  C   UNL     1      33.443 -13.154 -24.676  0.00  0.00    +0.000 C 
ATOM     11  C   UNL     1      33.176 -14.841 -26.386  0.00  0.00    +0.000 C 
ATOM     12  C   UNL     1      33.062 -13.514 -25.969  0.00  0.00    +0.000 C 
ENDBRANCH   2   7
BRANCH   1  13
ATOM     13  C   UNL     1      36.076 -19.418 -20.621  0.00  0.00    +0.016 C 
BRANCH  13  14
ATOM     14  CA  UNL     1      35.154 -20.638 -20.510  0.00  0.00    +0.045 C 
BRANCH  14  15
ATOM     15  N   UNL     1      33.759 -20.120 -20.348  0.00  0.00    +0.389 N 
ATOM     16  H1  UNL     1      33.095 -20.884 -20.477  0.00  0.00    -0.088 HD
ATOM     17  H2  UNL     1      33.582 -19.395 -21.043  0.00  0.00    -0.088 HD
ATOM     18  H3  UNL     1      33.648 -19.729 -19.413  0.00  0.00    -0.088 HD
ENDBRANCH  14  15
BRANCH  14  21
ATOM     19  O   UNL     1      36.434 -21.083 -18.574  0.00  0.00    -0.248 OA
ATOM     20  OXT UNL     1      34.979 -22.684 -19.317  0.00  0.00    -0.248 OA
ATOM     21  C   UNL     1      35.564 -21.564 -19.355  0.00  0.00    +0.345 C 
ENDBRANCH  14  21
ENDBRANCH  13  14
ENDBRANCH   1  13
TORSDOF 5
ENDMDL
MODEL 9
REMARK VINA RESULT:      -8.5     10.138     11.835
REMARK  Name = 7006709
REMARK  5 active torsions:
REMARK  status: ('A' for Active; 'I' for Inactive)
REMARK    1  A    between atoms: C_1  and  C_13
REMARK    2  A    between atoms: C_2  and  C_7
REMARK    3  A    between atoms: C_13  and  CA_14
REMARK    4  A    between atoms: CA_14  and  N_15
REMARK    5  A    between atoms: CA_14  and  C_21
REMARK                            x       y       z     vdW  Elec       q    Type
REMARK                         _______ _______ _______ _____ _____    ______ ____
ROOT
ATOM      1  C   UNL     1      36.698 -24.267 -14.039  0.00  0.00    -0.024 C 
ATOM      2  C   UNL     1      34.050 -23.726 -14.650  0.00  0.00    -0.000 C 
ATOM      3  C   UNL     1      36.371 -23.829 -15.312  0.00  0.00    -0.004 C 
ATOM      4  C   UNL     1      35.728 -24.439 -13.065  0.00  0.00    -0.004 C 
ATOM      5  C   UNL     1      35.038 -23.557 -15.619  0.00  0.00    -0.000 C 
ATOM      6  C   UNL     1      34.395 -24.168 -13.373  0.00  0.00    -0.000 C 
ENDROOT
BRANCH   2   7
ATOM      7  C   UNL     1      32.667 -23.444 -14.969  0.00  0.00    -0.000 C 
ATOM      8  C   UNL     1      31.708 -23.425 -13.957  0.00  0.00    -0.000 C 
ATOM      9  C   UNL     1      32.294 -23.193 -16.290  0.00  0.00    -0.000 C 
ATOM     10  C   UNL     1      30.374 -23.156 -14.266  0.00  0.00    +0.000 C 
ATOM     11  C   UNL     1      30.961 -22.923 -16.598  0.00  0.00    +0.000 C 
ATOM     12  C   UNL     1      30.000 -22.904 -15.586  0.00  0.00    +0.000 C 
ENDBRANCH   2   7
BRANCH   1  13
ATOM     13  C   UNL     1      38.141 -24.560 -13.706  0.00  0.00    +0.016 C 
BRANCH  13  14
ATOM     14  CA  UNL     1      38.759 -25.612 -14.635  0.00  0.00    +0.045 C 
BRANCH  14  15
ATOM     15  N   UNL     1      38.114 -26.922 -14.307  0.00  0.00    +0.389 N 
ATOM     16  H1  UNL     1      38.112 -27.518 -15.135  0.00  0.00    -0.088 HD
ATOM     17  H2  UNL     1      37.153 -26.761 -14.002  0.00  0.00    -0.088 HD
ATOM     18  H3  UNL     1      38.635 -27.380 -13.560  0.00  0.00    -0.088 HD
ENDBRANCH  14  15
BRANCH  14  21
ATOM     19  O   UNL     1      40.830 -24.585 -14.148  0.00  0.00    -0.248 OA
ATOM     20  OXT UNL     1      40.816 -26.794 -14.741  0.00  0.00    -0.248 OA
ATOM     21  C   UNL     1      40.288 -25.672 -14.499  0.00  0.00    +0.345 C 
ENDBRANCH  14  21
ENDBRANCH  13  14
ENDBRANCH   1  13
TORSDOF 5
ENDMDL
