MODEL 1
REMARK VINA RESULT:      -8.7      0.000      0.000
REMARK  Name = 3035000
REMARK  4 active torsions:
REMARK  status: ('A' for Active; 'I' for Inactive)
REMARK    1  A    between atoms: C_4  and  O_22
REMARK    2  A    between atoms: C_4  and  C_25
REMARK    3  A    between atoms: C_25  and  C_26
REMARK    4  A    between atoms: C_26  and  O_27
REMARK                            x       y       z     vdW  Elec       q    Type
REMARK                         _______ _______ _______ _____ _____    ______ ____
ROOT
ATOM      1  O   UNL     1      27.626 -24.673 -17.071  0.00  0.00    -0.287 OA
ATOM      2  C   UNL     1      35.404 -23.874 -15.039  0.00  0.00    +0.033 C 
ATOM      3  C   UNL     1      34.450 -24.778 -14.231  0.00  0.00    +0.007 C 
ATOM      4  C   UNL     1      36.717 -24.692 -14.915  0.00  0.00    +0.141 C 
ATOM      5  C   UNL     1      33.059 -24.155 -14.020  0.00  0.00    +0.019 C 
ATOM      6  C   UNL     1      35.245 -25.154 -12.980  0.00  0.00    +0.003 C 
ATOM      7  C   UNL     1      36.730 -25.138 -13.425  0.00  0.00    +0.032 C 
ATOM      8  C   UNL     1      34.791 -23.741 -16.445  0.00  0.00    +0.028 C 
ATOM      9  C   UNL     1      32.519 -23.518 -15.317  0.00  0.00    -0.042 C 
ATOM     10  C   UNL     1      35.569 -22.459 -14.413  0.00  0.00    +0.003 C 
ATOM     11  C   UNL     1      32.096 -25.226 -13.470  0.00  0.00    +0.008 C 
ATOM     12  C   UNL     1      31.042 -23.046 -15.262  0.00  0.00    +0.049 C 
ATOM     13  C   UNL     1      33.322 -23.379 -16.397  0.00  0.00    -0.034 C 
ATOM     14  C   UNL     1      37.414 -26.477 -13.160  0.00  0.00    +0.003 C 
ATOM     15  C   UNL     1      30.669 -24.709 -13.324  0.00  0.00    +0.023 C 
ATOM     16  C   UNL     1      30.186 -24.154 -14.642  0.00  0.00    -0.034 C 
ATOM     17  C   UNL     1      30.959 -21.773 -14.383  0.00  0.00    +0.013 C 
ATOM     18  C   UNL     1      30.493 -22.627 -16.620  0.00  0.00    -0.016 C 
ATOM     19  C   UNL     1      29.094 -24.673 -15.227  0.00  0.00    +0.034 C 
ATOM     20  C   UNL     1      29.407 -23.140 -17.209  0.00  0.00    +0.038 C 
ATOM     21  C   UNL     1      28.628 -24.199 -16.546  0.00  0.00    +0.195 C 
ENDROOT
BRANCH   4  22
ATOM     22  O   UNL     1      36.722 -25.837 -15.761  0.00  0.00    -0.380 OA
ATOM     23  H   UNL     1      36.511 -25.567 -16.669  0.00  0.00    +0.211 HD
ENDBRANCH   4  22
BRANCH   4  25
ATOM     24  O   UNL     1      37.905 -22.865 -15.880  0.00  0.00    -0.291 OA
ATOM     25  C   UNL     1      37.962 -23.939 -15.283  0.00  0.00    +0.204 C 
BRANCH  25  26
ATOM     26  C   UNL     1      39.275 -24.576 -14.880  0.00  0.00    +0.204 C 
BRANCH  26  27
ATOM     27  O   UNL     1      39.629 -25.602 -15.783  0.00  0.00    -0.375 OA
ATOM     28  H   UNL     1      38.828 -26.063 -16.079  0.00  0.00    +0.211 HD
ENDBRANCH  26  27
ENDBRANCH  25  26
ENDBRANCH   4  25
TORSDOF 4
ENDMDL
MODEL 2
REMARK VINA RESULT:      -7.6     11.020     12.955
REMARK  Name = 3035000
REMARK  4 active torsions:
REMARK  status: ('A' for Active; 'I' for Inactive)
REMARK    1  A    between atoms: C_4  and  O_22
REMARK    2  A    between atoms: C_4  and  C_25
REMARK    3  A    between atoms: C_25  and  C_26
REMARK    4  A    between atoms: C_26  and  O_27
REMARK                            x       y       z     vdW  Elec       q    Type
REMARK                         _______ _______ _______ _____ _____    ______ ____
ROOT
ATOM      1  O   UNL     1      35.043  -9.685 -25.876  0.00  0.00    -0.287 OA
ATOM      2  C   UNL     1      34.547 -17.020 -22.527  0.00  0.00    +0.033 C 
ATOM      3  C   UNL     1      34.438 -16.824 -24.053  0.00  0.00    +0.007 C 
ATOM      4  C   UNL     1      35.279 -18.389 -22.486  0.00  0.00    +0.141 C 
ATOM      5  C   UNL     1      33.595 -15.597 -24.447  0.00  0.00    +0.019 C 
ATOM      6  C   UNL     1      33.983 -18.184 -24.584  0.00  0.00    +0.003 C 
ATOM      7  C   UNL     1      34.560 -19.220 -23.586  0.00  0.00    +0.032 C 
ATOM      8  C   UNL     1      35.312 -15.799 -21.985  0.00  0.00    +0.028 C 
ATOM      9  C   UNL     1      33.948 -14.366 -23.587  0.00  0.00    -0.042 C 
ATOM     10  C   UNL     1      33.160 -17.111 -21.829  0.00  0.00    +0.003 C 
ATOM     11  C   UNL     1      33.779 -15.311 -25.950  0.00  0.00    +0.008 C 
ATOM     12  C   UNL     1      33.302 -13.030 -24.040  0.00  0.00    +0.049 C 
ATOM     13  C   UNL     1      34.750 -14.494 -22.504  0.00  0.00    -0.034 C 
ATOM     14  C   UNL     1      35.439 -20.253 -24.288  0.00  0.00    +0.003 C 
ATOM     15  C   UNL     1      33.048 -14.049 -26.398  0.00  0.00    +0.023 C 
ATOM     16  C   UNL     1      33.483 -12.877 -25.554  0.00  0.00    -0.034 C 
ATOM     17  C   UNL     1      31.792 -13.066 -23.700  0.00  0.00    +0.013 C 
ATOM     18  C   UNL     1      33.847 -11.815 -23.299  0.00  0.00    -0.016 C 
ATOM     19  C   UNL     1      34.044 -11.804 -26.135  0.00  0.00    +0.034 C 
ATOM     20  C   UNL     1      34.407 -10.744 -23.872  0.00  0.00    +0.038 C 
ATOM     21  C   UNL     1      34.538 -10.664 -25.337  0.00  0.00    +0.195 C 
ENDROOT
BRANCH   4  22
ATOM     22  O   UNL     1      36.663 -18.270 -22.797  0.00  0.00    -0.380 OA
ATOM     23  H   UNL     1      37.172 -18.179 -21.976  0.00  0.00    +0.211 HD
ENDBRANCH   4  22
BRANCH   4  25
ATOM     24  O   UNL     1      36.108 -18.867 -20.302  0.00  0.00    -0.291 OA
ATOM     25  C   UNL     1      35.244 -19.078 -21.153  0.00  0.00    +0.204 C 
BRANCH  25  26
ATOM     26  C   UNL     1      34.096 -20.037 -20.924  0.00  0.00    +0.204 C 
BRANCH  26  27
ATOM     27  O   UNL     1      34.360 -20.876 -19.820  0.00  0.00    -0.375 OA
ATOM     28  H   UNL     1      33.560 -21.377 -19.595  0.00  0.00    +0.211 HD
ENDBRANCH  26  27
ENDBRANCH  25  26
ENDBRANCH   4  25
TORSDOF 4
ENDMDL
MODEL 3
REMARK VINA RESULT:      -7.4     14.475     16.738
REMARK  Name = 3035000
REMARK  4 active torsions:
REMARK  status: ('A' for Active; 'I' for Inactive)
REMARK    1  A    between atoms: C_4  and  O_22
REMARK    2  A    between atoms: C_4  and  C_25
REMARK    3  A    between atoms: C_25  and  C_26
REMARK    4  A    between atoms: C_26  and  O_27
REMARK                            x       y       z     vdW  Elec       q    Type
REMARK                         _______ _______ _______ _____ _____    ______ ____
ROOT
ATOM      1  O   UNL     1      35.165 -16.540 -21.340  0.00  0.00    -0.287 OA
ATOM      2  C   UNL     1      33.184  -9.051 -23.633  0.00  0.00    +0.033 C 
ATOM      3  C   UNL     1      32.667  -9.651 -22.310  0.00  0.00    +0.007 C 
ATOM      4  C   UNL     1      33.349  -7.567 -23.209  0.00  0.00    +0.141 C 
ATOM      5  C   UNL     1      32.241 -11.124 -22.438  0.00  0.00    +0.019 C 
ATOM      6  C   UNL     1      31.610  -8.657 -21.825  0.00  0.00    +0.003 C 
ATOM      7  C   UNL     1      32.067  -7.282 -22.377  0.00  0.00    +0.032 C 
ATOM      8  C   UNL     1      34.467  -9.825 -23.990  0.00  0.00    +0.028 C 
ATOM      9  C   UNL     1      33.268 -11.944 -23.245  0.00  0.00    -0.042 C 
ATOM     10  C   UNL     1      32.161  -9.186 -24.798  0.00  0.00    +0.003 C 
ATOM     11  C   UNL     1      32.019 -11.717 -21.033  0.00  0.00    +0.008 C 
ATOM     12  C   UNL     1      33.034 -13.478 -23.257  0.00  0.00    +0.049 C 
ATOM     13  C   UNL     1      34.274 -11.323 -23.904  0.00  0.00    -0.034 C 
ATOM     14  C   UNL     1      32.240  -6.255 -21.260  0.00  0.00    +0.003 C 
ATOM     15  C   UNL     1      31.686 -13.205 -21.072  0.00  0.00    +0.023 C 
ATOM     16  C   UNL     1      32.759 -13.952 -21.826  0.00  0.00    -0.034 C 
ATOM     17  C   UNL     1      31.807 -13.789 -24.150  0.00  0.00    +0.013 C 
ATOM     18  C   UNL     1      34.185 -14.259 -23.879  0.00  0.00    -0.016 C 
ATOM     19  C   UNL     1      33.447 -14.931 -21.217  0.00  0.00    +0.034 C 
ATOM     20  C   UNL     1      34.875 -15.235 -23.278  0.00  0.00    +0.038 C 
ATOM     21  C   UNL     1      34.546 -15.642 -21.901  0.00  0.00    +0.195 C 
ENDROOT
BRANCH   4  22
ATOM     22  O   UNL     1      34.503  -7.362 -22.402  0.00  0.00    -0.380 OA
ATOM     23  H   UNL     1      34.392  -6.553 -21.879  0.00  0.00    +0.211 HD
ENDBRANCH   4  22
BRANCH   4  25
ATOM     24  O   UNL     1      34.556  -6.518 -24.977  0.00  0.00    -0.291 OA
ATOM     25  C   UNL     1      33.502  -6.602 -24.348  0.00  0.00    +0.204 C 
BRANCH  25  26
ATOM     26  C   UNL     1      32.294  -5.749 -24.670  0.00  0.00    +0.204 C 
BRANCH  26  27
ATOM     27  O   UNL     1      32.626  -4.749 -25.610  0.00  0.00    -0.375 OA
ATOM     28  H   UNL     1      33.020  -3.991 -25.150  0.00  0.00    +0.211 HD
ENDBRANCH  26  27
ENDBRANCH  25  26
ENDBRANCH   4  25
TORSDOF 4
ENDMDL
MODEL 4
REMARK VINA RESULT:      -7.2     11.340     13.383
REMARK  Name = 3035000
REMARK  4 active torsions:
REMARK  status: ('A' for Active; 'I' for Inactive)
REMARK    1  A    between atoms: C_4  and  O_22
REMARK    2  A    between atoms: C_4  and  C_25
REMARK    3  A    between atoms: C_25  and  C_26
REMARK    4  A    between atoms: C_26  and  O_27
REMARK                            x       y       z     vdW  Elec       q    Type
REMARK                         _______ _______ _______ _____ _____    ______ ____
ROOT
ATOM      1  O   UNL     1      32.872  -7.374 -19.876  0.00  0.00    -0.287 OA
ATOM      2  C   UNL     1      33.354 -15.243 -21.638  0.00  0.00    +0.033 C 
ATOM      3  C   UNL     1      33.478 -14.165 -22.734  0.00  0.00    +0.007 C 
ATOM      4  C   UNL     1      34.340 -16.305 -22.196  0.00  0.00    +0.141 C 
ATOM      5  C   UNL     1      32.478 -13.007 -22.560  0.00  0.00    +0.019 C 
ATOM      6  C   UNL     1      33.423 -14.944 -24.048  0.00  0.00    +0.003 C 
ATOM      7  C   UNL     1      34.020 -16.336 -23.718  0.00  0.00    +0.032 C 
ATOM      8  C   UNL     1      33.735 -14.562 -20.311  0.00  0.00    +0.028 C 
ATOM      9  C   UNL     1      32.405 -12.537 -21.092  0.00  0.00    -0.042 C 
ATOM     10  C   UNL     1      31.917 -15.826 -21.524  0.00  0.00    +0.003 C 
ATOM     11  C   UNL     1      32.860 -11.854 -23.508  0.00  0.00    +0.008 C 
ATOM     12  C   UNL     1      31.581 -11.244 -20.848  0.00  0.00    +0.049 C 
ATOM     13  C   UNL     1      33.011 -13.248 -20.114  0.00  0.00    -0.034 C 
ATOM     14  C   UNL     1      35.207 -16.670 -24.618  0.00  0.00    +0.003 C 
ATOM     15  C   UNL     1      31.970 -10.629 -23.325  0.00  0.00    +0.023 C 
ATOM     16  C   UNL     1      31.990 -10.190 -21.881  0.00  0.00    -0.034 C 
ATOM     17  C   UNL     1      30.077 -11.574 -21.012  0.00  0.00    +0.013 C 
ATOM     18  C   UNL     1      31.716 -10.702 -19.431  0.00  0.00    -0.016 C 
ATOM     19  C   UNL     1      32.405  -8.953 -21.563  0.00  0.00    +0.034 C 
ATOM     20  C   UNL     1      32.130  -9.472 -19.107  0.00  0.00    +0.038 C 
ATOM     21  C   UNL     1      32.498  -8.508 -20.158  0.00  0.00    +0.195 C 
ENDROOT
BRANCH   4  22
ATOM     22  O   UNL     1      35.700 -15.936 -21.996  0.00  0.00    -0.380 OA
ATOM     23  H   UNL     1      36.237 -16.270 -22.733  0.00  0.00    +0.211 HD
ENDBRANCH   4  22
BRANCH   4  25
ATOM     24  O   UNL     1      33.209 -17.990 -20.945  0.00  0.00    -0.291 OA
ATOM     25  C   UNL     1      34.217 -17.664 -21.572  0.00  0.00    +0.204 C 
BRANCH  25  26
ATOM     26  C   UNL     1      35.394 -18.597 -21.758  0.00  0.00    +0.204 C 
BRANCH  26  27
ATOM     27  O   UNL     1      36.164 -18.670 -20.577  0.00  0.00    -0.375 OA
ATOM     28  H   UNL     1      35.614 -18.426 -19.816  0.00  0.00    +0.211 HD
ENDBRANCH  26  27
ENDBRANCH  25  26
ENDBRANCH   4  25
TORSDOF 4
ENDMDL
MODEL 5
REMARK VINA RESULT:      -7.1      3.572      6.329
REMARK  Name = 3035000
REMARK  4 active torsions:
REMARK  status: ('A' for Active; 'I' for Inactive)
REMARK    1  A    between atoms: C_4  and  O_22
REMARK    2  A    between atoms: C_4  and  C_25
REMARK    3  A    between atoms: C_25  and  C_26
REMARK    4  A    between atoms: C_26  and  O_27
REMARK                            x       y       z     vdW  Elec       q    Type
REMARK                         _______ _______ _______ _____ _____    ______ ____
ROOT
ATOM      1  O   UNL     1      35.030 -18.339 -21.308  0.00  0.00    -0.287 OA
ATOM      2  C   UNL     1      32.795 -23.626 -15.623  0.00  0.00    +0.033 C 
ATOM      3  C   UNL     1      34.230 -23.065 -15.680  0.00  0.00    +0.007 C 
ATOM      4  C   UNL     1      32.619 -23.755 -14.086  0.00  0.00    +0.141 C 
ATOM      5  C   UNL     1      34.787 -22.968 -17.112  0.00  0.00    +0.019 C 
ATOM      6  C   UNL     1      35.016 -23.917 -14.681  0.00  0.00    +0.003 C 
ATOM      7  C   UNL     1      33.978 -24.344 -13.612  0.00  0.00    +0.032 C 
ATOM      8  C   UNL     1      31.899 -22.605 -16.348  0.00  0.00    +0.028 C 
ATOM      9  C   UNL     1      33.746 -22.379 -18.087  0.00  0.00    -0.042 C 
ATOM     10  C   UNL     1      32.661 -25.012 -16.316  0.00  0.00    +0.003 C 
ATOM     11  C   UNL     1      36.087 -22.140 -17.101  0.00  0.00    +0.008 C 
ATOM     12  C   UNL     1      34.275 -22.051 -19.508  0.00  0.00    +0.049 C 
ATOM     13  C   UNL     1      32.463 -22.202 -17.693  0.00  0.00    -0.034 C 
ATOM     14  C   UNL     1      34.406 -23.922 -12.208  0.00  0.00    +0.003 C 
ATOM     15  C   UNL     1      36.649 -21.917 -18.501  0.00  0.00    +0.023 C 
ATOM     16  C   UNL     1      35.598 -21.288 -19.383  0.00  0.00    -0.034 C 
ATOM     17  C   UNL     1      34.512 -23.378 -20.270  0.00  0.00    +0.013 C 
ATOM     18  C   UNL     1      33.276 -21.278 -20.359  0.00  0.00    -0.016 C 
ATOM     19  C   UNL     1      35.833 -20.099 -19.960  0.00  0.00    +0.034 C 
ATOM     20  C   UNL     1      33.503 -20.092 -20.936  0.00  0.00    +0.038 C 
ATOM     21  C   UNL     1      34.806 -19.423 -20.779  0.00  0.00    +0.195 C 
ENDROOT
BRANCH   4  22
ATOM     22  O   UNL     1      32.393 -22.497 -13.461  0.00  0.00    -0.380 OA
ATOM     23  H   UNL     1      32.091 -22.638 -12.550  0.00  0.00    +0.211 HD
ENDBRANCH   4  22
BRANCH   4  25
ATOM     24  O   UNL     1      31.637 -25.671 -13.062  0.00  0.00    -0.291 OA
ATOM     25  C   UNL     1      31.461 -24.608 -13.657  0.00  0.00    +0.204 C 
BRANCH  25  26
ATOM     26  C   UNL     1      30.082 -24.088 -14.000  0.00  0.00    +0.204 C 
BRANCH  26  27
ATOM     27  O   UNL     1      29.192 -25.156 -14.245  0.00  0.00    -0.375 OA
ATOM     28  H   UNL     1      29.422 -25.583 -15.086  0.00  0.00    +0.211 HD
ENDBRANCH  26  27
ENDBRANCH  25  26
ENDBRANCH   4  25
TORSDOF 4
ENDMDL
MODEL 6
REMARK VINA RESULT:      -6.7      1.829      7.394
REMARK  Name = 3035000
REMARK  4 active torsions:
REMARK  status: ('A' for Active; 'I' for Inactive)
REMARK    1  A    between atoms: C_4  and  O_22
REMARK    2  A    between atoms: C_4  and  C_25
REMARK    3  A    between atoms: C_25  and  C_26
REMARK    4  A    between atoms: C_26  and  O_27
REMARK                            x       y       z     vdW  Elec       q    Type
REMARK                         _______ _______ _______ _____ _____    ______ ____
ROOT
ATOM      1  O   UNL     1      40.554 -25.948 -15.446  0.00  0.00    -0.287 OA
ATOM      2  C   UNL     1      32.810 -24.046 -14.156  0.00  0.00    +0.033 C 
ATOM      3  C   UNL     1      33.591 -23.468 -15.354  0.00  0.00    +0.007 C 
ATOM      4  C   UNL     1      31.402 -24.184 -14.796  0.00  0.00    +0.141 C 
ATOM      5  C   UNL     1      35.030 -23.055 -14.996  0.00  0.00    +0.019 C 
ATOM      6  C   UNL     1      32.674 -22.386 -15.925  0.00  0.00    +0.003 C 
ATOM      7  C   UNL     1      31.236 -22.862 -15.598  0.00  0.00    +0.032 C 
ATOM      8  C   UNL     1      33.528 -25.347 -13.755  0.00  0.00    +0.028 C 
ATOM      9  C   UNL     1      35.729 -24.123 -14.130  0.00  0.00    -0.042 C 
ATOM     10  C   UNL     1      32.773 -23.080 -12.937  0.00  0.00    +0.003 C 
ATOM     11  C   UNL     1      35.817 -22.769 -16.290  0.00  0.00    +0.008 C 
ATOM     12  C   UNL     1      37.244 -23.897 -13.888  0.00  0.00    +0.049 C 
ATOM     13  C   UNL     1      35.022 -25.157 -13.616  0.00  0.00    -0.034 C 
ATOM     14  C   UNL     1      30.379 -22.977 -16.857  0.00  0.00    +0.003 C 
ATOM     15  C   UNL     1      37.283 -22.445 -16.022  0.00  0.00    +0.023 C 
ATOM     16  C   UNL     1      37.917 -23.556 -15.221  0.00  0.00    -0.034 C 
ATOM     17  C   UNL     1      37.421 -22.716 -12.902  0.00  0.00    +0.013 C 
ATOM     18  C   UNL     1      37.931 -25.080 -13.216  0.00  0.00    -0.016 C 
ATOM     19  C   UNL     1      38.975 -24.218 -15.716  0.00  0.00    +0.034 C 
ATOM     20  C   UNL     1      38.984 -25.745 -13.704  0.00  0.00    +0.038 C 
ATOM     21  C   UNL     1      39.584 -25.352 -14.991  0.00  0.00    +0.195 C 
ENDROOT
BRANCH   4  22
ATOM     22  O   UNL     1      31.317 -25.297 -15.678  0.00  0.00    -0.380 OA
ATOM     23  H   UNL     1      31.409 -26.119 -15.170  0.00  0.00    +0.211 HD
ENDBRANCH   4  22
BRANCH   4  25
ATOM     24  O   UNL     1      30.448 -24.192 -12.611  0.00  0.00    -0.291 OA
ATOM     25  C   UNL     1      30.284 -24.386 -13.815  0.00  0.00    +0.204 C 
BRANCH  25  26
ATOM     26  C   UNL     1      28.960 -24.839 -14.391  0.00  0.00    +0.204 C 
BRANCH  26  27
ATOM     27  O   UNL     1      28.931 -26.244 -14.528  0.00  0.00    -0.375 OA
ATOM     28  H   UNL     1      29.711 -26.539 -15.023  0.00  0.00    +0.211 HD
ENDBRANCH  26  27
ENDBRANCH  25  26
ENDBRANCH   4  25
TORSDOF 4
ENDMDL
MODEL 7
REMARK VINA RESULT:      -6.4      1.757      3.228
REMARK  Name = 3035000
REMARK  4 active torsions:
REMARK  status: ('A' for Active; 'I' for Inactive)
REMARK    1  A    between atoms: C_4  and  O_22
REMARK    2  A    between atoms: C_4  and  C_25
REMARK    3  A    between atoms: C_25  and  C_26
REMARK    4  A    between atoms: C_26  and  O_27
REMARK                            x       y       z     vdW  Elec       q    Type
REMARK                         _______ _______ _______ _____ _____    ______ ____
ROOT
ATOM      1  O   UNL     1      27.305 -21.864 -15.035  0.00  0.00    -0.287 OA
ATOM      2  C   UNL     1      35.051 -24.089 -14.479  0.00  0.00    +0.033 C 
ATOM      3  C   UNL     1      34.561 -23.159 -15.608  0.00  0.00    +0.007 C 
ATOM      4  C   UNL     1      36.470 -23.502 -14.248  0.00  0.00    +0.141 C 
ATOM      5  C   UNL     1      33.203 -23.585 -16.195  0.00  0.00    +0.019 C 
ATOM      6  C   UNL     1      35.743 -23.070 -16.573  0.00  0.00    +0.003 C 
ATOM      7  C   UNL     1      37.002 -23.256 -15.688  0.00  0.00    +0.032 C 
ATOM      8  C   UNL     1      34.038 -23.948 -13.328  0.00  0.00    +0.028 C 
ATOM      9  C   UNL     1      32.198 -23.963 -15.087  0.00  0.00    -0.042 C 
ATOM     10  C   UNL     1      35.131 -25.580 -14.916  0.00  0.00    +0.003 C 
ATOM     11  C   UNL     1      32.659 -22.458 -17.095  0.00  0.00    +0.008 C 
ATOM     12  C   UNL     1      30.742 -24.208 -15.564  0.00  0.00    +0.049 C 
ATOM     13  C   UNL     1      32.609 -24.085 -13.803  0.00  0.00    -0.034 C 
ATOM     14  C   UNL     1      37.967 -22.081 -15.825  0.00  0.00    +0.003 C 
ATOM     15  C   UNL     1      31.268 -22.766 -17.640  0.00  0.00    +0.023 C 
ATOM     16  C   UNL     1      30.325 -23.070 -16.501  0.00  0.00    -0.034 C 
ATOM     17  C   UNL     1      30.689 -25.554 -16.329  0.00  0.00    +0.013 C 
ATOM     18  C   UNL     1      29.751 -24.364 -14.418  0.00  0.00    -0.016 C 
ATOM     19  C   UNL     1      29.225 -22.321 -16.325  0.00  0.00    +0.034 C 
ATOM     20  C   UNL     1      28.653 -23.621 -14.236  0.00  0.00    +0.038 C 
ATOM     21  C   UNL     1      28.312 -22.548 -15.186  0.00  0.00    +0.195 C 
ENDROOT
BRANCH   4  22
ATOM     22  O   UNL     1      36.436 -22.274 -13.529  0.00  0.00    -0.380 OA
ATOM     23  H   UNL     1      35.513 -22.002 -13.398  0.00  0.00    +0.211 HD
ENDBRANCH   4  22
BRANCH   4  25
ATOM     24  O   UNL     1      38.061 -25.260 -14.000  0.00  0.00    -0.291 OA
ATOM     25  C   UNL     1      37.391 -24.383 -13.456  0.00  0.00    +0.204 C 
BRANCH  25  26
ATOM     26  C   UNL     1      37.444 -24.130 -11.965  0.00  0.00    +0.204 C 
BRANCH  26  27
ATOM     27  O   UNL     1      38.410 -23.147 -11.660  0.00  0.00    -0.375 OA
ATOM     28  H   UNL     1      38.825 -22.835 -12.479  0.00  0.00    +0.211 HD
ENDBRANCH  26  27
ENDBRANCH  25  26
ENDBRANCH   4  25
TORSDOF 4
ENDMDL
MODEL 8
REMARK VINA RESULT:      -6.0     14.007     16.243
REMARK  Name = 3035000
REMARK  4 active torsions:
REMARK  status: ('A' for Active; 'I' for Inactive)
REMARK    1  A    between atoms: C_4  and  O_22
REMARK    2  A    between atoms: C_4  and  C_25
REMARK    3  A    between atoms: C_25  and  C_26
REMARK    4  A    between atoms: C_26  and  O_27
REMARK                            x       y       z     vdW  Elec       q    Type
REMARK                         _______ _______ _______ _____ _____    ______ ____
ROOT
ATOM      1  O   UNL     1      35.481 -17.001 -22.335  0.00  0.00    -0.287 OA
ATOM      2  C   UNL     1      32.989  -9.381 -23.324  0.00  0.00    +0.033 C 
ATOM      3  C   UNL     1      32.592 -10.202 -22.081  0.00  0.00    +0.007 C 
ATOM      4  C   UNL     1      33.110  -7.971 -22.686  0.00  0.00    +0.141 C 
ATOM      5  C   UNL     1      32.230 -11.662 -22.409  0.00  0.00    +0.019 C 
ATOM      6  C   UNL     1      31.523  -9.356 -21.387  0.00  0.00    +0.003 C 
ATOM      7  C   UNL     1      31.874  -7.889 -21.746  0.00  0.00    +0.032 C 
ATOM      8  C   UNL     1      34.281 -10.016 -23.871  0.00  0.00    +0.028 C 
ATOM      9  C   UNL     1      33.239 -12.289 -23.393  0.00  0.00    -0.042 C 
ATOM     10  C   UNL     1      31.898  -9.397 -24.433  0.00  0.00    +0.003 C 
ATOM     11  C   UNL     1      32.132 -12.472 -21.102  0.00  0.00    +0.008 C 
ATOM     12  C   UNL     1      33.080 -13.815 -23.627  0.00  0.00    +0.049 C 
ATOM     13  C   UNL     1      34.167 -11.518 -24.006  0.00  0.00    -0.034 C 
ATOM     14  C   UNL     1      32.072  -7.034 -20.497  0.00  0.00    +0.003 C 
ATOM     15  C   UNL     1      31.870 -13.953 -21.351  0.00  0.00    +0.023 C 
ATOM     16  C   UNL     1      32.925 -14.514 -22.273  0.00  0.00    -0.034 C 
ATOM     17  C   UNL     1      31.812 -14.058 -24.483  0.00  0.00    +0.013 C 
ATOM     18  C   UNL     1      34.223 -14.424 -24.429  0.00  0.00    -0.016 C 
ATOM     19  C   UNL     1      33.699 -15.532 -21.864  0.00  0.00    +0.034 C 
ATOM     20  C   UNL     1      34.998 -15.438 -24.028  0.00  0.00    +0.038 C 
ATOM     21  C   UNL     1      34.783 -16.067 -22.713  0.00  0.00    +0.195 C 
ENDROOT
BRANCH   4  22
ATOM     22  O   UNL     1      34.305  -7.822 -21.927  0.00  0.00    -0.380 OA
ATOM     23  H   UNL     1      35.052  -7.669 -22.528  0.00  0.00    +0.211 HD
ENDBRANCH   4  22
BRANCH   4  25
ATOM     24  O   UNL     1      32.315  -5.925 -23.617  0.00  0.00    -0.291 OA
ATOM     25  C   UNL     1      33.138  -6.838 -23.670  0.00  0.00    +0.204 C 
BRANCH  25  26
ATOM     26  C   UNL     1      34.228  -6.888 -24.719  0.00  0.00    +0.204 C 
BRANCH  26  27
ATOM     27  O   UNL     1      35.496  -6.692 -24.130  0.00  0.00    -0.375 OA
ATOM     28  H   UNL     1      36.142  -7.287 -24.543  0.00  0.00    +0.211 HD
ENDBRANCH  26  27
ENDBRANCH  25  26
ENDBRANCH   4  25
TORSDOF 4
ENDMDL
