MODEL 1
REMARK VINA RESULT:      -7.5      0.000      0.000
REMARK  Name = 72135
REMARK  4 active torsions:
REMARK  status: ('A' for Active; 'I' for Inactive)
REMARK    1  A    between atoms: C_6  and  C_12
REMARK    2  A    between atoms: C_6  and  C_17
REMARK    3  A    between atoms: C_12  and  C_14
REMARK    4  A    between atoms: C_14  and  C_15
REMARK                            x       y       z     vdW  Elec       q    Type
REMARK                         _______ _______ _______ _____ _____    ______ ____
ROOT
ATOM      1  O   UNL     1      35.729 -25.448 -14.678  0.00  0.00    -0.274 OA
ATOM      2  O   UNL     1      38.215 -22.227 -12.121  0.00  0.00    -0.274 OA
ATOM      3  O   UNL     1      35.212 -25.065 -10.141  0.00  0.00    -0.252 OA
ATOM      4  N   UNL     1      35.498 -25.232 -12.412  0.00  0.00    -0.239 N 
ATOM      5  N   UNL     1      36.709 -23.659 -11.166  0.00  0.00    -0.239 N 
ATOM      6  C   UNL     1      37.106 -23.788 -13.592  0.00  0.00    +0.156 C 
ATOM      7  C   UNL     1      36.057 -24.886 -13.631  0.00  0.00    +0.240 C 
ATOM      8  C   UNL     1      37.400 -23.143 -12.247  0.00  0.00    +0.240 C 
ATOM      9  C   UNL     1      35.770 -24.679 -11.170  0.00  0.00    +0.312 C 
ATOM     10  H   UNL     1      34.831 -25.955 -12.429  0.00  0.00    +0.159 HD
ATOM     11  H   UNL     1      36.908 -23.255 -10.289  0.00  0.00    +0.159 HD
ENDROOT
BRANCH   6  12
ATOM     12  C   UNL     1      36.696 -22.684 -14.576  0.00  0.00    +0.020 C 
ATOM     13  C   UNL     1      35.191 -22.764 -14.842  0.00  0.00    +0.001 C 
BRANCH  12  14
ATOM     14  C   UNL     1      37.463 -22.767 -15.909  0.00  0.00    +0.001 C 
BRANCH  14  15
ATOM     15  C   UNL     1      37.356 -21.496 -16.754  0.00  0.00    +0.000 C 
ATOM     16  C   UNL     1      36.658 -21.767 -18.078  0.00  0.00    +0.000 C 
ENDBRANCH  14  15
ENDBRANCH  12  14
ENDBRANCH   6  12
BRANCH   6  17
ATOM     17  C   UNL     1      38.389 -24.442 -14.025  0.00  0.00    -0.010 C 
ATOM     18  C   UNL     1      38.990 -25.429 -13.352  0.00  0.00    -0.004 C 
ENDBRANCH   6  17
TORSDOF 4
ENDMDL
MODEL 2
REMARK VINA RESULT:      -7.4      2.585      3.982
REMARK  Name = 72135
REMARK  4 active torsions:
REMARK  status: ('A' for Active; 'I' for Inactive)
REMARK    1  A    between atoms: C_6  and  C_12
REMARK    2  A    between atoms: C_6  and  C_17
REMARK    3  A    between atoms: C_12  and  C_14
REMARK    4  A    between atoms: C_14  and  C_15
REMARK                            x       y       z     vdW  Elec       q    Type
REMARK                         _______ _______ _______ _____ _____    ______ ____
ROOT
ATOM      1  O   UNL     1      37.527 -23.185 -15.726  0.00  0.00    -0.274 OA
ATOM      2  O   UNL     1      37.123 -26.234 -12.033  0.00  0.00    -0.274 OA
ATOM      3  O   UNL     1      40.951 -25.989 -14.540  0.00  0.00    -0.252 OA
ATOM      4  N   UNL     1      39.217 -24.596 -15.104  0.00  0.00    -0.239 N 
ATOM      5  N   UNL     1      39.019 -26.084 -13.304  0.00  0.00    -0.239 N 
ATOM      6  C   UNL     1      37.118 -24.605 -13.816  0.00  0.00    +0.156 C 
ATOM      7  C   UNL     1      37.947 -24.061 -14.967  0.00  0.00    +0.240 C 
ATOM      8  C   UNL     1      37.729 -25.711 -12.970  0.00  0.00    +0.240 C 
ATOM      9  C   UNL     1      39.807 -25.583 -14.329  0.00  0.00    +0.312 C 
ATOM     10  H   UNL     1      39.765 -24.233 -15.837  0.00  0.00    +0.159 HD
ATOM     11  H   UNL     1      39.425 -26.790 -12.749  0.00  0.00    +0.159 HD
ENDROOT
BRANCH   6  12
ATOM     12  C   UNL     1      35.780 -25.110 -14.373  0.00  0.00    +0.020 C 
ATOM     13  C   UNL     1      36.036 -26.165 -15.452  0.00  0.00    +0.001 C 
BRANCH  12  14
ATOM     14  C   UNL     1      34.917 -23.974 -14.953  0.00  0.00    +0.001 C 
BRANCH  14  15
ATOM     15  C   UNL     1      33.499 -23.930 -14.378  0.00  0.00    +0.000 C 
ATOM     16  C   UNL     1      32.495 -23.448 -15.413  0.00  0.00    +0.000 C 
ENDBRANCH  14  15
ENDBRANCH  12  14
ENDBRANCH   6  12
BRANCH   6  17
ATOM     17  C   UNL     1      36.907 -23.443 -12.886  0.00  0.00    -0.010 C 
ATOM     18  C   UNL     1      37.829 -22.995 -12.027  0.00  0.00    -0.004 C 
ENDBRANCH   6  17
TORSDOF 4
ENDMDL
MODEL 3
REMARK VINA RESULT:      -7.2      1.781      3.945
REMARK  Name = 72135
REMARK  4 active torsions:
REMARK  status: ('A' for Active; 'I' for Inactive)
REMARK    1  A    between atoms: C_6  and  C_12
REMARK    2  A    between atoms: C_6  and  C_17
REMARK    3  A    between atoms: C_12  and  C_14
REMARK    4  A    between atoms: C_14  and  C_15
REMARK                            x       y       z     vdW  Elec       q    Type
REMARK                         _______ _______ _______ _____ _____    ______ ____
ROOT
ATOM      1  O   UNL     1      37.119 -22.966 -12.244  0.00  0.00    -0.274 OA
ATOM      2  O   UNL     1      35.914 -25.928 -15.832  0.00  0.00    -0.274 OA
ATOM      3  O   UNL     1      32.745 -23.989 -13.149  0.00  0.00    -0.252 OA
ATOM      4  N   UNL     1      34.946 -23.496 -12.726  0.00  0.00    -0.239 N 
ATOM      5  N   UNL     1      34.359 -24.942 -14.475  0.00  0.00    -0.239 N 
ATOM      6  C   UNL     1      36.743 -24.446 -14.115  0.00  0.00    +0.156 C 
ATOM      7  C   UNL     1      36.311 -23.577 -12.947  0.00  0.00    +0.240 C 
ATOM      8  C   UNL     1      35.658 -25.180 -14.887  0.00  0.00    +0.240 C 
ATOM      9  C   UNL     1      33.936 -24.132 -13.432  0.00  0.00    +0.312 C 
ATOM     10  H   UNL     1      34.660 -22.920 -11.981  0.00  0.00    +0.159 HD
ATOM     11  H   UNL     1      33.651 -25.404 -14.981  0.00  0.00    +0.159 HD
ENDROOT
BRANCH   6  12
ATOM     12  C   UNL     1      37.756 -25.481 -13.606  0.00  0.00    +0.020 C 
ATOM     13  C   UNL     1      37.196 -26.184 -12.367  0.00  0.00    +0.001 C 
BRANCH  12  14
ATOM     14  C   UNL     1      39.123 -24.856 -13.274  0.00  0.00    +0.001 C 
BRANCH  14  15
ATOM     15  C   UNL     1      40.308 -25.649 -13.829  0.00  0.00    +0.000 C 
ATOM     16  C   UNL     1      40.309 -25.653 -15.350  0.00  0.00    +0.000 C 
ENDBRANCH  14  15
ENDBRANCH  12  14
ENDBRANCH   6  12
BRANCH   6  17
ATOM     17  C   UNL     1      37.386 -23.508 -15.099  0.00  0.00    -0.010 C 
ATOM     18  C   UNL     1      36.724 -22.558 -15.768  0.00  0.00    -0.004 C 
ENDBRANCH   6  17
TORSDOF 4
ENDMDL
MODEL 4
REMARK VINA RESULT:      -7.2      2.508      3.971
REMARK  Name = 72135
REMARK  4 active torsions:
REMARK  status: ('A' for Active; 'I' for Inactive)
REMARK    1  A    between atoms: C_6  and  C_12
REMARK    2  A    between atoms: C_6  and  C_17
REMARK    3  A    between atoms: C_12  and  C_14
REMARK    4  A    between atoms: C_14  and  C_15
REMARK                            x       y       z     vdW  Elec       q    Type
REMARK                         _______ _______ _______ _____ _____    ______ ____
ROOT
ATOM      1  O   UNL     1      37.771 -23.200 -15.218  0.00  0.00    -0.274 OA
ATOM      2  O   UNL     1      36.883 -26.443 -11.784  0.00  0.00    -0.274 OA
ATOM      3  O   UNL     1      36.586 -27.508 -16.231  0.00  0.00    -0.252 OA
ATOM      4  N   UNL     1      37.181 -25.359 -15.688  0.00  0.00    -0.239 N 
ATOM      5  N   UNL     1      36.746 -26.940 -14.012  0.00  0.00    -0.239 N 
ATOM      6  C   UNL     1      37.408 -24.668 -13.336  0.00  0.00    +0.156 C 
ATOM      7  C   UNL     1      37.469 -24.325 -14.814  0.00  0.00    +0.240 C 
ATOM      8  C   UNL     1      36.988 -26.079 -12.957  0.00  0.00    +0.240 C 
ATOM      9  C   UNL     1      36.823 -26.661 -15.369  0.00  0.00    +0.312 C 
ATOM     10  H   UNL     1      37.237 -25.147 -16.647  0.00  0.00    +0.159 HD
ATOM     11  H   UNL     1      36.488 -27.861 -13.772  0.00  0.00    +0.159 HD
ENDROOT
BRANCH   6  12
ATOM     12  C   UNL     1      36.459 -23.681 -12.643  0.00  0.00    +0.020 C 
ATOM     13  C   UNL     1      36.974 -23.371 -11.235  0.00  0.00    +0.001 C 
BRANCH  12  14
ATOM     14  C   UNL     1      35.015 -24.211 -12.560  0.00  0.00    +0.001 C 
BRANCH  14  15
ATOM     15  C   UNL     1      34.173 -23.884 -13.796  0.00  0.00    +0.000 C 
ATOM     16  C   UNL     1      32.815 -24.565 -13.738  0.00  0.00    +0.000 C 
ENDBRANCH  14  15
ENDBRANCH  12  14
ENDBRANCH   6  12
BRANCH   6  17
ATOM     17  C   UNL     1      38.813 -24.506 -12.826  0.00  0.00    -0.010 C 
ATOM     18  C   UNL     1      39.874 -25.131 -13.347  0.00  0.00    -0.004 C 
ENDBRANCH   6  17
TORSDOF 4
ENDMDL
MODEL 5
REMARK VINA RESULT:      -6.9      2.119      3.469
REMARK  Name = 72135
REMARK  4 active torsions:
REMARK  status: ('A' for Active; 'I' for Inactive)
REMARK    1  A    between atoms: C_6  and  C_12
REMARK    2  A    between atoms: C_6  and  C_17
REMARK    3  A    between atoms: C_12  and  C_14
REMARK    4  A    between atoms: C_14  and  C_15
REMARK                            x       y       z     vdW  Elec       q    Type
REMARK                         _______ _______ _______ _____ _____    ______ ____
ROOT
ATOM      1  O   UNL     1      36.560 -25.903 -11.644  0.00  0.00    -0.274 OA
ATOM      2  O   UNL     1      36.861 -22.683 -15.199  0.00  0.00    -0.274 OA
ATOM      3  O   UNL     1      32.840 -23.818 -13.319  0.00  0.00    -0.252 OA
ATOM      4  N   UNL     1      34.724 -24.841 -12.501  0.00  0.00    -0.239 N 
ATOM      5  N   UNL     1      34.872 -23.272 -14.237  0.00  0.00    -0.239 N 
ATOM      6  C   UNL     1      36.950 -24.295 -13.402  0.00  0.00    +0.156 C 
ATOM      7  C   UNL     1      36.085 -25.092 -12.441  0.00  0.00    +0.240 C 
ATOM      8  C   UNL     1      36.247 -23.351 -14.365  0.00  0.00    +0.240 C 
ATOM      9  C   UNL     1      34.063 -23.966 -13.349  0.00  0.00    +0.312 C 
ATOM     10  H   UNL     1      34.161 -25.341 -11.868  0.00  0.00    +0.159 HD
ATOM     11  H   UNL     1      34.413 -22.650 -14.848  0.00  0.00    +0.159 HD
ENDROOT
BRANCH   6  12
ATOM     12  C   UNL     1      37.799 -25.274 -14.223  0.00  0.00    +0.020 C 
ATOM     13  C   UNL     1      36.912 -26.398 -14.764  0.00  0.00    +0.001 C 
BRANCH  12  14
ATOM     14  C   UNL     1      38.959 -25.876 -13.408  0.00  0.00    +0.001 C 
BRANCH  14  15
ATOM     15  C   UNL     1      40.303 -25.839 -14.138  0.00  0.00    +0.000 C 
ATOM     16  C   UNL     1      40.235 -24.965 -15.381  0.00  0.00    +0.000 C 
ENDBRANCH  14  15
ENDBRANCH  12  14
ENDBRANCH   6  12
BRANCH   6  17
ATOM     17  C   UNL     1      37.820 -23.427 -12.536  0.00  0.00    -0.010 C 
ATOM     18  C   UNL     1      37.366 -22.704 -11.507  0.00  0.00    -0.004 C 
ENDBRANCH   6  17
TORSDOF 4
ENDMDL
MODEL 6
REMARK VINA RESULT:      -6.7      1.775      2.387
REMARK  Name = 72135
REMARK  4 active torsions:
REMARK  status: ('A' for Active; 'I' for Inactive)
REMARK    1  A    between atoms: C_6  and  C_12
REMARK    2  A    between atoms: C_6  and  C_17
REMARK    3  A    between atoms: C_12  and  C_14
REMARK    4  A    between atoms: C_14  and  C_15
REMARK                            x       y       z     vdW  Elec       q    Type
REMARK                         _______ _______ _______ _____ _____    ______ ____
ROOT
ATOM      1  O   UNL     1      37.034 -26.607 -15.969  0.00  0.00    -0.274 OA
ATOM      2  O   UNL     1      37.817 -22.719 -13.255  0.00  0.00    -0.274 OA
ATOM      3  O   UNL     1      36.933 -26.812 -11.393  0.00  0.00    -0.252 OA
ATOM      4  N   UNL     1      36.995 -26.674 -13.683  0.00  0.00    -0.239 N 
ATOM      5  N   UNL     1      37.375 -24.777 -12.359  0.00  0.00    -0.239 N 
ATOM      6  C   UNL     1      37.492 -24.541 -14.807  0.00  0.00    +0.156 C 
ATOM      7  C   UNL     1      37.151 -26.019 -14.892  0.00  0.00    +0.240 C 
ATOM      8  C   UNL     1      37.573 -23.916 -13.424  0.00  0.00    +0.240 C 
ATOM      9  C   UNL     1      37.092 -26.134 -12.409  0.00  0.00    +0.312 C 
ATOM     10  H   UNL     1      36.792 -27.636 -13.732  0.00  0.00    +0.159 HD
ATOM     11  H   UNL     1      37.441 -24.380 -11.460  0.00  0.00    +0.159 HD
ENDROOT
BRANCH   6  12
ATOM     12  C   UNL     1      36.464 -23.753 -15.631  0.00  0.00    +0.020 C 
ATOM     13  C   UNL     1      37.146 -22.554 -16.295  0.00  0.00    +0.001 C 
BRANCH  12  14
ATOM     14  C   UNL     1      35.275 -23.268 -14.782  0.00  0.00    +0.001 C 
BRANCH  14  15
ATOM     15  C   UNL     1      33.931 -23.851 -15.224  0.00  0.00    +0.000 C 
ATOM     16  C   UNL     1      33.530 -23.340 -16.599  0.00  0.00    +0.000 C 
ENDBRANCH  14  15
ENDBRANCH  12  14
ENDBRANCH   6  12
BRANCH   6  17
ATOM     17  C   UNL     1      38.867 -24.410 -15.400  0.00  0.00    -0.010 C 
ATOM     18  C   UNL     1      39.929 -25.111 -14.989  0.00  0.00    -0.004 C 
ENDBRANCH   6  17
TORSDOF 4
ENDMDL
MODEL 7
REMARK VINA RESULT:      -6.7      2.153      3.938
REMARK  Name = 72135
REMARK  4 active torsions:
REMARK  status: ('A' for Active; 'I' for Inactive)
REMARK    1  A    between atoms: C_6  and  C_12
REMARK    2  A    between atoms: C_6  and  C_17
REMARK    3  A    between atoms: C_12  and  C_14
REMARK    4  A    between atoms: C_14  and  C_15
REMARK                            x       y       z     vdW  Elec       q    Type
REMARK                         _______ _______ _______ _____ _____    ______ ____
ROOT
ATOM      1  O   UNL     1      37.713 -22.751 -13.227  0.00  0.00    -0.274 OA
ATOM      2  O   UNL     1      36.111 -26.628 -15.570  0.00  0.00    -0.274 OA
ATOM      3  O   UNL     1      40.316 -26.484 -13.758  0.00  0.00    -0.252 OA
ATOM      4  N   UNL     1      38.984 -24.632 -13.507  0.00  0.00    -0.239 N 
ATOM      5  N   UNL     1      38.203 -26.522 -14.653  0.00  0.00    -0.239 N 
ATOM      6  C   UNL     1      36.692 -24.594 -14.405  0.00  0.00    +0.156 C 
ATOM      7  C   UNL     1      37.823 -23.896 -13.669  0.00  0.00    +0.240 C 
ATOM      8  C   UNL     1      36.956 -25.993 -14.937  0.00  0.00    +0.240 C 
ATOM      9  C   UNL     1      39.240 -25.918 -13.958  0.00  0.00    +0.312 C 
ATOM     10  H   UNL     1      39.713 -24.191 -13.015  0.00  0.00    +0.159 HD
ATOM     11  H   UNL     1      38.374 -27.435 -14.982  0.00  0.00    +0.159 HD
ENDROOT
BRANCH   6  12
ATOM     12  C   UNL     1      36.252 -23.708 -15.579  0.00  0.00    +0.020 C 
ATOM     13  C   UNL     1      37.384 -22.748 -15.953  0.00  0.00    +0.001 C 
BRANCH  12  14
ATOM     14  C   UNL     1      34.974 -22.907 -15.267  0.00  0.00    +0.001 C 
BRANCH  14  15
ATOM     15  C   UNL     1      33.780 -23.298 -16.139  0.00  0.00    +0.000 C 
ATOM     16  C   UNL     1      32.489 -23.320 -15.335  0.00  0.00    +0.000 C 
ENDBRANCH  14  15
ENDBRANCH  12  14
ENDBRANCH   6  12
BRANCH   6  17
ATOM     17  C   UNL     1      35.585 -24.738 -13.399  0.00  0.00    -0.010 C 
ATOM     18  C   UNL     1      35.783 -24.905 -12.087  0.00  0.00    -0.004 C 
ENDBRANCH   6  17
TORSDOF 4
ENDMDL
MODEL 8
REMARK VINA RESULT:      -6.5     17.349     19.036
REMARK  Name = 72135
REMARK  4 active torsions:
REMARK  status: ('A' for Active; 'I' for Inactive)
REMARK    1  A    between atoms: C_6  and  C_12
REMARK    2  A    between atoms: C_6  and  C_17
REMARK    3  A    between atoms: C_12  and  C_14
REMARK    4  A    between atoms: C_14  and  C_15
REMARK                            x       y       z     vdW  Elec       q    Type
REMARK                         _______ _______ _______ _____ _____    ______ ____
ROOT
ATOM      1  O   UNL     1      31.278  -8.171 -24.391  0.00  0.00    -0.274 OA
ATOM      2  O   UNL     1      33.103  -7.396 -20.013  0.00  0.00    -0.274 OA
ATOM      3  O   UNL     1      30.157  -4.464 -21.942  0.00  0.00    -0.252 OA
ATOM      4  N   UNL     1      30.737  -6.333 -23.140  0.00  0.00    -0.239 N 
ATOM      5  N   UNL     1      31.630  -5.955 -21.005  0.00  0.00    -0.239 N 
ATOM      6  C   UNL     1      32.285  -8.003 -22.203  0.00  0.00    +0.156 C 
ATOM      7  C   UNL     1      31.405  -7.528 -23.346  0.00  0.00    +0.240 C 
ATOM      8  C   UNL     1      32.393  -7.108 -20.979  0.00  0.00    +0.240 C 
ATOM      9  C   UNL     1      30.797  -5.513 -22.023  0.00  0.00    +0.312 C 
ATOM     10  H   UNL     1      30.152  -6.030 -23.870  0.00  0.00    +0.159 HD
ATOM     11  H   UNL     1      31.684  -5.379 -20.208  0.00  0.00    +0.159 HD
ENDROOT
BRANCH   6  12
ATOM     12  C   UNL     1      33.700  -8.251 -22.744  0.00  0.00    +0.020 C 
ATOM     13  C   UNL     1      34.141  -7.059 -23.598  0.00  0.00    +0.001 C 
BRANCH  12  14
ATOM     14  C   UNL     1      33.797  -9.546 -23.572  0.00  0.00    +0.001 C 
BRANCH  14  15
ATOM     15  C   UNL     1      35.028  -9.599 -24.479  0.00  0.00    +0.000 C 
ATOM     16  C   UNL     1      34.913 -10.716 -25.505  0.00  0.00    +0.000 C 
ENDBRANCH  14  15
ENDBRANCH  12  14
ENDBRANCH   6  12
BRANCH   6  17
ATOM     17  C   UNL     1      31.664  -9.285 -21.722  0.00  0.00    -0.010 C 
ATOM     18  C   UNL     1      31.792  -9.759 -20.479  0.00  0.00    -0.004 C 
ENDBRANCH   6  17
TORSDOF 4
ENDMDL
MODEL 9
REMARK VINA RESULT:      -6.5      2.200      3.788
REMARK  Name = 72135
REMARK  4 active torsions:
REMARK  status: ('A' for Active; 'I' for Inactive)
REMARK    1  A    between atoms: C_6  and  C_12
REMARK    2  A    between atoms: C_6  and  C_17
REMARK    3  A    between atoms: C_12  and  C_14
REMARK    4  A    between atoms: C_14  and  C_15
REMARK                            x       y       z     vdW  Elec       q    Type
REMARK                         _______ _______ _______ _____ _____    ______ ____
ROOT
ATOM      1  O   UNL     1      35.286 -25.131 -15.955  0.00  0.00    -0.274 OA
ATOM      2  O   UNL     1      37.963 -22.789 -12.724  0.00  0.00    -0.274 OA
ATOM      3  O   UNL     1      39.267 -26.828 -14.451  0.00  0.00    -0.252 OA
ATOM      4  N   UNL     1      37.279 -25.947 -15.185  0.00  0.00    -0.239 N 
ATOM      5  N   UNL     1      38.584 -24.806 -13.607  0.00  0.00    -0.239 N 
ATOM      6  C   UNL     1      36.482 -23.769 -14.360  0.00  0.00    +0.156 C 
ATOM      7  C   UNL     1      36.276 -24.995 -15.234  0.00  0.00    +0.240 C 
ATOM      8  C   UNL     1      37.724 -23.728 -13.485  0.00  0.00    +0.240 C 
ATOM      9  C   UNL     1      38.434 -25.921 -14.417  0.00  0.00    +0.312 C 
ATOM     10  H   UNL     1      37.160 -26.735 -15.763  0.00  0.00    +0.159 HD
ATOM     11  H   UNL     1      39.398 -24.777 -13.053  0.00  0.00    +0.159 HD
ENDROOT
BRANCH   6  12
ATOM     12  C   UNL     1      35.252 -23.599 -13.458  0.00  0.00    +0.020 C 
ATOM     13  C   UNL     1      35.146 -24.788 -12.501  0.00  0.00    +0.001 C 
BRANCH  12  14
ATOM     14  C   UNL     1      33.945 -23.463 -14.262  0.00  0.00    +0.001 C 
BRANCH  14  15
ATOM     15  C   UNL     1      32.768 -24.222 -13.646  0.00  0.00    +0.000 C 
ATOM     16  C   UNL     1      31.445 -23.538 -13.954  0.00  0.00    +0.000 C 
ENDBRANCH  14  15
ENDBRANCH  12  14
ENDBRANCH   6  12
BRANCH   6  17
ATOM     17  C   UNL     1      36.611 -22.613 -15.313  0.00  0.00    -0.010 C 
ATOM     18  C   UNL     1      37.571 -22.510 -16.239  0.00  0.00    -0.004 C 
ENDBRANCH   6  17
TORSDOF 4
ENDMDL
