MODEL 1
REMARK VINA RESULT:      -8.7      0.000      0.000
REMARK  Name = 9564
REMARK  6 active torsions:
REMARK  status: ('A' for Active; 'I' for Inactive)
REMARK    1  A    between atoms: S_1  and  N_6
REMARK    2  A    between atoms: S_1  and  C_14
REMARK    3  A    between atoms: N_5  and  C_10
REMARK    4  A    between atoms: C_10  and  C_11
REMARK    5  A    between atoms: C_11  and  C_12
REMARK    6  A    between atoms: C_17  and  N_20
REMARK                            x       y       z     vdW  Elec       q    Type
REMARK                         _______ _______ _______ _____ _____    ______ ____
ROOT
ATOM      1  S   UNL     1      34.080 -22.678 -18.794  0.00  0.00    +0.077 S 
ATOM      2  O   UNL     1      35.029 -22.605 -17.700  0.00  0.00    -0.150 OA
ATOM      3  O   UNL     1      34.092 -23.806 -19.705  0.00  0.00    -0.150 OA
ENDROOT
BRANCH   1   6
ATOM      4  O   UNL     1      32.721 -23.593 -16.156  0.00  0.00    -0.251 OA
ATOM      5  N   UNL     1      30.700 -22.623 -16.717  0.00  0.00    -0.288 N 
ATOM      6  N   UNL     1      32.497 -22.461 -18.186  0.00  0.00    -0.169 N 
ATOM      7  C   UNL     1      32.016 -22.954 -16.932  0.00  0.00    +0.319 C 
ATOM      8  H   UNL     1      30.223 -22.106 -17.405  0.00  0.00    +0.151 HD
ATOM      9  H   UNL     1      31.863 -21.955 -18.746  0.00  0.00    +0.178 HD
BRANCH   5  10
ATOM     10  C   UNL     1      29.985 -23.008 -15.506  0.00  0.00    +0.091 C 
BRANCH  10  11
ATOM     11  C   UNL     1      29.282 -24.350 -15.709  0.00  0.00    +0.021 C 
BRANCH  11  12
ATOM     12  C   UNL     1      29.901 -25.436 -14.829  0.00  0.00    +0.002 C 
ATOM     13  C   UNL     1      30.710 -24.837 -13.689  0.00  0.00    +0.000 C 
ENDBRANCH  11  12
ENDBRANCH  10  11
ENDBRANCH   5  10
ENDBRANCH   1   6
BRANCH   1  14
ATOM     14  C   UNL     1      34.265 -21.223 -19.781  0.00  0.00    +0.125 C 
ATOM     15  C   UNL     1      35.536 -20.799 -20.129  0.00  0.00    +0.021 C 
ATOM     16  C   UNL     1      33.136 -20.535 -20.189  0.00  0.00    +0.021 C 
ATOM     17  C   UNL     1      34.555 -18.945 -21.327  0.00  0.00    +0.042 C 
ATOM     18  C   UNL     1      35.683 -19.652 -20.907  0.00  0.00    +0.015 C 
ATOM     19  C   UNL     1      33.282 -19.387 -20.968  0.00  0.00    +0.015 C 
BRANCH  17  20
ATOM     20  N   UNL     1      34.703 -17.785 -22.116  0.00  0.00    -0.357 N 
ATOM     21  H   UNL     1      34.878 -17.866 -23.081  0.00  0.00    +0.142 HD
ATOM     22  H   UNL     1      34.632 -16.895 -21.701  0.00  0.00    +0.142 HD
ENDBRANCH  17  20
ENDBRANCH   1  14
TORSDOF 6
ENDMDL
MODEL 2
REMARK VINA RESULT:      -8.6      0.843      1.433
REMARK  Name = 9564
REMARK  6 active torsions:
REMARK  status: ('A' for Active; 'I' for Inactive)
REMARK    1  A    between atoms: S_1  and  N_6
REMARK    2  A    between atoms: S_1  and  C_14
REMARK    3  A    between atoms: N_5  and  C_10
REMARK    4  A    between atoms: C_10  and  C_11
REMARK    5  A    between atoms: C_11  and  C_12
REMARK    6  A    between atoms: C_17  and  N_20
REMARK                            x       y       z     vdW  Elec       q    Type
REMARK                         _______ _______ _______ _____ _____    ______ ____
ROOT
ATOM      1  S   UNL     1      34.124 -22.657 -18.815  0.00  0.00    +0.077 S 
ATOM      2  O   UNL     1      35.098 -22.584 -17.744  0.00  0.00    -0.150 OA
ATOM      3  O   UNL     1      34.121 -23.782 -19.730  0.00  0.00    -0.150 OA
ENDROOT
BRANCH   1   6
ATOM      4  O   UNL     1      32.806 -23.663 -16.189  0.00  0.00    -0.251 OA
ATOM      5  N   UNL     1      30.784 -22.656 -16.675  0.00  0.00    -0.288 N 
ATOM      6  N   UNL     1      32.555 -22.451 -18.170  0.00  0.00    -0.169 N 
ATOM      7  C   UNL     1      32.093 -22.989 -16.927  0.00  0.00    +0.319 C 
ATOM      8  H   UNL     1      30.299 -22.108 -17.333  0.00  0.00    +0.151 HD
ATOM      9  H   UNL     1      31.915 -21.919 -18.697  0.00  0.00    +0.178 HD
BRANCH   5  10
ATOM     10  C   UNL     1      30.087 -23.082 -15.467  0.00  0.00    +0.091 C 
BRANCH  10  11
ATOM     11  C   UNL     1      28.966 -24.058 -15.817  0.00  0.00    +0.021 C 
BRANCH  11  12
ATOM     12  C   UNL     1      27.995 -23.446 -16.827  0.00  0.00    +0.002 C 
ATOM     13  C   UNL     1      27.186 -22.317 -16.209  0.00  0.00    +0.000 C 
ENDBRANCH  11  12
ENDBRANCH  10  11
ENDBRANCH   5  10
ENDBRANCH   1   6
BRANCH   1  14
ATOM     14  C   UNL     1      34.279 -21.197 -19.800  0.00  0.00    +0.125 C 
ATOM     15  C   UNL     1      35.540 -20.763 -20.171  0.00  0.00    +0.021 C 
ATOM     16  C   UNL     1      33.137 -20.517 -20.183  0.00  0.00    +0.021 C 
ATOM     17  C   UNL     1      34.521 -18.912 -21.343  0.00  0.00    +0.042 C 
ATOM     18  C   UNL     1      35.663 -19.611 -20.947  0.00  0.00    +0.015 C 
ATOM     19  C   UNL     1      33.259 -19.365 -20.961  0.00  0.00    +0.015 C 
BRANCH  17  20
ATOM     20  N   UNL     1      34.645 -17.748 -22.131  0.00  0.00    -0.357 N 
ATOM     21  H   UNL     1      34.089 -17.638 -22.935  0.00  0.00    +0.142 HD
ATOM     22  H   UNL     1      35.287 -17.047 -21.875  0.00  0.00    +0.142 HD
ENDBRANCH  17  20
ENDBRANCH   1  14
TORSDOF 6
ENDMDL
MODEL 3
REMARK VINA RESULT:      -8.3      4.614      8.493
REMARK  Name = 9564
REMARK  6 active torsions:
REMARK  status: ('A' for Active; 'I' for Inactive)
REMARK    1  A    between atoms: S_1  and  N_6
REMARK    2  A    between atoms: S_1  and  C_14
REMARK    3  A    between atoms: N_5  and  C_10
REMARK    4  A    between atoms: C_10  and  C_11
REMARK    5  A    between atoms: C_11  and  C_12
REMARK    6  A    between atoms: C_17  and  N_20
REMARK                            x       y       z     vdW  Elec       q    Type
REMARK                         _______ _______ _______ _____ _____    ______ ____
ROOT
ATOM      1  S   UNL     1      35.396 -18.618 -22.275  0.00  0.00    +0.077 S 
ATOM      2  O   UNL     1      35.152 -19.104 -23.619  0.00  0.00    -0.150 OA
ATOM      3  O   UNL     1      36.749 -18.365 -21.819  0.00  0.00    -0.150 OA
ENDROOT
BRANCH   1   6
ATOM      4  O   UNL     1      35.366 -15.802 -23.586  0.00  0.00    -0.251 OA
ATOM      5  N   UNL     1      33.643 -15.059 -22.238  0.00  0.00    -0.288 N 
ATOM      6  N   UNL     1      34.437 -17.232 -21.990  0.00  0.00    -0.169 N 
ATOM      7  C   UNL     1      34.549 -15.989 -22.689  0.00  0.00    +0.319 C 
ATOM      8  H   UNL     1      33.029 -15.310 -21.511  0.00  0.00    +0.151 HD
ATOM      9  H   UNL     1      33.751 -17.294 -21.285  0.00  0.00    +0.178 HD
BRANCH   5  10
ATOM     10  C   UNL     1      33.557 -13.716 -22.798  0.00  0.00    +0.091 C 
BRANCH  10  11
ATOM     11  C   UNL     1      32.304 -13.007 -22.287  0.00  0.00    +0.021 C 
BRANCH  11  12
ATOM     12  C   UNL     1      32.216 -13.068 -20.762  0.00  0.00    +0.002 C 
ATOM     13  C   UNL     1      31.635 -11.787 -20.185  0.00  0.00    +0.000 C 
ENDBRANCH  11  12
ENDBRANCH  10  11
ENDBRANCH   5  10
ENDBRANCH   1   6
BRANCH   1  14
ATOM     14  C   UNL     1      34.680 -19.765 -21.136  0.00  0.00    +0.125 C 
ATOM     15  C   UNL     1      33.311 -19.749 -20.932  0.00  0.00    +0.021 C 
ATOM     16  C   UNL     1      35.501 -20.659 -20.471  0.00  0.00    +0.021 C 
ATOM     17  C   UNL     1      33.559 -21.562 -19.354  0.00  0.00    +0.042 C 
ATOM     18  C   UNL     1      32.746 -20.653 -20.034  0.00  0.00    +0.015 C 
ATOM     19  C   UNL     1      34.936 -21.564 -19.573  0.00  0.00    +0.015 C 
BRANCH  17  20
ATOM     20  N   UNL     1      32.987 -22.478 -18.446  0.00  0.00    -0.357 N 
ATOM     21  H   UNL     1      32.093 -22.306 -18.072  0.00  0.00    +0.142 HD
ATOM     22  H   UNL     1      33.482 -23.289 -18.188  0.00  0.00    +0.142 HD
ENDBRANCH  17  20
ENDBRANCH   1  14
TORSDOF 6
ENDMDL
MODEL 4
REMARK VINA RESULT:      -8.1      3.400      4.214
REMARK  Name = 9564
REMARK  6 active torsions:
REMARK  status: ('A' for Active; 'I' for Inactive)
REMARK    1  A    between atoms: S_1  and  N_6
REMARK    2  A    between atoms: S_1  and  C_14
REMARK    3  A    between atoms: N_5  and  C_10
REMARK    4  A    between atoms: C_10  and  C_11
REMARK    5  A    between atoms: C_11  and  C_12
REMARK    6  A    between atoms: C_17  and  N_20
REMARK                            x       y       z     vdW  Elec       q    Type
REMARK                         _______ _______ _______ _____ _____    ______ ____
ROOT
ATOM      1  S   UNL     1      33.818 -22.612 -18.743  0.00  0.00    +0.077 S 
ATOM      2  O   UNL     1      34.098 -23.794 -19.534  0.00  0.00    -0.150 OA
ATOM      3  O   UNL     1      32.520 -22.431 -18.124  0.00  0.00    -0.150 OA
ENDROOT
BRANCH   1   6
ATOM      4  O   UNL     1      34.527 -24.246 -16.199  0.00  0.00    -0.251 OA
ATOM      5  N   UNL     1      36.296 -22.862 -15.654  0.00  0.00    -0.288 N 
ATOM      6  N   UNL     1      35.038 -22.418 -17.561  0.00  0.00    -0.169 N 
ATOM      7  C   UNL     1      35.236 -23.269 -16.428  0.00  0.00    +0.319 C 
ATOM      8  H   UNL     1      36.801 -22.063 -15.926  0.00  0.00    +0.151 HD
ATOM      9  H   UNL     1      35.655 -21.658 -17.668  0.00  0.00    +0.178 HD
BRANCH   5  10
ATOM     10  C   UNL     1      36.700 -23.571 -14.446  0.00  0.00    +0.091 C 
BRANCH  10  11
ATOM     11  C   UNL     1      37.980 -24.366 -14.700  0.00  0.00    +0.021 C 
BRANCH  11  12
ATOM     12  C   UNL     1      37.831 -25.816 -14.241  0.00  0.00    +0.002 C 
ATOM     13  C   UNL     1      36.879 -26.591 -15.138  0.00  0.00    +0.000 C 
ENDBRANCH  11  12
ENDBRANCH  10  11
ENDBRANCH   5  10
ENDBRANCH   1   6
BRANCH   1  14
ATOM     14  C   UNL     1      34.103 -21.191 -19.757  0.00  0.00    +0.125 C 
ATOM     15  C   UNL     1      33.021 -20.447 -20.196  0.00  0.00    +0.021 C 
ATOM     16  C   UNL     1      35.401 -20.849 -20.092  0.00  0.00    +0.021 C 
ATOM     17  C   UNL     1      34.548 -18.967 -21.344  0.00  0.00    +0.042 C 
ATOM     18  C   UNL     1      33.245 -19.327 -20.995  0.00  0.00    +0.015 C 
ATOM     19  C   UNL     1      35.625 -19.728 -20.892  0.00  0.00    +0.015 C 
BRANCH  17  20
ATOM     20  N   UNL     1      34.775 -17.833 -22.152  0.00  0.00    -0.357 N 
ATOM     21  H   UNL     1      34.430 -16.954 -21.873  0.00  0.00    +0.142 HD
ATOM     22  H   UNL     1      35.276 -17.921 -22.994  0.00  0.00    +0.142 HD
ENDBRANCH  17  20
ENDBRANCH   1  14
TORSDOF 6
ENDMDL
MODEL 5
REMARK VINA RESULT:      -7.9      3.167      7.346
REMARK  Name = 9564
REMARK  6 active torsions:
REMARK  status: ('A' for Active; 'I' for Inactive)
REMARK    1  A    between atoms: S_1  and  N_6
REMARK    2  A    between atoms: S_1  and  C_14
REMARK    3  A    between atoms: N_5  and  C_10
REMARK    4  A    between atoms: C_10  and  C_11
REMARK    5  A    between atoms: C_11  and  C_12
REMARK    6  A    between atoms: C_17  and  N_20
REMARK                            x       y       z     vdW  Elec       q    Type
REMARK                         _______ _______ _______ _____ _____    ______ ____
ROOT
ATOM      1  S   UNL     1      33.706 -22.709 -18.568  0.00  0.00    +0.077 S 
ATOM      2  O   UNL     1      32.355 -22.333 -18.202  0.00  0.00    -0.150 OA
ATOM      3  O   UNL     1      33.950 -23.900 -19.358  0.00  0.00    -0.150 OA
ENDROOT
BRANCH   1   6
ATOM      4  O   UNL     1      32.762 -20.661 -20.703  0.00  0.00    -0.251 OA
ATOM      5  N   UNL     1      34.778 -19.533 -20.691  0.00  0.00    -0.288 N 
ATOM      6  N   UNL     1      34.488 -21.377 -19.301  0.00  0.00    -0.169 N 
ATOM      7  C   UNL     1      33.908 -20.517 -20.287  0.00  0.00    +0.319 C 
ATOM      8  H   UNL     1      35.678 -19.505 -20.293  0.00  0.00    +0.151 HD
ATOM      9  H   UNL     1      35.413 -21.186 -19.023  0.00  0.00    +0.178 HD
BRANCH   5  10
ATOM     10  C   UNL     1      34.418 -18.529 -21.685  0.00  0.00    +0.091 C 
BRANCH  10  11
ATOM     11  C   UNL     1      35.414 -18.548 -22.843  0.00  0.00    +0.021 C 
BRANCH  11  12
ATOM     12  C   UNL     1      34.710 -18.821 -24.173  0.00  0.00    +0.002 C 
ATOM     13  C   UNL     1      34.646 -17.570 -25.036  0.00  0.00    +0.000 C 
ENDBRANCH  11  12
ENDBRANCH  10  11
ENDBRANCH   5  10
ENDBRANCH   1   6
BRANCH   1  14
ATOM     14  C   UNL     1      34.651 -22.880 -17.083  0.00  0.00    +0.125 C 
ATOM     15  C   UNL     1      35.941 -22.379 -17.042  0.00  0.00    +0.021 C 
ATOM     16  C   UNL     1      34.083 -23.509 -15.990  0.00  0.00    +0.021 C 
ATOM     17  C   UNL     1      36.130 -23.146 -14.759  0.00  0.00    +0.042 C 
ATOM     18  C   UNL     1      36.687 -22.514 -15.872  0.00  0.00    +0.015 C 
ATOM     19  C   UNL     1      34.828 -23.644 -14.818  0.00  0.00    +0.015 C 
BRANCH  17  20
ATOM     20  N   UNL     1      36.883 -23.281 -13.573  0.00  0.00    -0.357 N 
ATOM     21  H   UNL     1      36.438 -23.215 -12.698  0.00  0.00    +0.142 HD
ATOM     22  H   UNL     1      37.853 -23.442 -13.623  0.00  0.00    +0.142 HD
ENDBRANCH  17  20
ENDBRANCH   1  14
TORSDOF 6
ENDMDL
MODEL 6
REMARK VINA RESULT:      -7.7      7.386     11.029
REMARK  Name = 9564
REMARK  6 active torsions:
REMARK  status: ('A' for Active; 'I' for Inactive)
REMARK    1  A    between atoms: S_1  and  N_6
REMARK    2  A    between atoms: S_1  and  C_14
REMARK    3  A    between atoms: N_5  and  C_10
REMARK    4  A    between atoms: C_10  and  C_11
REMARK    5  A    between atoms: C_11  and  C_12
REMARK    6  A    between atoms: C_17  and  N_20
REMARK                            x       y       z     vdW  Elec       q    Type
REMARK                         _______ _______ _______ _____ _____    ______ ____
ROOT
ATOM      1  S   UNL     1      34.017 -15.320 -21.428  0.00  0.00    +0.077 S 
ATOM      2  O   UNL     1      34.919 -15.380 -20.295  0.00  0.00    -0.150 OA
ATOM      3  O   UNL     1      32.583 -15.252 -21.224  0.00  0.00    -0.150 OA
ENDROOT
BRANCH   1   6
ATOM      4  O   UNL     1      32.397 -13.168 -22.974  0.00  0.00    -0.251 OA
ATOM      5  N   UNL     1      34.294 -12.225 -23.895  0.00  0.00    -0.288 N 
ATOM      6  N   UNL     1      34.499 -14.053 -22.470  0.00  0.00    -0.169 N 
ATOM      7  C   UNL     1      33.616 -13.132 -23.117  0.00  0.00    +0.319 C 
ATOM      8  H   UNL     1      35.275 -12.282 -23.942  0.00  0.00    +0.151 HD
ATOM      9  H   UNL     1      35.463 -13.949 -22.640  0.00  0.00    +0.178 HD
BRANCH   5  10
ATOM     10  C   UNL     1      33.614 -11.180 -24.651  0.00  0.00    +0.091 C 
BRANCH  10  11
ATOM     11  C   UNL     1      33.600  -9.874 -23.858  0.00  0.00    +0.021 C 
BRANCH  11  12
ATOM     12  C   UNL     1      34.834  -9.027 -24.167  0.00  0.00    +0.002 C 
ATOM     13  C   UNL     1      34.750  -7.658 -23.508  0.00  0.00    +0.000 C 
ENDBRANCH  11  12
ENDBRANCH  10  11
ENDBRANCH   5  10
ENDBRANCH   1   6
BRANCH   1  14
ATOM     14  C   UNL     1      34.321 -16.731 -22.449  0.00  0.00    +0.125 C 
ATOM     15  C   UNL     1      34.392 -17.984 -21.866  0.00  0.00    +0.021 C 
ATOM     16  C   UNL     1      34.482 -16.556 -23.813  0.00  0.00    +0.021 C 
ATOM     17  C   UNL     1      34.797 -18.940 -24.048  0.00  0.00    +0.042 C 
ATOM     18  C   UNL     1      34.633 -19.097 -22.671  0.00  0.00    +0.015 C 
ATOM     19  C   UNL     1      34.722 -17.670 -24.618  0.00  0.00    +0.015 C 
BRANCH  17  20
ATOM     20  N   UNL     1      35.039 -20.066 -24.863  0.00  0.00    -0.357 N 
ATOM     21  H   UNL     1      35.538 -20.835 -24.503  0.00  0.00    +0.142 HD
ATOM     22  H   UNL     1      34.709 -20.082 -25.790  0.00  0.00    +0.142 HD
ENDBRANCH  17  20
ENDBRANCH   1  14
TORSDOF 6
ENDMDL
MODEL 7
REMARK VINA RESULT:      -7.6      3.149      7.214
REMARK  Name = 9564
REMARK  6 active torsions:
REMARK  status: ('A' for Active; 'I' for Inactive)
REMARK    1  A    between atoms: S_1  and  N_6
REMARK    2  A    between atoms: S_1  and  C_14
REMARK    3  A    between atoms: N_5  and  C_10
REMARK    4  A    between atoms: C_10  and  C_11
REMARK    5  A    between atoms: C_11  and  C_12
REMARK    6  A    between atoms: C_17  and  N_20
REMARK                            x       y       z     vdW  Elec       q    Type
REMARK                         _______ _______ _______ _____ _____    ______ ____
ROOT
ATOM      1  S   UNL     1      33.910 -22.457 -18.964  0.00  0.00    +0.077 S 
ATOM      2  O   UNL     1      32.548 -22.014 -18.739  0.00  0.00    -0.150 OA
ATOM      3  O   UNL     1      34.177 -23.641 -19.757  0.00  0.00    -0.150 OA
ENDROOT
BRANCH   1   6
ATOM      4  O   UNL     1      33.236 -20.163 -20.945  0.00  0.00    -0.251 OA
ATOM      5  N   UNL     1      35.350 -19.243 -20.790  0.00  0.00    -0.288 N 
ATOM      6  N   UNL     1      34.839 -21.154 -19.565  0.00  0.00    -0.169 N 
ATOM      7  C   UNL     1      34.376 -20.165 -20.490  0.00  0.00    +0.319 C 
ATOM      8  H   UNL     1      36.234 -19.335 -20.370  0.00  0.00    +0.151 HD
ATOM      9  H   UNL     1      35.769 -21.077 -19.249  0.00  0.00    +0.178 HD
BRANCH   5  10
ATOM     10  C   UNL     1      35.119 -18.133 -21.707  0.00  0.00    +0.091 C 
BRANCH  10  11
ATOM     11  C   UNL     1      34.796 -16.859 -20.927  0.00  0.00    +0.021 C 
BRANCH  11  12
ATOM     12  C   UNL     1      33.760 -16.009 -21.663  0.00  0.00    +0.002 C 
ATOM     13  C   UNL     1      32.830 -15.299 -20.691  0.00  0.00    +0.000 C 
ENDBRANCH  11  12
ENDBRANCH  10  11
ENDBRANCH   5  10
ENDBRANCH   1   6
BRANCH   1  14
ATOM     14  C   UNL     1      34.672 -22.716 -17.389  0.00  0.00    +0.125 C 
ATOM     15  C   UNL     1      33.940 -23.308 -16.374  0.00  0.00    +0.021 C 
ATOM     16  C   UNL     1      35.985 -22.322 -17.201  0.00  0.00    +0.021 C 
ATOM     17  C   UNL     1      35.864 -23.121 -14.924  0.00  0.00    +0.042 C 
ATOM     18  C   UNL     1      34.540 -23.512 -15.132  0.00  0.00    +0.015 C 
ATOM     19  C   UNL     1      36.586 -22.526 -15.958  0.00  0.00    +0.015 C 
BRANCH  17  20
ATOM     20  N   UNL     1      36.472 -23.329 -13.668  0.00  0.00    -0.357 N 
ATOM     21  H   UNL     1      37.347 -23.777 -13.614  0.00  0.00    +0.142 HD
ATOM     22  H   UNL     1      36.021 -23.026 -12.847  0.00  0.00    +0.142 HD
ENDBRANCH  17  20
ENDBRANCH   1  14
TORSDOF 6
ENDMDL
MODEL 8
REMARK VINA RESULT:      -7.6      3.191      3.880
REMARK  Name = 9564
REMARK  6 active torsions:
REMARK  status: ('A' for Active; 'I' for Inactive)
REMARK    1  A    between atoms: S_1  and  N_6
REMARK    2  A    between atoms: S_1  and  C_14
REMARK    3  A    between atoms: N_5  and  C_10
REMARK    4  A    between atoms: C_10  and  C_11
REMARK    5  A    between atoms: C_11  and  C_12
REMARK    6  A    between atoms: C_17  and  N_20
REMARK                            x       y       z     vdW  Elec       q    Type
REMARK                         _______ _______ _______ _____ _____    ______ ____
ROOT
ATOM      1  S   UNL     1      33.513 -22.953 -18.314  0.00  0.00    +0.077 S 
ATOM      2  O   UNL     1      33.713 -24.231 -18.968  0.00  0.00    -0.150 OA
ATOM      3  O   UNL     1      32.178 -22.413 -18.144  0.00  0.00    -0.150 OA
ENDROOT
BRANCH   1   6
ATOM      4  O   UNL     1      32.649 -23.943 -15.500  0.00  0.00    -0.251 OA
ATOM      5  N   UNL     1      34.653 -23.323 -14.532  0.00  0.00    -0.288 N 
ATOM      6  N   UNL     1      34.317 -22.956 -16.805  0.00  0.00    -0.169 N 
ATOM      7  C   UNL     1      33.773 -23.455 -15.579  0.00  0.00    +0.319 C 
ATOM      8  H   UNL     1      35.533 -22.916 -14.701  0.00  0.00    +0.151 HD
ATOM      9  H   UNL     1      35.228 -22.583 -16.776  0.00  0.00    +0.178 HD
BRANCH   5  10
ATOM     10  C   UNL     1      34.332 -23.763 -13.180  0.00  0.00    +0.091 C 
BRANCH  10  11
ATOM     11  C   UNL     1      35.599 -24.201 -12.449  0.00  0.00    +0.021 C 
BRANCH  11  12
ATOM     12  C   UNL     1      36.825 -23.451 -12.969  0.00  0.00    +0.002 C 
ATOM     13  C   UNL     1      37.627 -22.836 -11.832  0.00  0.00    +0.000 C 
ENDBRANCH  11  12
ENDBRANCH  10  11
ENDBRANCH   5  10
ENDBRANCH   1   6
BRANCH   1  14
ATOM     14  C   UNL     1      34.448 -21.734 -19.191  0.00  0.00    +0.125 C 
ATOM     15  C   UNL     1      33.784 -20.813 -19.983  0.00  0.00    +0.021 C 
ATOM     16  C   UNL     1      35.827 -21.723 -19.068  0.00  0.00    +0.021 C 
ATOM     17  C   UNL     1      35.912 -19.827 -20.563  0.00  0.00    +0.042 C 
ATOM     18  C   UNL     1      34.520 -19.853 -20.674  0.00  0.00    +0.015 C 
ATOM     19  C   UNL     1      36.564 -20.762 -19.760  0.00  0.00    +0.015 C 
BRANCH  17  20
ATOM     20  N   UNL     1      36.657 -18.854 -21.261  0.00  0.00    -0.357 N 
ATOM     21  H   UNL     1      37.558 -18.609 -20.950  0.00  0.00    +0.142 HD
ATOM     22  H   UNL     1      36.276 -18.421 -22.059  0.00  0.00    +0.142 HD
ENDBRANCH  17  20
ENDBRANCH   1  14
TORSDOF 6
ENDMDL
MODEL 9
REMARK VINA RESULT:      -7.4      8.455     12.520
REMARK  Name = 9564
REMARK  6 active torsions:
REMARK  status: ('A' for Active; 'I' for Inactive)
REMARK    1  A    between atoms: S_1  and  N_6
REMARK    2  A    between atoms: S_1  and  C_14
REMARK    3  A    between atoms: N_5  and  C_10
REMARK    4  A    between atoms: C_10  and  C_11
REMARK    5  A    between atoms: C_11  and  C_12
REMARK    6  A    between atoms: C_17  and  N_20
REMARK                            x       y       z     vdW  Elec       q    Type
REMARK                         _______ _______ _______ _____ _____    ______ ____
ROOT
ATOM      1  S   UNL     1      33.259 -14.246 -24.296  0.00  0.00    +0.077 S 
ATOM      2  O   UNL     1      31.872 -14.110 -23.898  0.00  0.00    -0.150 OA
ATOM      3  O   UNL     1      33.601 -14.629 -25.652  0.00  0.00    -0.150 OA
ENDROOT
BRANCH   1   6
ATOM      4  O   UNL     1      33.501 -11.483 -25.692  0.00  0.00    -0.251 OA
ATOM      5  N   UNL     1      34.900 -10.642 -24.057  0.00  0.00    -0.288 N 
ATOM      6  N   UNL     1      34.112 -12.824 -23.880  0.00  0.00    -0.169 N 
ATOM      7  C   UNL     1      34.124 -11.613 -24.642  0.00  0.00    +0.319 C 
ATOM      8  H   UNL     1      35.359 -10.849 -23.211  0.00  0.00    +0.151 HD
ATOM      9  H   UNL     1      34.638 -12.839 -23.048  0.00  0.00    +0.178 HD
BRANCH   5  10
ATOM     10  C   UNL     1      35.067  -9.316 -24.641  0.00  0.00    +0.091 C 
BRANCH  10  11
ATOM     11  C   UNL     1      34.508  -8.248 -23.702  0.00  0.00    +0.021 C 
BRANCH  11  12
ATOM     12  C   UNL     1      34.468  -6.880 -24.382  0.00  0.00    +0.002 C 
ATOM     13  C   UNL     1      33.046  -6.356 -24.499  0.00  0.00    +0.000 C 
ENDBRANCH  11  12
ENDBRANCH  10  11
ENDBRANCH   5  10
ENDBRANCH   1   6
BRANCH   1  14
ATOM     14  C   UNL     1      34.026 -15.425 -23.224  0.00  0.00    +0.125 C 
ATOM     15  C   UNL     1      34.612 -16.554 -23.770  0.00  0.00    +0.021 C 
ATOM     16  C   UNL     1      34.025 -15.197 -21.859  0.00  0.00    +0.021 C 
ATOM     17  C   UNL     1      35.226 -17.270 -21.545  0.00  0.00    +0.042 C 
ATOM     18  C   UNL     1      35.216 -17.484 -22.925  0.00  0.00    +0.015 C 
ATOM     19  C   UNL     1      34.630 -16.127 -21.013  0.00  0.00    +0.015 C 
BRANCH  17  20
ATOM     20  N   UNL     1      35.838 -18.210 -20.690  0.00  0.00    -0.357 N 
ATOM     21  H   UNL     1      36.541 -17.920 -20.065  0.00  0.00    +0.142 HD
ATOM     22  H   UNL     1      35.563 -19.154 -20.719  0.00  0.00    +0.142 HD
ENDBRANCH  17  20
ENDBRANCH   1  14
TORSDOF 6
ENDMDL
