MODEL 1
REMARK VINA RESULT:      -9.3      0.000      0.000
REMARK  Name = 60143346
REMARK  3 active torsions:
REMARK  status: ('A' for Active; 'I' for Inactive)
REMARK    1  A    between atoms: C_3  and  C_17
REMARK    2  A    between atoms: C_4  and  C_22
REMARK    3  A    between atoms: C_25  and  C_30
REMARK                            x       y       z     vdW  Elec       q    Type
REMARK                         _______ _______ _______ _____ _____    ______ ____
ROOT
ATOM      1  N   UNL     1      32.320  -6.071 -21.890  0.00  0.00    -0.208 N 
ATOM      2  N   UNL     1      32.315  -6.838 -20.787  0.00  0.00    -0.176 NA
ATOM      3  C   UNL     1      33.061  -7.995 -22.609  0.00  0.00    +0.065 C 
ATOM      4  C   UNL     1      32.758  -6.717 -23.009  0.00  0.00    +0.090 C 
ATOM      5  C   UNL     1      32.769  -8.012 -21.232  0.00  0.00    +0.121 C 
ATOM      6  C   UNL     1      31.879  -4.697 -21.789  0.00  0.00    +0.140 C 
ENDROOT
BRANCH   3  17
ATOM      7  N   UNL     1      31.533 -10.725 -21.548  0.00  0.00    -0.295 N 
ATOM      8  N   UNL     1      34.020 -11.047 -24.262  0.00  0.00    -0.175 N 
ATOM      9  N   UNL     1      32.339 -12.529 -22.780  0.00  0.00    -0.210 NA
ATOM     10  N   UNL     1      34.522  -8.887 -24.346  0.00  0.00    -0.392 NA
ATOM     11  N   UNL     1      34.005 -12.373 -24.521  0.00  0.00    -0.153 NA
ATOM     12  C   UNL     1      30.378 -11.469 -21.147  0.00  0.00    +0.094 C 
ATOM     13  C   UNL     1      32.030 -10.642 -20.207  0.00  0.00    +0.094 C 
ATOM     14  C   UNL     1      30.600 -10.915 -19.739  0.00  0.00    +0.043 C 
ATOM     15  C   UNL     1      32.349 -11.243 -22.524  0.00  0.00    +0.137 C 
ATOM     16  C   UNL     1      33.246 -10.442 -23.313  0.00  0.00    +0.204 C 
ATOM     17  C   UNL     1      33.568  -9.109 -23.378  0.00  0.00    +0.140 C 
ATOM     18  C   UNL     1      34.771 -10.074 -24.859  0.00  0.00    +0.180 C 
ATOM     19  C   UNL     1      33.169 -13.034 -23.768  0.00  0.00    +0.218 C 
ATOM     20  C   UNL     1      35.730 -10.372 -25.942  0.00  0.00    +0.085 C 
ENDBRANCH   3  17
BRANCH   4  22
ATOM     21  N   UNL     1      31.707  -5.501 -24.731  0.00  0.00    -0.243 NA
ATOM     22  C   UNL     1      32.848  -6.090 -24.308  0.00  0.00    +0.096 C 
ATOM     23  C   UNL     1      34.028  -6.107 -25.035  0.00  0.00    +0.020 C 
ATOM     24  C   UNL     1      34.036  -5.480 -26.277  0.00  0.00    +0.007 C 
ATOM     25  C   UNL     1      32.880  -4.864 -26.746  0.00  0.00    +0.091 C 
ATOM     26  C   UNL     1      31.753  -4.903 -25.941  0.00  0.00    +0.103 C 
BRANCH  25  30
ATOM     27  F   UNL     1      31.834  -3.287 -28.185  0.00  0.00    -0.166 F 
ATOM     28  F   UNL     1      33.993  -3.482 -28.349  0.00  0.00    -0.166 F 
ATOM     29  F   UNL     1      32.705  -5.044 -29.124  0.00  0.00    -0.166 F 
ATOM     30  C   UNL     1      32.856  -4.187 -28.070  0.00  0.00    +0.420 C 
ENDBRANCH  25  30
ENDBRANCH   4  22
TORSDOF 3
ENDMDL
MODEL 2
REMARK VINA RESULT:      -9.2      2.714      4.530
REMARK  Name = 60143346
REMARK  3 active torsions:
REMARK  status: ('A' for Active; 'I' for Inactive)
REMARK    1  A    between atoms: C_3  and  C_17
REMARK    2  A    between atoms: C_4  and  C_22
REMARK    3  A    between atoms: C_25  and  C_30
REMARK                            x       y       z     vdW  Elec       q    Type
REMARK                         _______ _______ _______ _____ _____    ______ ____
ROOT
ATOM      1  N   UNL     1      31.885 -11.245 -20.923  0.00  0.00    -0.208 N 
ATOM      2  N   UNL     1      31.626 -12.480 -20.461  0.00  0.00    -0.176 NA
ATOM      3  C   UNL     1      32.391 -12.534 -22.612  0.00  0.00    +0.065 C 
ATOM      4  C   UNL     1      32.346 -11.223 -22.206  0.00  0.00    +0.090 C 
ATOM      5  C   UNL     1      31.937 -13.263 -21.496  0.00  0.00    +0.121 C 
ATOM      6  C   UNL     1      31.660 -10.111 -20.054  0.00  0.00    +0.140 C 
ENDROOT
BRANCH   3  17
ATOM      7  N   UNL     1      33.699 -15.507 -22.007  0.00  0.00    -0.295 N 
ATOM      8  N   UNL     1      33.564 -14.325 -25.506  0.00  0.00    -0.175 N 
ATOM      9  N   UNL     1      34.366 -16.428 -24.039  0.00  0.00    -0.210 NA
ATOM     10  N   UNL     1      32.608 -12.379 -25.035  0.00  0.00    -0.392 NA
ATOM     11  N   UNL     1      34.121 -15.352 -26.187  0.00  0.00    -0.153 NA
ATOM     12  C   UNL     1      33.715 -16.793 -21.379  0.00  0.00    +0.094 C 
ATOM     13  C   UNL     1      34.768 -15.018 -21.189  0.00  0.00    +0.094 C 
ATOM     14  C   UNL     1      34.413 -16.124 -20.194  0.00  0.00    +0.043 C 
ATOM     15  C   UNL     1      33.828 -15.436 -23.374  0.00  0.00    +0.137 C 
ATOM     16  C   UNL     1      33.395 -14.306 -24.151  0.00  0.00    +0.204 C 
ATOM     17  C   UNL     1      32.803 -13.097 -23.877  0.00  0.00    +0.140 C 
ATOM     18  C   UNL     1      33.076 -13.147 -25.997  0.00  0.00    +0.180 C 
ATOM     19  C   UNL     1      34.488 -16.340 -25.417  0.00  0.00    +0.218 C 
ATOM     20  C   UNL     1      33.097 -12.826 -27.438  0.00  0.00    +0.085 C 
ENDBRANCH   3  17
BRANCH   4  22
ATOM     21  N   UNL     1      31.655  -9.163 -23.116  0.00  0.00    -0.243 NA
ATOM     22  C   UNL     1      32.691 -10.008 -22.909  0.00  0.00    +0.096 C 
ATOM     23  C   UNL     1      33.990  -9.758 -23.322  0.00  0.00    +0.020 C 
ATOM     24  C   UNL     1      34.242  -8.565 -23.991  0.00  0.00    +0.007 C 
ATOM     25  C   UNL     1      33.202  -7.671 -24.223  0.00  0.00    +0.091 C 
ATOM     26  C   UNL     1      31.939  -8.015 -23.770  0.00  0.00    +0.103 C 
BRANCH  25  30
ATOM     27  F   UNL     1      33.009  -5.302 -24.229  0.00  0.00    -0.166 F 
ATOM     28  F   UNL     1      34.756  -6.144 -25.209  0.00  0.00    -0.166 F 
ATOM     29  F   UNL     1      32.808  -6.306 -26.147  0.00  0.00    -0.166 F 
ATOM     30  C   UNL     1      33.440  -6.388 -24.937  0.00  0.00    +0.420 C 
ENDBRANCH  25  30
ENDBRANCH   4  22
TORSDOF 3
ENDMDL
MODEL 3
REMARK VINA RESULT:      -9.0     15.164     17.791
REMARK  Name = 60143346
REMARK  3 active torsions:
REMARK  status: ('A' for Active; 'I' for Inactive)
REMARK    1  A    between atoms: C_3  and  C_17
REMARK    2  A    between atoms: C_4  and  C_22
REMARK    3  A    between atoms: C_25  and  C_30
REMARK                            x       y       z     vdW  Elec       q    Type
REMARK                         _______ _______ _______ _____ _____    ______ ____
ROOT
ATOM      1  N   UNL     1      31.562 -24.663 -13.712  0.00  0.00    -0.208 N 
ATOM      2  N   UNL     1      32.800 -24.994 -13.305  0.00  0.00    -0.176 NA
ATOM      3  C   UNL     1      32.846 -23.843 -15.277  0.00  0.00    +0.065 C 
ATOM      4  C   UNL     1      31.536 -23.973 -14.888  0.00  0.00    +0.090 C 
ATOM      5  C   UNL     1      33.579 -24.491 -14.265  0.00  0.00    +0.121 C 
ATOM      6  C   UNL     1      30.431 -25.053 -12.900  0.00  0.00    +0.140 C 
ENDROOT
BRANCH   3  17
ATOM      7  N   UNL     1      36.122 -23.697 -14.868  0.00  0.00    -0.295 N 
ATOM      8  N   UNL     1      34.674 -22.305 -17.971  0.00  0.00    -0.175 N 
ATOM      9  N   UNL     1      37.037 -22.665 -16.744  0.00  0.00    -0.210 NA
ATOM     10  N   UNL     1      32.570 -22.784 -17.455  0.00  0.00    -0.392 NA
ATOM     11  N   UNL     1      35.765 -21.858 -18.631  0.00  0.00    -0.153 NA
ATOM     12  C   UNL     1      37.391 -24.253 -14.511  0.00  0.00    +0.094 C 
ATOM     13  C   UNL     1      36.072 -22.879 -13.694  0.00  0.00    +0.094 C 
ATOM     14  C   UNL     1      37.084 -23.842 -13.071  0.00  0.00    +0.043 C 
ATOM     15  C   UNL     1      35.983 -23.099 -16.098  0.00  0.00    +0.137 C 
ATOM     16  C   UNL     1      34.713 -22.911 -16.747  0.00  0.00    +0.204 C 
ATOM     17  C   UNL     1      33.405 -23.200 -16.444  0.00  0.00    +0.140 C 
ATOM     18  C   UNL     1      33.365 -22.250 -18.358  0.00  0.00    +0.180 C 
ATOM     19  C   UNL     1      36.879 -22.064 -17.982  0.00  0.00    +0.218 C 
ATOM     20  C   UNL     1      32.950 -21.654 -19.644  0.00  0.00    +0.085 C 
ENDBRANCH   3  17
BRANCH   4  22
ATOM     21  N   UNL     1      29.830 -22.353 -15.018  0.00  0.00    -0.243 NA
ATOM     22  C   UNL     1      30.318 -23.513 -15.515  0.00  0.00    +0.096 C 
ATOM     23  C   UNL     1      29.723 -24.227 -16.543  0.00  0.00    +0.020 C 
ATOM     24  C   UNL     1      28.552 -23.717 -17.097  0.00  0.00    +0.007 C 
ATOM     25  C   UNL     1      28.021 -22.528 -16.611  0.00  0.00    +0.091 C 
ATOM     26  C   UNL     1      28.692 -21.891 -15.581  0.00  0.00    +0.103 C 
BRANCH  25  30
ATOM     27  F   UNL     1      26.396 -22.566 -18.347  0.00  0.00    -0.166 F 
ATOM     28  F   UNL     1      25.688 -22.067 -16.353  0.00  0.00    -0.166 F 
ATOM     29  F   UNL     1      26.856 -20.627 -17.477  0.00  0.00    -0.166 F 
ATOM     30  C   UNL     1      26.770 -21.959 -17.181  0.00  0.00    +0.420 C 
ENDBRANCH  25  30
ENDBRANCH   4  22
TORSDOF 3
ENDMDL
MODEL 4
REMARK VINA RESULT:      -8.9      3.209      5.543
REMARK  Name = 60143346
REMARK  3 active torsions:
REMARK  status: ('A' for Active; 'I' for Inactive)
REMARK    1  A    between atoms: C_3  and  C_17
REMARK    2  A    between atoms: C_4  and  C_22
REMARK    3  A    between atoms: C_25  and  C_30
REMARK                            x       y       z     vdW  Elec       q    Type
REMARK                         _______ _______ _______ _____ _____    ______ ____
ROOT
ATOM      1  N   UNL     1      32.006 -12.472 -20.417  0.00  0.00    -0.208 N 
ATOM      2  N   UNL     1      32.060 -13.765 -20.057  0.00  0.00    -0.176 NA
ATOM      3  C   UNL     1      32.544 -13.491 -22.272  0.00  0.00    +0.065 C 
ATOM      4  C   UNL     1      32.288 -12.254 -21.734  0.00  0.00    +0.090 C 
ATOM      5  C   UNL     1      32.390 -14.383 -21.194  0.00  0.00    +0.121 C 
ATOM      6  C   UNL     1      31.669 -11.481 -19.420  0.00  0.00    +0.140 C 
ENDROOT
BRANCH   3  17
ATOM      7  N   UNL     1      34.083 -16.413 -22.152  0.00  0.00    -0.295 N 
ATOM      8  N   UNL     1      33.616 -14.807 -25.448  0.00  0.00    -0.175 N 
ATOM      9  N   UNL     1      34.658 -17.015 -24.327  0.00  0.00    -0.210 NA
ATOM     10  N   UNL     1      32.572 -13.013 -24.662  0.00  0.00    -0.392 NA
ATOM     11  N   UNL     1      34.187 -15.694 -26.293  0.00  0.00    -0.153 NA
ATOM     12  C   UNL     1      34.228 -17.763 -21.702  0.00  0.00    +0.094 C 
ATOM     13  C   UNL     1      35.175 -15.954 -21.346  0.00  0.00    +0.094 C 
ATOM     14  C   UNL     1      34.966 -17.202 -20.487  0.00  0.00    +0.043 C 
ATOM     15  C   UNL     1      34.106 -16.158 -23.503  0.00  0.00    +0.137 C 
ATOM     16  C   UNL     1      33.546 -14.973 -24.093  0.00  0.00    +0.204 C 
ATOM     17  C   UNL     1      32.898 -13.856 -23.625  0.00  0.00    +0.140 C 
ATOM     18  C   UNL     1      33.018 -13.614 -25.745  0.00  0.00    +0.180 C 
ATOM     19  C   UNL     1      34.673 -16.742 -25.685  0.00  0.00    +0.218 C 
ATOM     20  C   UNL     1      32.913 -13.111 -27.129  0.00  0.00    +0.085 C 
ENDBRANCH   3  17
BRANCH   4  22
ATOM     21  N   UNL     1      33.441 -10.618 -22.975  0.00  0.00    -0.243 NA
ATOM     22  C   UNL     1      32.290 -10.944 -22.343  0.00  0.00    +0.096 C 
ATOM     23  C   UNL     1      31.184 -10.112 -22.268  0.00  0.00    +0.020 C 
ATOM     24  C   UNL     1      31.264  -8.866 -22.882  0.00  0.00    +0.007 C 
ATOM     25  C   UNL     1      32.431  -8.495 -23.541  0.00  0.00    +0.091 C 
ATOM     26  C   UNL     1      33.480  -9.400 -23.558  0.00  0.00    +0.103 C 
BRANCH  25  30
ATOM     27  F   UNL     1      31.475  -6.882 -25.002  0.00  0.00    -0.166 F 
ATOM     28  F   UNL     1      32.641  -6.122 -23.332  0.00  0.00    -0.166 F 
ATOM     29  F   UNL     1      33.643  -7.054 -25.014  0.00  0.00    -0.166 F 
ATOM     30  C   UNL     1      32.547  -7.169 -24.205  0.00  0.00    +0.420 C 
ENDBRANCH  25  30
ENDBRANCH   4  22
TORSDOF 3
ENDMDL
MODEL 5
REMARK VINA RESULT:      -8.8      5.690      8.916
REMARK  Name = 60143346
REMARK  3 active torsions:
REMARK  status: ('A' for Active; 'I' for Inactive)
REMARK    1  A    between atoms: C_3  and  C_17
REMARK    2  A    between atoms: C_4  and  C_22
REMARK    3  A    between atoms: C_25  and  C_30
REMARK                            x       y       z     vdW  Elec       q    Type
REMARK                         _______ _______ _______ _____ _____    ______ ____
ROOT
ATOM      1  N   UNL     1      33.809 -12.720 -26.118  0.00  0.00    -0.208 N 
ATOM      2  N   UNL     1      33.450 -11.425 -26.071  0.00  0.00    -0.176 NA
ATOM      3  C   UNL     1      33.103 -12.463 -24.067  0.00  0.00    +0.065 C 
ATOM      4  C   UNL     1      33.620 -13.386 -24.943  0.00  0.00    +0.090 C 
ATOM      5  C   UNL     1      33.020 -11.274 -24.816  0.00  0.00    +0.121 C 
ATOM      6  C   UNL     1      34.335 -13.256 -27.353  0.00  0.00    +0.140 C 
ENDROOT
BRANCH   3  17
ATOM      7  N   UNL     1      32.178  -9.495 -22.949  0.00  0.00    -0.295 N 
ATOM      8  N   UNL     1      32.043 -12.367 -20.627  0.00  0.00    -0.175 N 
ATOM      9  N   UNL     1      31.548  -9.728 -20.719  0.00  0.00    -0.210 NA
ATOM     10  N   UNL     1      32.784 -13.859 -22.093  0.00  0.00    -0.392 NA
ATOM     11  N   UNL     1      31.587 -11.804 -19.487  0.00  0.00    -0.153 NA
ATOM     12  C   UNL     1      31.477  -8.251 -23.054  0.00  0.00    +0.094 C 
ATOM     13  C   UNL     1      33.452  -8.873 -23.154  0.00  0.00    +0.094 C 
ATOM     14  C   UNL     1      32.697  -7.711 -23.800  0.00  0.00    +0.043 C 
ATOM     15  C   UNL     1      31.991 -10.268 -21.828  0.00  0.00    +0.137 C 
ATOM     16  C   UNL     1      32.259 -11.680 -21.789  0.00  0.00    +0.204 C 
ATOM     17  C   UNL     1      32.716 -12.617 -22.683  0.00  0.00    +0.140 C 
ATOM     18  C   UNL     1      32.372 -13.673 -20.857  0.00  0.00    +0.180 C 
ATOM     19  C   UNL     1      31.367 -10.522 -19.599  0.00  0.00    +0.218 C 
ATOM     20  C   UNL     1      32.260 -14.708 -19.810  0.00  0.00    +0.085 C 
ENDBRANCH   3  17
BRANCH   4  22
ATOM     21  N   UNL     1      34.757 -15.045 -23.717  0.00  0.00    -0.243 NA
ATOM     22  C   UNL     1      33.936 -14.784 -24.759  0.00  0.00    +0.096 C 
ATOM     23  C   UNL     1      33.420 -15.756 -25.602  0.00  0.00    +0.020 C 
ATOM     24  C   UNL     1      33.769 -17.080 -25.359  0.00  0.00    +0.007 C 
ATOM     25  C   UNL     1      34.611 -17.388 -24.296  0.00  0.00    +0.091 C 
ATOM     26  C   UNL     1      35.073 -16.343 -23.513  0.00  0.00    +0.103 C 
BRANCH  25  30
ATOM     27  F   UNL     1      36.320 -18.915 -23.665  0.00  0.00    -0.166 F 
ATOM     28  F   UNL     1      34.305 -19.364 -22.985  0.00  0.00    -0.166 F 
ATOM     29  F   UNL     1      34.829 -19.640 -25.071  0.00  0.00    -0.166 F 
ATOM     30  C   UNL     1      35.004 -18.794 -24.012  0.00  0.00    +0.420 C 
ENDBRANCH  25  30
ENDBRANCH   4  22
TORSDOF 3
ENDMDL
MODEL 6
REMARK VINA RESULT:      -8.7      5.275      8.638
REMARK  Name = 60143346
REMARK  3 active torsions:
REMARK  status: ('A' for Active; 'I' for Inactive)
REMARK    1  A    between atoms: C_3  and  C_17
REMARK    2  A    between atoms: C_4  and  C_22
REMARK    3  A    between atoms: C_25  and  C_30
REMARK                            x       y       z     vdW  Elec       q    Type
REMARK                         _______ _______ _______ _____ _____    ______ ____
ROOT
ATOM      1  N   UNL     1      33.467 -12.100 -25.270  0.00  0.00    -0.208 N 
ATOM      2  N   UNL     1      33.265 -10.863 -25.755  0.00  0.00    -0.176 NA
ATOM      3  C   UNL     1      32.852 -10.960 -23.511  0.00  0.00    +0.065 C 
ATOM      4  C   UNL     1      33.233 -12.211 -23.931  0.00  0.00    +0.090 C 
ATOM      5  C   UNL     1      32.889 -10.172 -24.677  0.00  0.00    +0.121 C 
ATOM      6  C   UNL     1      33.893 -13.145 -26.173  0.00  0.00    +0.140 C 
ENDROOT
BRANCH   3  17
ATOM      7  N   UNL     1      33.329  -7.692 -23.424  0.00  0.00    -0.295 N 
ATOM      8  N   UNL     1      32.061  -9.365 -20.382  0.00  0.00    -0.175 N 
ATOM      9  N   UNL     1      32.742  -6.934 -21.302  0.00  0.00    -0.210 NA
ATOM     10  N   UNL     1      32.038 -11.404 -21.257  0.00  0.00    -0.392 NA
ATOM     11  N   UNL     1      31.932  -8.338 -19.512  0.00  0.00    -0.153 NA
ATOM     12  C   UNL     1      33.225  -6.371 -23.964  0.00  0.00    +0.094 C 
ATOM     13  C   UNL     1      34.738  -7.757 -23.672  0.00  0.00    +0.094 C 
ATOM     14  C   UNL     1      34.531  -6.651 -24.707  0.00  0.00    +0.043 C 
ATOM     15  C   UNL     1      32.870  -7.925 -22.150  0.00  0.00    +0.137 C 
ATOM     16  C   UNL     1      32.508  -9.231 -21.666  0.00  0.00    +0.204 C 
ATOM     17  C   UNL     1      32.487 -10.499 -22.191  0.00  0.00    +0.140 C 
ATOM     18  C   UNL     1      31.790 -10.689 -20.179  0.00  0.00    +0.180 C 
ATOM     19  C   UNL     1      32.278  -7.187 -20.021  0.00  0.00    +0.218 C 
ATOM     20  C   UNL     1      31.283 -11.199 -18.890  0.00  0.00    +0.085 C 
ENDBRANCH   3  17
BRANCH   4  22
ATOM     21  N   UNL     1      34.572 -14.069 -23.381  0.00  0.00    -0.243 NA
ATOM     22  C   UNL     1      33.387 -13.445 -23.195  0.00  0.00    +0.096 C 
ATOM     23  C   UNL     1      32.381 -13.922 -22.370  0.00  0.00    +0.020 C 
ATOM     24  C   UNL     1      32.606 -15.116 -21.692  0.00  0.00    +0.007 C 
ATOM     25  C   UNL     1      33.812 -15.787 -21.860  0.00  0.00    +0.091 C 
ATOM     26  C   UNL     1      34.753 -15.226 -22.708  0.00  0.00    +0.103 C 
BRANCH  25  30
ATOM     27  F   UNL     1      35.022 -16.939 -20.168  0.00  0.00    -0.166 F 
ATOM     28  F   UNL     1      32.983 -17.599 -20.536  0.00  0.00    -0.166 F 
ATOM     29  F   UNL     1      34.545 -18.062 -21.968  0.00  0.00    -0.166 F 
ATOM     30  C   UNL     1      34.082 -17.068 -21.151  0.00  0.00    +0.420 C 
ENDBRANCH  25  30
ENDBRANCH   4  22
TORSDOF 3
ENDMDL
MODEL 7
REMARK VINA RESULT:      -8.7      3.322      6.456
REMARK  Name = 60143346
REMARK  3 active torsions:
REMARK  status: ('A' for Active; 'I' for Inactive)
REMARK    1  A    between atoms: C_3  and  C_17
REMARK    2  A    between atoms: C_4  and  C_22
REMARK    3  A    between atoms: C_25  and  C_30
REMARK                            x       y       z     vdW  Elec       q    Type
REMARK                         _______ _______ _______ _____ _____    ______ ____
ROOT
ATOM      1  N   UNL     1      33.724 -13.235 -26.621  0.00  0.00    -0.208 N 
ATOM      2  N   UNL     1      33.389 -14.533 -26.705  0.00  0.00    -0.176 NA
ATOM      3  C   UNL     1      33.181 -13.750 -24.570  0.00  0.00    +0.065 C 
ATOM      4  C   UNL     1      33.618 -12.718 -25.364  0.00  0.00    +0.090 C 
ATOM      5  C   UNL     1      33.058 -14.843 -25.449  0.00  0.00    +0.121 C 
ATOM      6  C   UNL     1      34.147 -12.543 -27.819  0.00  0.00    +0.140 C 
ENDROOT
BRANCH   3  17
ATOM      7  N   UNL     1      34.641 -16.425 -23.292  0.00  0.00    -0.295 N 
ATOM      8  N   UNL     1      32.736 -14.212 -21.027  0.00  0.00    -0.175 N 
ATOM      9  N   UNL     1      34.191 -16.470 -21.008  0.00  0.00    -0.210 NA
ATOM     10  N   UNL     1      32.132 -12.769 -22.601  0.00  0.00    -0.392 NA
ATOM     11  N   UNL     1      32.878 -14.821 -19.829  0.00  0.00    -0.153 NA
ATOM     12  C   UNL     1      35.741 -17.325 -23.129  0.00  0.00    +0.094 C 
ATOM     13  C   UNL     1      33.895 -17.367 -24.071  0.00  0.00    +0.094 C 
ATOM     14  C   UNL     1      35.225 -18.063 -24.365  0.00  0.00    +0.043 C 
ATOM     15  C   UNL     1      34.056 -15.884 -22.172  0.00  0.00    +0.137 C 
ATOM     16  C   UNL     1      33.279 -14.674 -22.192  0.00  0.00    +0.204 C 
ATOM     17  C   UNL     1      32.896 -13.771 -23.153  0.00  0.00    +0.140 C 
ATOM     18  C   UNL     1      32.055 -13.064 -21.320  0.00  0.00    +0.180 C 
ATOM     19  C   UNL     1      33.595 -15.911 -19.889  0.00  0.00    +0.218 C 
ATOM     20  C   UNL     1      31.338 -12.289 -20.287  0.00  0.00    +0.085 C 
ENDBRANCH   3  17
BRANCH   4  22
ATOM     21  N   UNL     1      32.960 -10.700 -24.343  0.00  0.00    -0.243 NA
ATOM     22  C   UNL     1      33.925 -11.344 -25.037  0.00  0.00    +0.096 C 
ATOM     23  C   UNL     1      35.124 -10.764 -25.419  0.00  0.00    +0.020 C 
ATOM     24  C   UNL     1      35.347  -9.437 -25.066  0.00  0.00    +0.007 C 
ATOM     25  C   UNL     1      34.377  -8.742 -24.352  0.00  0.00    +0.091 C 
ATOM     26  C   UNL     1      33.212  -9.413 -24.018  0.00  0.00    +0.103 C 
BRANCH  25  30
ATOM     27  F   UNL     1      35.661  -7.153 -23.137  0.00  0.00    -0.166 F 
ATOM     28  F   UNL     1      34.802  -6.485 -25.019  0.00  0.00    -0.166 F 
ATOM     29  F   UNL     1      33.525  -6.775 -23.291  0.00  0.00    -0.166 F 
ATOM     30  C   UNL     1      34.584  -7.321 -23.961  0.00  0.00    +0.420 C 
ENDBRANCH  25  30
ENDBRANCH   4  22
TORSDOF 3
ENDMDL
MODEL 8
REMARK VINA RESULT:      -8.4     15.273     18.507
REMARK  Name = 60143346
REMARK  3 active torsions:
REMARK  status: ('A' for Active; 'I' for Inactive)
REMARK    1  A    between atoms: C_3  and  C_17
REMARK    2  A    between atoms: C_4  and  C_22
REMARK    3  A    between atoms: C_25  and  C_30
REMARK                            x       y       z     vdW  Elec       q    Type
REMARK                         _______ _______ _______ _____ _____    ______ ____
ROOT
ATOM      1  N   UNL     1      32.847 -23.372 -14.415  0.00  0.00    -0.208 N 
ATOM      2  N   UNL     1      32.673 -24.099 -13.298  0.00  0.00    -0.176 NA
ATOM      3  C   UNL     1      34.475 -24.826 -14.498  0.00  0.00    +0.065 C 
ATOM      4  C   UNL     1      33.913 -23.768 -15.169  0.00  0.00    +0.090 C 
ATOM      5  C   UNL     1      33.670 -24.985 -13.354  0.00  0.00    +0.121 C 
ATOM      6  C   UNL     1      31.929 -22.292 -14.697  0.00  0.00    +0.140 C 
ENDROOT
BRANCH   3  17
ATOM      7  N   UNL     1      36.857 -24.133 -12.316  0.00  0.00    -0.295 N 
ATOM      8  N   UNL     1      37.565 -26.616 -14.960  0.00  0.00    -0.175 N 
ATOM      9  N   UNL     1      38.721 -25.422 -12.849  0.00  0.00    -0.210 NA
ATOM     10  N   UNL     1      35.567 -26.481 -15.917  0.00  0.00    -0.392 NA
ATOM     11  N   UNL     1      38.838 -26.979 -14.692  0.00  0.00    -0.153 NA
ATOM     12  C   UNL     1      37.350 -23.904 -10.992  0.00  0.00    +0.094 C 
ATOM     13  C   UNL     1      36.961 -22.749 -12.668  0.00  0.00    +0.094 C 
ATOM     14  C   UNL     1      36.938 -22.443 -11.170  0.00  0.00    +0.043 C 
ATOM     15  C   UNL     1      37.486 -25.066 -13.105  0.00  0.00    +0.137 C 
ATOM     16  C   UNL     1      36.859 -25.700 -14.233  0.00  0.00    +0.204 C 
ATOM     17  C   UNL     1      35.628 -25.629 -14.838  0.00  0.00    +0.140 C 
ATOM     18  C   UNL     1      36.749 -27.060 -15.962  0.00  0.00    +0.180 C 
ATOM     19  C   UNL     1      39.341 -26.364 -13.656  0.00  0.00    +0.218 C 
ATOM     20  C   UNL     1      37.189 -28.067 -16.948  0.00  0.00    +0.085 C 
ENDBRANCH   3  17
BRANCH   4  22
ATOM     21  N   UNL     1      35.548 -22.633 -16.428  0.00  0.00    -0.243 NA
ATOM     22  C   UNL     1      34.291 -23.132 -16.410  0.00  0.00    +0.096 C 
ATOM     23  C   UNL     1      33.412 -23.057 -17.479  0.00  0.00    +0.020 C 
ATOM     24  C   UNL     1      33.851 -22.431 -18.641  0.00  0.00    +0.007 C 
ATOM     25  C   UNL     1      35.137 -21.905 -18.697  0.00  0.00    +0.091 C 
ATOM     26  C   UNL     1      35.938 -22.032 -17.574  0.00  0.00    +0.103 C 
BRANCH  25  30
ATOM     27  F   UNL     1      36.139 -22.105 -20.844  0.00  0.00    -0.166 F 
ATOM     28  F   UNL     1      34.677 -20.516 -20.588  0.00  0.00    -0.166 F 
ATOM     29  F   UNL     1      36.641 -20.332 -19.688  0.00  0.00    -0.166 F 
ATOM     30  C   UNL     1      35.636 -21.228 -19.924  0.00  0.00    +0.420 C 
ENDBRANCH  25  30
ENDBRANCH   4  22
TORSDOF 3
ENDMDL
MODEL 9
REMARK VINA RESULT:      -8.1      6.084      9.037
REMARK  Name = 60143346
REMARK  3 active torsions:
REMARK  status: ('A' for Active; 'I' for Inactive)
REMARK    1  A    between atoms: C_3  and  C_17
REMARK    2  A    between atoms: C_4  and  C_22
REMARK    3  A    between atoms: C_25  and  C_30
REMARK                            x       y       z     vdW  Elec       q    Type
REMARK                         _______ _______ _______ _____ _____    ______ ____
ROOT
ATOM      1  N   UNL     1      32.119 -12.661 -20.761  0.00  0.00    -0.208 N 
ATOM      2  N   UNL     1      31.670 -11.464 -21.174  0.00  0.00    -0.176 NA
ATOM      3  C   UNL     1      32.492 -12.695 -22.913  0.00  0.00    +0.065 C 
ATOM      4  C   UNL     1      32.622 -13.437 -21.764  0.00  0.00    +0.090 C 
ATOM      5  C   UNL     1      31.900 -11.490 -22.488  0.00  0.00    +0.121 C 
ATOM      6  C   UNL     1      32.031 -12.996 -19.357  0.00  0.00    +0.140 C 
ENDROOT
BRANCH   3  17
ATOM      7  N   UNL     1      34.303 -10.197 -24.093  0.00  0.00    -0.295 N 
ATOM      8  N   UNL     1      33.639 -13.083 -26.303  0.00  0.00    -0.175 N 
ATOM      9  N   UNL     1      34.903 -10.712 -26.283  0.00  0.00    -0.210 NA
ATOM     10  N   UNL     1      32.437 -14.213 -24.819  0.00  0.00    -0.392 NA
ATOM     11  N   UNL     1      34.279 -12.737 -27.442  0.00  0.00    -0.153 NA
ATOM     12  C   UNL     1      35.342  -9.217 -24.001  0.00  0.00    +0.094 C 
ATOM     13  C   UNL     1      33.270  -9.213 -23.967  0.00  0.00    +0.094 C 
ATOM     14  C   UNL     1      34.319  -8.301 -23.330  0.00  0.00    +0.043 C 
ATOM     15  C   UNL     1      34.283 -11.042 -25.176  0.00  0.00    +0.137 C 
ATOM     16  C   UNL     1      33.603 -12.310 -25.178  0.00  0.00    +0.204 C 
ATOM     17  C   UNL     1      32.858 -13.023 -24.272  0.00  0.00    +0.140 C 
ATOM     18  C   UNL     1      32.925 -14.218 -26.042  0.00  0.00    +0.180 C 
ATOM     19  C   UNL     1      34.872 -11.576 -27.366  0.00  0.00    +0.218 C 
ATOM     20  C   UNL     1      32.753 -15.288 -27.046  0.00  0.00    +0.085 C 
ENDBRANCH   3  17
BRANCH   4  22
ATOM     21  N   UNL     1      34.435 -14.925 -21.972  0.00  0.00    -0.243 NA
ATOM     22  C   UNL     1      33.159 -14.762 -21.555  0.00  0.00    +0.096 C 
ATOM     23  C   UNL     1      32.401 -15.762 -20.968  0.00  0.00    +0.020 C 
ATOM     24  C   UNL     1      32.990 -17.011 -20.799  0.00  0.00    +0.007 C 
ATOM     25  C   UNL     1      34.300 -17.218 -21.217  0.00  0.00    +0.091 C 
ATOM     26  C   UNL     1      34.972 -16.152 -21.792  0.00  0.00    +0.103 C 
BRANCH  25  30
ATOM     27  F   UNL     1      35.138 -19.194 -22.239  0.00  0.00    -0.166 F 
ATOM     28  F   UNL     1      36.198 -18.474 -20.482  0.00  0.00    -0.166 F 
ATOM     29  F   UNL     1      34.254 -19.411 -20.264  0.00  0.00    -0.166 F 
ATOM     30  C   UNL     1      34.957 -18.542 -21.052  0.00  0.00    +0.420 C 
ENDBRANCH  25  30
ENDBRANCH   4  22
TORSDOF 3
ENDMDL
