MODEL 1
REMARK VINA RESULT:      -9.9      0.000      0.000
REMARK  Name = 25113616
REMARK  6 active torsions:
REMARK  status: ('A' for Active; 'I' for Inactive)
REMARK    1  A    between atoms: N_2  and  C_15
REMARK    2  A    between atoms: C_3  and  C_7
REMARK    3  A    between atoms: C_11  and  C_12
REMARK    4  A    between atoms: C_12  and  C_13
REMARK    5  A    between atoms: C_15  and  C_16
REMARK    6  A    between atoms: C_21  and  C_24
REMARK                            x       y       z     vdW  Elec       q    Type
REMARK                         _______ _______ _______ _____ _____    ______ ____
ROOT
ATOM      1  O   UNL     1      33.787 -24.337 -15.441  0.00  0.00    -0.273 OA
ATOM      2  N   UNL     1      32.839 -22.997 -17.092  0.00  0.00    -0.299 N 
ATOM      3  C   UNL     1      32.932 -23.542 -15.823  0.00  0.00    +0.241 C 
ATOM      4  H   UNL     1      32.106 -22.367 -17.279  0.00  0.00    +0.150 HD
ENDROOT
BRANCH   3   7
ATOM      5  O   UNL     1      30.299 -22.286 -17.200  0.00  0.00    -0.275 OA
ATOM      6  N   UNL     1      30.604 -23.630 -15.340  0.00  0.00    -0.273 N 
ATOM      7  C   UNL     1      31.860 -23.031 -14.906  0.00  0.00    +0.152 C 
ATOM      8  C   UNL     1      32.053 -23.527 -13.478  0.00  0.00    +0.031 C 
ATOM      9  C   UNL     1      31.341 -24.877 -13.471  0.00  0.00    +0.024 C 
ATOM     10  C   UNL     1      30.155 -24.651 -14.397  0.00  0.00    +0.094 C 
ATOM     11  C   UNL     1      29.886 -23.151 -16.424  0.00  0.00    +0.226 C 
BRANCH  11  12
ATOM     12  C   UNL     1      28.526 -23.769 -16.627  0.00  0.00    +0.085 C 
BRANCH  12  13
ATOM     13  C   UNL     1      27.507 -22.701 -16.984  0.00  0.00    +0.010 C 
ATOM     14  C   UNL     1      26.836 -22.092 -15.760  0.00  0.00    +0.001 C 
ENDBRANCH  12  13
ENDBRANCH  11  12
ENDBRANCH   3   7
BRANCH   2  15
ATOM     15  C   UNL     1      33.766 -23.308 -18.155  0.00  0.00    +0.116 C 
BRANCH  15  16
ATOM     16  C   UNL     1      34.054 -22.114 -19.018  0.00  0.00    -0.003 C 
ATOM     17  C   UNL     1      33.003 -21.349 -19.524  0.00  0.00    -0.003 C 
ATOM     18  C   UNL     1      35.373 -21.769 -19.314  0.00  0.00    -0.003 C 
ATOM     19  C   UNL     1      33.270 -20.240 -20.326  0.00  0.00    +0.002 C 
ATOM     20  C   UNL     1      35.640 -20.660 -20.117  0.00  0.00    +0.002 C 
ATOM     21  C   UNL     1      34.589 -19.895 -20.622  0.00  0.00    +0.031 C 
BRANCH  21  24
ATOM     22  N   UNL     1      34.711 -18.789 -22.842  0.00  0.00    -0.343 N 
ATOM     23  N   UNL     1      35.282 -17.611 -20.906  0.00  0.00    -0.285 NA
ATOM     24  C   UNL     1      34.867 -18.737 -21.458  0.00  0.00    +0.117 C 
ATOM     25  H   UNL     1      34.905 -17.994 -23.389  0.00  0.00    +0.144 HD
ATOM     26  H   UNL     1      34.407 -19.620 -23.273  0.00  0.00    +0.144 HD
ATOM     27  H   UNL     1      35.470 -16.827 -21.470  0.00  0.00    +0.188 HD
ENDBRANCH  21  24
ENDBRANCH  15  16
ENDBRANCH   2  15
TORSDOF 6
ENDMDL
MODEL 2
REMARK VINA RESULT:      -9.8      5.243      9.912
REMARK  Name = 25113616
REMARK  6 active torsions:
REMARK  status: ('A' for Active; 'I' for Inactive)
REMARK    1  A    between atoms: N_2  and  C_15
REMARK    2  A    between atoms: C_3  and  C_7
REMARK    3  A    between atoms: C_11  and  C_12
REMARK    4  A    between atoms: C_12  and  C_13
REMARK    5  A    between atoms: C_15  and  C_16
REMARK    6  A    between atoms: C_21  and  C_24
REMARK                            x       y       z     vdW  Elec       q    Type
REMARK                         _______ _______ _______ _____ _____    ______ ____
ROOT
ATOM      1  O   UNL     1      35.099 -14.681 -22.073  0.00  0.00    -0.273 OA
ATOM      2  N   UNL     1      34.512 -16.756 -22.949  0.00  0.00    -0.299 N 
ATOM      3  C   UNL     1      34.340 -15.403 -22.714  0.00  0.00    +0.241 C 
ATOM      4  H   UNL     1      33.832 -17.230 -23.480  0.00  0.00    +0.150 HD
ENDROOT
BRANCH   3   7
ATOM      5  O   UNL     1      32.059 -14.220 -20.762  0.00  0.00    -0.275 OA
ATOM      6  N   UNL     1      32.871 -13.535 -22.819  0.00  0.00    -0.273 N 
ATOM      7  C   UNL     1      33.097 -14.868 -23.361  0.00  0.00    +0.152 C 
ATOM      8  C   UNL     1      33.287 -14.651 -24.858  0.00  0.00    +0.031 C 
ATOM      9  C   UNL     1      33.872 -13.243 -24.941  0.00  0.00    +0.024 C 
ATOM     10  C   UNL     1      33.168 -12.506 -23.811  0.00  0.00    +0.094 C 
ATOM     11  C   UNL     1      32.296 -13.325 -21.576  0.00  0.00    +0.226 C 
BRANCH  11  12
ATOM     12  C   UNL     1      31.971 -11.890 -21.244  0.00  0.00    +0.085 C 
BRANCH  12  13
ATOM     13  C   UNL     1      31.635 -11.750 -19.770  0.00  0.00    +0.010 C 
ATOM     14  C   UNL     1      31.280 -10.321 -19.378  0.00  0.00    +0.001 C 
ENDBRANCH  12  13
ENDBRANCH  11  12
ENDBRANCH   3   7
BRANCH   2  15
ATOM     15  C   UNL     1      35.644 -17.506 -22.455  0.00  0.00    +0.116 C 
BRANCH  15  16
ATOM     16  C   UNL     1      35.221 -18.657 -21.589  0.00  0.00    -0.003 C 
ATOM     17  C   UNL     1      36.182 -19.430 -20.937  0.00  0.00    -0.003 C 
ATOM     18  C   UNL     1      33.867 -18.953 -21.434  0.00  0.00    -0.003 C 
ATOM     19  C   UNL     1      35.789 -20.500 -20.133  0.00  0.00    +0.002 C 
ATOM     20  C   UNL     1      33.474 -20.024 -20.630  0.00  0.00    +0.002 C 
ATOM     21  C   UNL     1      34.435 -20.796 -19.979  0.00  0.00    +0.031 C 
BRANCH  21  24
ATOM     22  N   UNL     1      32.683 -22.141 -18.843  0.00  0.00    -0.343 N 
ATOM     23  N   UNL     1      34.936 -22.728 -18.639  0.00  0.00    -0.285 NA
ATOM     24  C   UNL     1      34.026 -21.912 -19.140  0.00  0.00    +0.117 C 
ATOM     25  H   UNL     1      32.428 -22.901 -18.273  0.00  0.00    +0.144 HD
ATOM     26  H   UNL     1      31.990 -21.541 -19.203  0.00  0.00    +0.144 HD
ATOM     27  H   UNL     1      34.661 -23.483 -18.071  0.00  0.00    +0.188 HD
ENDBRANCH  21  24
ENDBRANCH  15  16
ENDBRANCH   2  15
TORSDOF 6
ENDMDL
MODEL 3
REMARK VINA RESULT:      -9.8      3.288      7.099
REMARK  Name = 25113616
REMARK  6 active torsions:
REMARK  status: ('A' for Active; 'I' for Inactive)
REMARK    1  A    between atoms: N_2  and  C_15
REMARK    2  A    between atoms: C_3  and  C_7
REMARK    3  A    between atoms: C_11  and  C_12
REMARK    4  A    between atoms: C_12  and  C_13
REMARK    5  A    between atoms: C_15  and  C_16
REMARK    6  A    between atoms: C_21  and  C_24
REMARK                            x       y       z     vdW  Elec       q    Type
REMARK                         _______ _______ _______ _____ _____    ______ ____
ROOT
ATOM      1  O   UNL     1      35.075 -23.861 -12.979  0.00  0.00    -0.273 OA
ATOM      2  N   UNL     1      33.479 -24.950 -14.276  0.00  0.00    -0.299 N 
ATOM      3  C   UNL     1      34.756 -24.511 -13.970  0.00  0.00    +0.241 C 
ATOM      4  H   UNL     1      33.346 -25.467 -15.103  0.00  0.00    +0.150 HD
ENDROOT
BRANCH   3   7
ATOM      5  O   UNL     1      34.365 -23.406 -16.976  0.00  0.00    -0.275 OA
ATOM      6  N   UNL     1      36.241 -23.739 -15.660  0.00  0.00    -0.273 N 
ATOM      7  C   UNL     1      35.764 -24.943 -14.993  0.00  0.00    +0.152 C 
ATOM      8  C   UNL     1      37.006 -25.544 -14.345  0.00  0.00    +0.031 C 
ATOM      9  C   UNL     1      37.886 -24.328 -14.068  0.00  0.00    +0.024 C 
ATOM     10  C   UNL     1      37.606 -23.418 -15.255  0.00  0.00    +0.094 C 
ATOM     11  C   UNL     1      35.518 -23.106 -16.660  0.00  0.00    +0.226 C 
BRANCH  11  12
ATOM     12  C   UNL     1      36.233 -21.982 -17.366  0.00  0.00    +0.085 C 
BRANCH  12  13
ATOM     13  C   UNL     1      35.641 -21.763 -18.748  0.00  0.00    +0.010 C 
ATOM     14  C   UNL     1      36.587 -21.022 -19.684  0.00  0.00    +0.001 C 
ENDBRANCH  12  13
ENDBRANCH  11  12
ENDBRANCH   3   7
BRANCH   2  15
ATOM     15  C   UNL     1      32.331 -24.687 -13.439  0.00  0.00    +0.116 C 
BRANCH  15  16
ATOM     16  C   UNL     1      31.144 -24.233 -14.237  0.00  0.00    -0.003 C 
ATOM     17  C   UNL     1      30.157 -25.149 -14.602  0.00  0.00    -0.003 C 
ATOM     18  C   UNL     1      31.027 -22.895 -14.615  0.00  0.00    -0.003 C 
ATOM     19  C   UNL     1      29.054 -24.728 -15.345  0.00  0.00    +0.002 C 
ATOM     20  C   UNL     1      29.924 -22.474 -15.359  0.00  0.00    +0.002 C 
ATOM     21  C   UNL     1      28.938 -23.390 -15.723  0.00  0.00    +0.031 C 
BRANCH  21  24
ATOM     22  N   UNL     1      26.789 -22.163 -15.928  0.00  0.00    -0.343 N 
ATOM     23  N   UNL     1      27.673 -23.305 -17.765  0.00  0.00    -0.285 NA
ATOM     24  C   UNL     1      27.787 -22.951 -16.497  0.00  0.00    +0.117 C 
ATOM     25  H   UNL     1      26.019 -21.876 -16.470  0.00  0.00    +0.144 HD
ATOM     26  H   UNL     1      26.854 -21.892 -14.983  0.00  0.00    +0.144 HD
ATOM     27  H   UNL     1      26.895 -23.008 -18.290  0.00  0.00    +0.188 HD
ENDBRANCH  21  24
ENDBRANCH  15  16
ENDBRANCH   2  15
TORSDOF 6
ENDMDL
MODEL 4
REMARK VINA RESULT:      -9.6      8.962     13.085
REMARK  Name = 25113616
REMARK  6 active torsions:
REMARK  status: ('A' for Active; 'I' for Inactive)
REMARK    1  A    between atoms: N_2  and  C_15
REMARK    2  A    between atoms: C_3  and  C_7
REMARK    3  A    between atoms: C_11  and  C_12
REMARK    4  A    between atoms: C_12  and  C_13
REMARK    5  A    between atoms: C_15  and  C_16
REMARK    6  A    between atoms: C_21  and  C_24
REMARK                            x       y       z     vdW  Elec       q    Type
REMARK                         _______ _______ _______ _____ _____    ______ ____
ROOT
ATOM      1  O   UNL     1      33.424 -12.961 -26.094  0.00  0.00    -0.273 OA
ATOM      2  N   UNL     1      34.016 -12.053 -24.034  0.00  0.00    -0.299 N 
ATOM      3  C   UNL     1      33.471 -13.014 -24.868  0.00  0.00    +0.241 C 
ATOM      4  H   UNL     1      33.996 -12.210 -23.062  0.00  0.00    +0.150 HD
ENDROOT
BRANCH   3   7
ATOM      5  O   UNL     1      33.411 -15.850 -26.404  0.00  0.00    -0.275 OA
ATOM      6  N   UNL     1      33.925 -15.259 -24.226  0.00  0.00    -0.273 N 
ATOM      7  C   UNL     1      32.940 -14.192 -24.106  0.00  0.00    +0.152 C 
ATOM      8  C   UNL     1      32.857 -13.908 -22.612  0.00  0.00    +0.031 C 
ATOM      9  C   UNL     1      34.249 -14.273 -22.102  0.00  0.00    +0.024 C 
ATOM     10  C   UNL     1      34.635 -15.464 -22.967  0.00  0.00    +0.094 C 
ATOM     11  C   UNL     1      34.028 -16.054 -25.357  0.00  0.00    +0.226 C 
BRANCH  11  12
ATOM     12  C   UNL     1      34.975 -17.222 -25.247  0.00  0.00    +0.085 C 
BRANCH  12  13
ATOM     13  C   UNL     1      34.214 -18.492 -24.908  0.00  0.00    +0.010 C 
ATOM     14  C   UNL     1      34.735 -19.174 -23.649  0.00  0.00    +0.001 C 
ENDBRANCH  12  13
ENDBRANCH  11  12
ENDBRANCH   3   7
BRANCH   2  15
ATOM     15  C   UNL     1      34.615 -10.832 -24.521  0.00  0.00    +0.116 C 
BRANCH  15  16
ATOM     16  C   UNL     1      33.972  -9.613 -23.927  0.00  0.00    -0.003 C 
ATOM     17  C   UNL     1      34.678  -8.412 -23.866  0.00  0.00    -0.003 C 
ATOM     18  C   UNL     1      32.669  -9.682 -23.435  0.00  0.00    -0.003 C 
ATOM     19  C   UNL     1      34.080  -7.279 -23.313  0.00  0.00    +0.002 C 
ATOM     20  C   UNL     1      32.072  -8.549 -22.881  0.00  0.00    +0.002 C 
ATOM     21  C   UNL     1      32.777  -7.348 -22.821  0.00  0.00    +0.031 C 
BRANCH  21  24
ATOM     22  N   UNL     1      32.015  -6.020 -20.866  0.00  0.00    -0.343 N 
ATOM     23  N   UNL     1      31.703  -5.208 -23.035  0.00  0.00    -0.285 NA
ATOM     24  C   UNL     1      32.154  -6.166 -22.244  0.00  0.00    +0.117 C 
ATOM     25  H   UNL     1      31.590  -5.212 -20.497  0.00  0.00    +0.144 HD
ATOM     26  H   UNL     1      32.341  -6.724 -20.261  0.00  0.00    +0.144 HD
ATOM     27  H   UNL     1      31.282  -4.408 -22.646  0.00  0.00    +0.188 HD
ENDBRANCH  21  24
ENDBRANCH  15  16
ENDBRANCH   2  15
TORSDOF 6
ENDMDL
MODEL 5
REMARK VINA RESULT:      -9.6      4.837      9.313
REMARK  Name = 25113616
REMARK  6 active torsions:
REMARK  status: ('A' for Active; 'I' for Inactive)
REMARK    1  A    between atoms: N_2  and  C_15
REMARK    2  A    between atoms: C_3  and  C_7
REMARK    3  A    between atoms: C_11  and  C_12
REMARK    4  A    between atoms: C_12  and  C_13
REMARK    5  A    between atoms: C_15  and  C_16
REMARK    6  A    between atoms: C_21  and  C_24
REMARK                            x       y       z     vdW  Elec       q    Type
REMARK                         _______ _______ _______ _____ _____    ______ ____
ROOT
ATOM      1  O   UNL     1      33.105 -17.428 -20.958  0.00  0.00    -0.273 OA
ATOM      2  N   UNL     1      34.810 -18.011 -22.432  0.00  0.00    -0.299 N 
ATOM      3  C   UNL     1      34.064 -17.132 -21.666  0.00  0.00    +0.241 C 
ATOM      4  H   UNL     1      35.560 -17.653 -22.960  0.00  0.00    +0.150 HD
ENDROOT
BRANCH   3   7
ATOM      5  O   UNL     1      34.579 -15.958 -24.626  0.00  0.00    -0.275 OA
ATOM      6  N   UNL     1      33.704 -15.020 -22.700  0.00  0.00    -0.273 N 
ATOM      7  C   UNL     1      34.570 -15.724 -21.763  0.00  0.00    +0.152 C 
ATOM      8  C   UNL     1      34.410 -14.972 -20.448  0.00  0.00    +0.031 C 
ATOM      9  C   UNL     1      32.993 -14.411 -20.529  0.00  0.00    +0.024 C 
ATOM     10  C   UNL     1      32.836 -14.074 -22.005  0.00  0.00    +0.094 C 
ATOM     11  C   UNL     1      33.834 -15.147 -24.074  0.00  0.00    +0.226 C 
BRANCH  11  12
ATOM     12  C   UNL     1      32.978 -14.217 -24.896  0.00  0.00    +0.085 C 
BRANCH  12  13
ATOM     13  C   UNL     1      33.041 -14.598 -26.365  0.00  0.00    +0.010 C 
ATOM     14  C   UNL     1      33.407 -13.424 -27.265  0.00  0.00    +0.001 C 
ENDBRANCH  12  13
ENDBRANCH  11  12
ENDBRANCH   3   7
BRANCH   2  15
ATOM     15  C   UNL     1      34.542 -19.429 -22.493  0.00  0.00    +0.116 C 
BRANCH  15  16
ATOM     16  C   UNL     1      34.916 -20.128 -21.218  0.00  0.00    -0.003 C 
ATOM     17  C   UNL     1      36.239 -20.110 -20.775  0.00  0.00    -0.003 C 
ATOM     18  C   UNL     1      33.942 -20.795 -20.476  0.00  0.00    -0.003 C 
ATOM     19  C   UNL     1      36.587 -20.760 -19.591  0.00  0.00    +0.002 C 
ATOM     20  C   UNL     1      34.290 -21.446 -19.292  0.00  0.00    +0.002 C 
ATOM     21  C   UNL     1      35.612 -21.427 -18.849  0.00  0.00    +0.031 C 
BRANCH  21  24
ATOM     22  N   UNL     1      37.173 -21.823 -16.958  0.00  0.00    -0.343 N 
ATOM     23  N   UNL     1      35.164 -23.009 -17.096  0.00  0.00    -0.285 NA
ATOM     24  C   UNL     1      35.976 -22.104 -17.614  0.00  0.00    +0.117 C 
ATOM     25  H   UNL     1      37.399 -22.293 -16.123  0.00  0.00    +0.144 HD
ATOM     26  H   UNL     1      37.793 -21.155 -17.331  0.00  0.00    +0.144 HD
ATOM     27  H   UNL     1      35.408 -23.468 -16.260  0.00  0.00    +0.188 HD
ENDBRANCH  21  24
ENDBRANCH  15  16
ENDBRANCH   2  15
TORSDOF 6
ENDMDL
MODEL 6
REMARK VINA RESULT:      -9.5      7.411     11.366
REMARK  Name = 25113616
REMARK  6 active torsions:
REMARK  status: ('A' for Active; 'I' for Inactive)
REMARK    1  A    between atoms: N_2  and  C_15
REMARK    2  A    between atoms: C_3  and  C_7
REMARK    3  A    between atoms: C_11  and  C_12
REMARK    4  A    between atoms: C_12  and  C_13
REMARK    5  A    between atoms: C_15  and  C_16
REMARK    6  A    between atoms: C_21  and  C_24
REMARK                            x       y       z     vdW  Elec       q    Type
REMARK                         _______ _______ _______ _____ _____    ______ ____
ROOT
ATOM      1  O   UNL     1      32.333 -15.412 -21.654  0.00  0.00    -0.273 OA
ATOM      2  N   UNL     1      32.798 -13.233 -22.329  0.00  0.00    -0.299 N 
ATOM      3  C   UNL     1      33.076 -14.579 -22.166  0.00  0.00    +0.241 C 
ATOM      4  H   UNL     1      33.477 -12.662 -22.756  0.00  0.00    +0.150 HD
ENDROOT
BRANCH   3   7
ATOM      5  O   UNL     1      35.036 -16.276 -20.246  0.00  0.00    -0.275 OA
ATOM      6  N   UNL     1      34.586 -16.385 -22.514  0.00  0.00    -0.273 N 
ATOM      7  C   UNL     1      34.420 -14.952 -22.720  0.00  0.00    +0.152 C 
ATOM      8  C   UNL     1      34.480 -14.768 -24.231  0.00  0.00    +0.031 C 
ATOM      9  C   UNL     1      33.949 -16.093 -24.772  0.00  0.00    +0.024 C 
ATOM     10  C   UNL     1      34.478 -17.114 -23.775  0.00  0.00    +0.094 C 
ATOM     11  C   UNL     1      34.955 -16.924 -21.292  0.00  0.00    +0.226 C 
BRANCH  11  12
ATOM     12  C   UNL     1      35.255 -18.401 -21.297  0.00  0.00    +0.085 C 
BRANCH  12  13
ATOM     13  C   UNL     1      34.004 -19.197 -20.969  0.00  0.00    +0.010 C 
ATOM     14  C   UNL     1      34.304 -20.485 -20.212  0.00  0.00    +0.001 C 
ENDBRANCH  12  13
ENDBRANCH  11  12
ENDBRANCH   3   7
BRANCH   2  15
ATOM     15  C   UNL     1      31.559 -12.625 -21.902  0.00  0.00    +0.116 C 
BRANCH  15  16
ATOM     16  C   UNL     1      31.743 -11.188 -21.510  0.00  0.00    -0.003 C 
ATOM     17  C   UNL     1      31.697 -10.820 -20.165  0.00  0.00    -0.003 C 
ATOM     18  C   UNL     1      31.961 -10.220 -22.490  0.00  0.00    -0.003 C 
ATOM     19  C   UNL     1      31.867  -9.484 -19.801  0.00  0.00    +0.002 C 
ATOM     20  C   UNL     1      32.130  -8.884 -22.126  0.00  0.00    +0.002 C 
ATOM     21  C   UNL     1      32.084  -8.516 -20.781  0.00  0.00    +0.031 C 
BRANCH  21  24
ATOM     22  N   UNL     1      31.583  -6.100 -21.059  0.00  0.00    -0.343 N 
ATOM     23  N   UNL     1      33.085  -6.810 -19.417  0.00  0.00    -0.285 NA
ATOM     24  C   UNL     1      32.262  -7.123 -20.401  0.00  0.00    +0.117 C 
ATOM     25  H   UNL     1      31.718  -5.164 -20.786  0.00  0.00    +0.144 HD
ATOM     26  H   UNL     1      30.968  -6.313 -21.798  0.00  0.00    +0.144 HD
ATOM     27  H   UNL     1      33.207  -5.868 -19.158  0.00  0.00    +0.188 HD
ENDBRANCH  21  24
ENDBRANCH  15  16
ENDBRANCH   2  15
TORSDOF 6
ENDMDL
MODEL 7
REMARK VINA RESULT:      -9.4      2.170      3.184
REMARK  Name = 25113616
REMARK  6 active torsions:
REMARK  status: ('A' for Active; 'I' for Inactive)
REMARK    1  A    between atoms: N_2  and  C_15
REMARK    2  A    between atoms: C_3  and  C_7
REMARK    3  A    between atoms: C_11  and  C_12
REMARK    4  A    between atoms: C_12  and  C_13
REMARK    5  A    between atoms: C_15  and  C_16
REMARK    6  A    between atoms: C_21  and  C_24
REMARK                            x       y       z     vdW  Elec       q    Type
REMARK                         _______ _______ _______ _____ _____    ______ ____
ROOT
ATOM      1  O   UNL     1      33.812 -24.073 -17.622  0.00  0.00    -0.273 OA
ATOM      2  N   UNL     1      35.056 -22.165 -18.101  0.00  0.00    -0.299 N 
ATOM      3  C   UNL     1      34.479 -23.106 -17.265  0.00  0.00    +0.241 C 
ATOM      4  H   UNL     1      35.572 -21.431 -17.695  0.00  0.00    +0.150 HD
ENDROOT
BRANCH   3   7
ATOM      5  O   UNL     1      31.958 -22.886 -15.265  0.00  0.00    -0.275 OA
ATOM      6  N   UNL     1      34.055 -23.838 -15.042  0.00  0.00    -0.273 N 
ATOM      7  C   UNL     1      34.776 -22.838 -15.820  0.00  0.00    +0.152 C 
ATOM      8  C   UNL     1      36.245 -23.075 -15.490  0.00  0.00    +0.031 C 
ATOM      9  C   UNL     1      36.301 -24.567 -15.170  0.00  0.00    +0.024 C 
ATOM     10  C   UNL     1      34.971 -24.825 -14.477  0.00  0.00    +0.094 C 
ATOM     11  C   UNL     1      32.701 -23.734 -14.769  0.00  0.00    +0.226 C 
BRANCH  11  12
ATOM     12  C   UNL     1      32.152 -24.757 -13.805  0.00  0.00    +0.085 C 
BRANCH  12  13
ATOM     13  C   UNL     1      30.645 -24.612 -13.680  0.00  0.00    +0.010 C 
ATOM     14  C   UNL     1      29.884 -25.464 -14.687  0.00  0.00    +0.001 C 
ENDBRANCH  12  13
ENDBRANCH  11  12
ENDBRANCH   3   7
BRANCH   2  15
ATOM     15  C   UNL     1      34.941 -22.210 -19.541  0.00  0.00    +0.116 C 
BRANCH  15  16
ATOM     16  C   UNL     1      34.989 -20.840 -20.152  0.00  0.00    -0.003 C 
ATOM     17  C   UNL     1      33.804 -20.177 -20.471  0.00  0.00    -0.003 C 
ATOM     18  C   UNL     1      36.218 -20.230 -20.402  0.00  0.00    -0.003 C 
ATOM     19  C   UNL     1      33.848 -18.904 -21.039  0.00  0.00    +0.002 C 
ATOM     20  C   UNL     1      36.262 -18.958 -20.972  0.00  0.00    +0.002 C 
ATOM     21  C   UNL     1      35.078 -18.294 -21.290  0.00  0.00    +0.031 C 
BRANCH  21  24
ATOM     22  N   UNL     1      35.534 -16.775 -23.201  0.00  0.00    -0.343 N 
ATOM     23  N   UNL     1      34.777 -15.913 -21.165  0.00  0.00    -0.285 NA
ATOM     24  C   UNL     1      35.124 -16.966 -21.883  0.00  0.00    +0.117 C 
ATOM     25  H   UNL     1      35.557 -15.868 -23.582  0.00  0.00    +0.144 HD
ATOM     26  H   UNL     1      35.800 -17.548 -23.750  0.00  0.00    +0.144 HD
ATOM     27  H   UNL     1      34.807 -15.014 -21.564  0.00  0.00    +0.188 HD
ENDBRANCH  21  24
ENDBRANCH  15  16
ENDBRANCH   2  15
TORSDOF 6
ENDMDL
MODEL 8
REMARK VINA RESULT:      -9.4      5.175      9.693
REMARK  Name = 25113616
REMARK  6 active torsions:
REMARK  status: ('A' for Active; 'I' for Inactive)
REMARK    1  A    between atoms: N_2  and  C_15
REMARK    2  A    between atoms: C_3  and  C_7
REMARK    3  A    between atoms: C_11  and  C_12
REMARK    4  A    between atoms: C_12  and  C_13
REMARK    5  A    between atoms: C_15  and  C_16
REMARK    6  A    between atoms: C_21  and  C_24
REMARK                            x       y       z     vdW  Elec       q    Type
REMARK                         _______ _______ _______ _____ _____    ______ ____
ROOT
ATOM      1  O   UNL     1      33.815 -16.033 -23.813  0.00  0.00    -0.273 OA
ATOM      2  N   UNL     1      34.910 -17.115 -22.068  0.00  0.00    -0.299 N 
ATOM      3  C   UNL     1      34.389 -16.016 -22.728  0.00  0.00    +0.241 C 
ATOM      4  H   UNL     1      35.350 -16.975 -21.198  0.00  0.00    +0.150 HD
ENDROOT
BRANCH   3   7
ATOM      5  O   UNL     1      34.242 -13.248 -24.379  0.00  0.00    -0.275 OA
ATOM      6  N   UNL     1      33.463 -13.869 -22.289  0.00  0.00    -0.273 N 
ATOM      7  C   UNL     1      34.576 -14.747 -21.951  0.00  0.00    +0.152 C 
ATOM      8  C   UNL     1      34.445 -14.977 -20.450  0.00  0.00    +0.031 C 
ATOM      9  C   UNL     1      32.944 -14.846 -20.200  0.00  0.00    +0.024 C 
ATOM     10  C   UNL     1      32.521 -13.761 -21.179  0.00  0.00    +0.094 C 
ATOM     11  C   UNL     1      33.428 -13.130 -23.461  0.00  0.00    +0.226 C 
BRANCH  11  12
ATOM     12  C   UNL     1      32.294 -12.141 -23.572  0.00  0.00    +0.085 C 
BRANCH  12  13
ATOM     13  C   UNL     1      32.777 -10.742 -23.232  0.00  0.00    +0.010 C 
ATOM     14  C   UNL     1      31.923 -10.065 -22.167  0.00  0.00    +0.001 C 
ENDBRANCH  12  13
ENDBRANCH  11  12
ENDBRANCH   3   7
BRANCH   2  15
ATOM     15  C   UNL     1      34.839 -18.459 -22.593  0.00  0.00    +0.116 C 
BRANCH  15  16
ATOM     16  C   UNL     1      34.587 -19.472 -21.515  0.00  0.00    -0.003 C 
ATOM     17  C   UNL     1      35.656 -20.163 -20.943  0.00  0.00    -0.003 C 
ATOM     18  C   UNL     1      33.284 -19.724 -21.084  0.00  0.00    -0.003 C 
ATOM     19  C   UNL     1      35.422 -21.105 -19.941  0.00  0.00    +0.002 C 
ATOM     20  C   UNL     1      33.051 -20.667 -20.083  0.00  0.00    +0.002 C 
ATOM     21  C   UNL     1      34.119 -21.356 -19.511  0.00  0.00    +0.031 C 
BRANCH  21  24
ATOM     22  N   UNL     1      32.586 -22.774 -18.167  0.00  0.00    -0.343 N 
ATOM     23  N   UNL     1      34.889 -22.831 -17.776  0.00  0.00    -0.285 NA
ATOM     24  C   UNL     1      33.876 -22.339 -18.465  0.00  0.00    +0.117 C 
ATOM     25  H   UNL     1      32.444 -23.439 -17.455  0.00  0.00    +0.144 HD
ATOM     26  H   UNL     1      31.817 -22.416 -18.667  0.00  0.00    +0.144 HD
ATOM     27  H   UNL     1      34.726 -23.496 -17.069  0.00  0.00    +0.188 HD
ENDBRANCH  21  24
ENDBRANCH  15  16
ENDBRANCH   2  15
TORSDOF 6
ENDMDL
MODEL 9
REMARK VINA RESULT:      -9.2      6.598     10.681
REMARK  Name = 25113616
REMARK  6 active torsions:
REMARK  status: ('A' for Active; 'I' for Inactive)
REMARK    1  A    between atoms: N_2  and  C_15
REMARK    2  A    between atoms: C_3  and  C_7
REMARK    3  A    between atoms: C_11  and  C_12
REMARK    4  A    between atoms: C_12  and  C_13
REMARK    5  A    between atoms: C_15  and  C_16
REMARK    6  A    between atoms: C_21  and  C_24
REMARK                            x       y       z     vdW  Elec       q    Type
REMARK                         _______ _______ _______ _____ _____    ______ ____
ROOT
ATOM      1  O   UNL     1      33.130 -16.264 -21.764  0.00  0.00    -0.273 OA
ATOM      2  N   UNL     1      33.583 -14.554 -23.277  0.00  0.00    -0.299 N 
ATOM      3  C   UNL     1      33.823 -15.763 -22.646  0.00  0.00    +0.241 C 
ATOM      4  H   UNL     1      34.213 -14.256 -23.973  0.00  0.00    +0.150 HD
ENDROOT
BRANCH   3   7
ATOM      5  O   UNL     1      35.511 -17.567 -20.572  0.00  0.00    -0.275 OA
ATOM      6  N   UNL     1      34.951 -17.851 -22.800  0.00  0.00    -0.273 N 
ATOM      7  C   UNL     1      35.047 -16.447 -23.176  0.00  0.00    +0.152 C 
ATOM      8  C   UNL     1      35.077 -16.455 -24.699  0.00  0.00    +0.031 C 
ATOM      9  C   UNL     1      34.284 -17.708 -25.063  0.00  0.00    +0.024 C 
ATOM     10  C   UNL     1      34.654 -18.688 -23.959  0.00  0.00    +0.094 C 
ATOM     11  C   UNL     1      35.265 -18.305 -21.528  0.00  0.00    +0.226 C 
BRANCH  11  12
ATOM     12  C   UNL     1      35.282 -19.803 -21.359  0.00  0.00    +0.085 C 
BRANCH  12  13
ATOM     13  C   UNL     1      34.254 -20.231 -20.326  0.00  0.00    +0.010 C 
ATOM     14  C   UNL     1      32.826 -19.902 -20.743  0.00  0.00    +0.001 C 
ENDBRANCH  12  13
ENDBRANCH  11  12
ENDBRANCH   3   7
BRANCH   2  15
ATOM     15  C   UNL     1      32.452 -13.711 -22.966  0.00  0.00    +0.116 C 
BRANCH  15  16
ATOM     16  C   UNL     1      32.778 -12.254 -23.119  0.00  0.00    -0.003 C 
ATOM     17  C   UNL     1      33.796 -11.854 -23.984  0.00  0.00    -0.003 C 
ATOM     18  C   UNL     1      32.062 -11.299 -22.396  0.00  0.00    -0.003 C 
ATOM     19  C   UNL     1      34.099 -10.499 -24.126  0.00  0.00    +0.002 C 
ATOM     20  C   UNL     1      32.366  -9.945 -22.538  0.00  0.00    +0.002 C 
ATOM     21  C   UNL     1      33.384  -9.545 -23.403  0.00  0.00    +0.031 C 
BRANCH  21  24
ATOM     22  N   UNL     1      32.731  -7.210 -23.942  0.00  0.00    -0.343 N 
ATOM     23  N   UNL     1      34.929  -7.706 -23.319  0.00  0.00    -0.285 NA
ATOM     24  C   UNL     1      33.701  -8.133 -23.551  0.00  0.00    +0.117 C 
ATOM     25  H   UNL     1      32.967  -6.259 -24.036  0.00  0.00    +0.144 HD
ATOM     26  H   UNL     1      31.812  -7.510 -24.123  0.00  0.00    +0.144 HD
ATOM     27  H   UNL     1      35.144  -6.750 -23.418  0.00  0.00    +0.188 HD
ENDBRANCH  21  24
ENDBRANCH  15  16
ENDBRANCH   2  15
TORSDOF 6
ENDMDL
