MODEL 1
REMARK VINA RESULT:      -8.2      0.000      0.000
REMARK  Name = 3295
REMARK  4 active torsions:
REMARK  status: ('A' for Active; 'I' for Inactive)
REMARK    1  A    between atoms: C_5  and  S_10
REMARK    2  A    between atoms: C_7  and  O_16
REMARK    3  A    between atoms: S_10  and  N_13
REMARK    4  A    between atoms: O_16  and  C_17
REMARK                            x       y       z     vdW  Elec       q    Type
REMARK                         _______ _______ _______ _____ _____    ______ ____
ROOT
ATOM      1  S   UNL     1      36.055 -23.792 -14.360  0.00  0.00    -0.051 S 
ATOM      2  N   UNL     1      33.932 -24.169 -12.944  0.00  0.00    -0.380 NA
ATOM      3  C   UNL     1      34.531 -23.569 -15.138  0.00  0.00    +0.133 C 
ATOM      4  C   UNL     1      33.508 -23.816 -14.218  0.00  0.00    +0.126 C 
ATOM      5  C   UNL     1      35.244 -24.187 -12.907  0.00  0.00    +0.278 C 
ATOM      6  C   UNL     1      34.262 -23.202 -16.466  0.00  0.00    +0.029 C 
ATOM      7  C   UNL     1      32.928 -23.086 -16.864  0.00  0.00    +0.136 C 
ATOM      8  C   UNL     1      32.169 -23.692 -14.645  0.00  0.00    +0.032 C 
ATOM      9  C   UNL     1      31.893 -23.327 -15.967  0.00  0.00    +0.039 C 
ENDROOT
BRANCH   5  10
ATOM     10  S   UNL     1      36.207 -24.577 -11.512  0.00  0.00    +0.091 S 
ATOM     11  O   UNL     1      35.270 -24.901 -10.435  0.00  0.00    -0.150 OA
ATOM     12  O   UNL     1      37.173 -25.578 -11.964  0.00  0.00    -0.150 OA
BRANCH  10  13
ATOM     13  N   UNL     1      37.086 -23.179 -11.021  0.00  0.00    -0.201 NA
ATOM     14  H   UNL     1      36.794 -22.906 -10.082  0.00  0.00    +0.144 HD
ATOM     15  H   UNL     1      36.899 -22.415 -11.670  0.00  0.00    +0.144 HD
ENDBRANCH  10  13
ENDBRANCH   5  10
BRANCH   7  16
ATOM     16  O   UNL     1      32.640 -22.732 -18.148  0.00  0.00    -0.476 OA
BRANCH  16  17
ATOM     17  C   UNL     1      33.736 -22.353 -18.977  0.00  0.00    +0.206 C 
ATOM     18  C   UNL     1      33.365 -21.101 -19.744  0.00  0.00    +0.051 C 
ENDBRANCH  16  17
ENDBRANCH   7  16
TORSDOF 4
ENDMDL
MODEL 2
REMARK VINA RESULT:      -7.9      1.978      2.808
REMARK  Name = 3295
REMARK  4 active torsions:
REMARK  status: ('A' for Active; 'I' for Inactive)
REMARK    1  A    between atoms: C_5  and  S_10
REMARK    2  A    between atoms: C_7  and  O_16
REMARK    3  A    between atoms: S_10  and  N_13
REMARK    4  A    between atoms: O_16  and  C_17
REMARK                            x       y       z     vdW  Elec       q    Type
REMARK                         _______ _______ _______ _____ _____    ______ ____
ROOT
ATOM      1  S   UNL     1      35.003 -24.042 -13.874  0.00  0.00    -0.051 S 
ATOM      2  N   UNL     1      37.372 -23.034 -14.040  0.00  0.00    -0.380 NA
ATOM      3  C   UNL     1      35.435 -23.267 -15.353  0.00  0.00    +0.133 C 
ATOM      4  C   UNL     1      36.745 -22.788 -15.253  0.00  0.00    +0.126 C 
ATOM      5  C   UNL     1      36.552 -23.683 -13.245  0.00  0.00    +0.278 C 
ATOM      6  C   UNL     1      34.669 -23.096 -16.518  0.00  0.00    +0.029 C 
ATOM      7  C   UNL     1      35.248 -22.425 -17.598  0.00  0.00    +0.136 C 
ATOM      8  C   UNL     1      37.305 -22.114 -16.359  0.00  0.00    +0.032 C 
ATOM      9  C   UNL     1      36.549 -21.939 -17.522  0.00  0.00    +0.039 C 
ENDROOT
BRANCH   5  10
ATOM     10  S   UNL     1      36.918 -24.198 -11.625  0.00  0.00    +0.091 S 
ATOM     11  O   UNL     1      37.839 -25.329 -11.744  0.00  0.00    -0.150 OA
ATOM     12  O   UNL     1      37.334 -22.992 -10.910  0.00  0.00    -0.150 OA
BRANCH  10  13
ATOM     13  N   UNL     1      35.481 -24.786 -10.878  0.00  0.00    -0.201 NA
ATOM     14  H   UNL     1      35.470 -24.507  -9.897  0.00  0.00    +0.144 HD
ATOM     15  H   UNL     1      35.457 -25.804 -10.942  0.00  0.00    +0.144 HD
ENDBRANCH  10  13
ENDBRANCH   5  10
BRANCH   7  16
ATOM     16  O   UNL     1      34.526 -22.244 -18.740  0.00  0.00    -0.476 OA
BRANCH  16  17
ATOM     17  C   UNL     1      35.023 -21.292 -19.677  0.00  0.00    +0.206 C 
ATOM     18  C   UNL     1      33.862 -20.489 -20.227  0.00  0.00    +0.051 C 
ENDBRANCH  16  17
ENDBRANCH   7  16
TORSDOF 4
ENDMDL
MODEL 3
REMARK VINA RESULT:      -7.7      5.480      7.776
REMARK  Name = 3295
REMARK  4 active torsions:
REMARK  status: ('A' for Active; 'I' for Inactive)
REMARK    1  A    between atoms: C_5  and  S_10
REMARK    2  A    between atoms: C_7  and  O_16
REMARK    3  A    between atoms: S_10  and  N_13
REMARK    4  A    between atoms: O_16  and  C_17
REMARK                            x       y       z     vdW  Elec       q    Type
REMARK                         _______ _______ _______ _____ _____    ______ ____
ROOT
ATOM      1  S   UNL     1      33.114 -20.462 -20.255  0.00  0.00    -0.051 S 
ATOM      2  N   UNL     1      35.533 -21.204 -19.754  0.00  0.00    -0.380 NA
ATOM      3  C   UNL     1      34.390 -19.522 -20.935  0.00  0.00    +0.133 C 
ATOM      4  C   UNL     1      35.617 -20.075 -20.556  0.00  0.00    +0.126 C 
ATOM      5  C   UNL     1      34.272 -21.494 -19.534  0.00  0.00    +0.278 C 
ATOM      6  C   UNL     1      34.310 -18.378 -21.746  0.00  0.00    +0.029 C 
ATOM      7  C   UNL     1      35.500 -17.788 -22.176  0.00  0.00    +0.136 C 
ATOM      8  C   UNL     1      36.804 -19.458 -21.005  0.00  0.00    +0.032 C 
ATOM      9  C   UNL     1      36.733 -18.318 -21.812  0.00  0.00    +0.039 C 
ENDROOT
BRANCH   5  10
ATOM     10  S   UNL     1      33.697 -22.830 -18.580  0.00  0.00    +0.091 S 
ATOM     11  O   UNL     1      32.353 -22.472 -18.125  0.00  0.00    -0.150 OA
ATOM     12  O   UNL     1      33.893 -24.021 -19.407  0.00  0.00    -0.150 OA
BRANCH  10  13
ATOM     13  N   UNL     1      34.685 -22.993 -17.178  0.00  0.00    -0.201 NA
ATOM     14  H   UNL     1      34.430 -23.846 -16.680  0.00  0.00    +0.144 HD
ATOM     15  H   UNL     1      34.543 -22.188 -16.567  0.00  0.00    +0.144 HD
ENDBRANCH  10  13
ENDBRANCH   5  10
BRANCH   7  16
ATOM     16  O   UNL     1      35.450 -16.676 -22.963  0.00  0.00    -0.476 OA
BRANCH  16  17
ATOM     17  C   UNL     1      34.339 -16.557 -23.847  0.00  0.00    +0.206 C 
ATOM     18  C   UNL     1      34.717 -17.135 -25.195  0.00  0.00    +0.051 C 
ENDBRANCH  16  17
ENDBRANCH   7  16
TORSDOF 4
ENDMDL
MODEL 4
REMARK VINA RESULT:      -7.4      2.606      3.659
REMARK  Name = 3295
REMARK  4 active torsions:
REMARK  status: ('A' for Active; 'I' for Inactive)
REMARK    1  A    between atoms: C_5  and  S_10
REMARK    2  A    between atoms: C_7  and  O_16
REMARK    3  A    between atoms: S_10  and  N_13
REMARK    4  A    between atoms: O_16  and  C_17
REMARK                            x       y       z     vdW  Elec       q    Type
REMARK                         _______ _______ _______ _____ _____    ______ ____
ROOT
ATOM      1  S   UNL     1      34.936 -24.143 -13.653  0.00  0.00    -0.051 S 
ATOM      2  N   UNL     1      35.501 -23.911 -16.160  0.00  0.00    -0.380 NA
ATOM      3  C   UNL     1      33.654 -23.702 -14.719  0.00  0.00    +0.133 C 
ATOM      4  C   UNL     1      34.150 -23.626 -16.025  0.00  0.00    +0.126 C 
ATOM      5  C   UNL     1      36.011 -24.194 -14.983  0.00  0.00    +0.278 C 
ATOM      6  C   UNL     1      32.306 -23.441 -14.422  0.00  0.00    +0.029 C 
ATOM      7  C   UNL     1      31.451 -23.097 -15.471  0.00  0.00    +0.136 C 
ATOM      8  C   UNL     1      33.264 -23.277 -17.066  0.00  0.00    +0.032 C 
ATOM      9  C   UNL     1      31.921 -23.015 -16.777  0.00  0.00    +0.039 C 
ENDROOT
BRANCH   5  10
ATOM     10  S   UNL     1      37.671 -24.611 -14.678  0.00  0.00    +0.091 S 
ATOM     11  O   UNL     1      38.487 -23.621 -15.382  0.00  0.00    -0.150 OA
ATOM     12  O   UNL     1      37.785 -24.750 -13.227  0.00  0.00    -0.150 OA
BRANCH  10  13
ATOM     13  N   UNL     1      38.010 -26.146 -15.383  0.00  0.00    -0.201 NA
ATOM     14  H   UNL     1      37.497 -26.238 -16.260  0.00  0.00    +0.144 HD
ATOM     15  H   UNL     1      37.722 -26.885 -14.742  0.00  0.00    +0.144 HD
ENDBRANCH  10  13
ENDBRANCH   5  10
BRANCH   7  16
ATOM     16  O   UNL     1      30.139 -22.838 -15.208  0.00  0.00    -0.476 OA
BRANCH  16  17
ATOM     17  C   UNL     1      29.242 -22.849 -16.317  0.00  0.00    +0.206 C 
ATOM     18  C   UNL     1      27.861 -22.454 -15.838  0.00  0.00    +0.051 C 
ENDBRANCH  16  17
ENDBRANCH   7  16
TORSDOF 4
ENDMDL
MODEL 5
REMARK VINA RESULT:      -7.4      2.207      3.007
REMARK  Name = 3295
REMARK  4 active torsions:
REMARK  status: ('A' for Active; 'I' for Inactive)
REMARK    1  A    between atoms: C_5  and  S_10
REMARK    2  A    between atoms: C_7  and  O_16
REMARK    3  A    between atoms: S_10  and  N_13
REMARK    4  A    between atoms: O_16  and  C_17
REMARK                            x       y       z     vdW  Elec       q    Type
REMARK                         _______ _______ _______ _____ _____    ______ ____
ROOT
ATOM      1  S   UNL     1      34.581 -23.830 -15.416  0.00  0.00    -0.051 S 
ATOM      2  N   UNL     1      33.478 -24.041 -13.094  0.00  0.00    -0.380 NA
ATOM      3  C   UNL     1      32.881 -23.553 -15.316  0.00  0.00    +0.133 C 
ATOM      4  C   UNL     1      32.470 -23.712 -13.989  0.00  0.00    +0.126 C 
ATOM      5  C   UNL     1      34.621 -24.129 -13.733  0.00  0.00    +0.278 C 
ATOM      6  C   UNL     1      31.977 -23.220 -16.338  0.00  0.00    +0.029 C 
ATOM      7  C   UNL     1      30.633 -23.046 -16.002  0.00  0.00    +0.136 C 
ATOM      8  C   UNL     1      31.105 -23.530 -13.677  0.00  0.00    +0.032 C 
ATOM      9  C   UNL     1      30.200 -23.198 -14.690  0.00  0.00    +0.039 C 
ENDROOT
BRANCH   5  10
ATOM     10  S   UNL     1      36.153 -24.521 -13.007  0.00  0.00    +0.091 S 
ATOM     11  O   UNL     1      36.836 -25.423 -13.934  0.00  0.00    -0.150 OA
ATOM     12  O   UNL     1      36.763 -23.239 -12.654  0.00  0.00    -0.150 OA
BRANCH  10  13
ATOM     13  N   UNL     1      35.882 -25.396 -11.548  0.00  0.00    -0.201 NA
ATOM     14  H   UNL     1      36.734 -25.390 -10.985  0.00  0.00    +0.144 HD
ATOM     15  H   UNL     1      35.629 -26.358 -11.771  0.00  0.00    +0.144 HD
ENDBRANCH  10  13
ENDBRANCH   5  10
BRANCH   7  16
ATOM     16  O   UNL     1      29.735 -22.723 -16.976  0.00  0.00    -0.476 OA
BRANCH  16  17
ATOM     17  C   UNL     1      28.449 -23.332 -16.899  0.00  0.00    +0.206 C 
ATOM     18  C   UNL     1      27.392 -22.249 -16.854  0.00  0.00    +0.051 C 
ENDBRANCH  16  17
ENDBRANCH   7  16
TORSDOF 4
ENDMDL
MODEL 6
REMARK VINA RESULT:      -7.4     10.152     13.492
REMARK  Name = 3295
REMARK  4 active torsions:
REMARK  status: ('A' for Active; 'I' for Inactive)
REMARK    1  A    between atoms: C_5  and  S_10
REMARK    2  A    between atoms: C_7  and  O_16
REMARK    3  A    between atoms: S_10  and  N_13
REMARK    4  A    between atoms: O_16  and  C_17
REMARK                            x       y       z     vdW  Elec       q    Type
REMARK                         _______ _______ _______ _____ _____    ______ ____
ROOT
ATOM      1  S   UNL     1      33.871 -14.486 -23.963  0.00  0.00    -0.051 S 
ATOM      2  N   UNL     1      33.961 -16.099 -25.975  0.00  0.00    -0.380 NA
ATOM      3  C   UNL     1      34.266 -16.135 -23.643  0.00  0.00    +0.133 C 
ATOM      4  C   UNL     1      34.265 -16.847 -24.846  0.00  0.00    +0.126 C 
ATOM      5  C   UNL     1      33.737 -14.853 -25.629  0.00  0.00    +0.278 C 
ATOM      6  C   UNL     1      34.555 -16.752 -22.415  0.00  0.00    +0.029 C 
ATOM      7  C   UNL     1      34.847 -18.118 -22.414  0.00  0.00    +0.136 C 
ATOM      8  C   UNL     1      34.564 -18.226 -24.817  0.00  0.00    +0.032 C 
ATOM      9  C   UNL     1      34.852 -18.848 -23.598  0.00  0.00    +0.039 C 
ENDROOT
BRANCH   5  10
ATOM     10  S   UNL     1      33.321 -13.564 -26.720  0.00  0.00    +0.091 S 
ATOM     11  O   UNL     1      33.492 -12.315 -25.977  0.00  0.00    -0.150 OA
ATOM     12  O   UNL     1      34.102 -13.803 -27.933  0.00  0.00    -0.150 OA
BRANCH  10  13
ATOM     13  N   UNL     1      31.653 -13.686 -27.134  0.00  0.00    -0.201 NA
ATOM     14  H   UNL     1      31.426 -12.989 -27.843  0.00  0.00    +0.144 HD
ATOM     15  H   UNL     1      31.084 -13.523 -26.303  0.00  0.00    +0.144 HD
ENDBRANCH  10  13
ENDBRANCH   5  10
BRANCH   7  16
ATOM     16  O   UNL     1      35.130 -18.742 -21.235  0.00  0.00    -0.476 OA
BRANCH  16  17
ATOM     17  C   UNL     1      34.537 -20.020 -21.021  0.00  0.00    +0.206 C 
ATOM     18  C   UNL     1      33.086 -19.832 -20.628  0.00  0.00    +0.051 C 
ENDBRANCH  16  17
ENDBRANCH   7  16
TORSDOF 4
ENDMDL
MODEL 7
REMARK VINA RESULT:      -7.4      2.749      3.766
REMARK  Name = 3295
REMARK  4 active torsions:
REMARK  status: ('A' for Active; 'I' for Inactive)
REMARK    1  A    between atoms: C_5  and  S_10
REMARK    2  A    between atoms: C_7  and  O_16
REMARK    3  A    between atoms: S_10  and  N_13
REMARK    4  A    between atoms: O_16  and  C_17
REMARK                            x       y       z     vdW  Elec       q    Type
REMARK                         _______ _______ _______ _____ _____    ______ ____
ROOT
ATOM      1  S   UNL     1      37.275 -22.213 -16.477  0.00  0.00    -0.051 S 
ATOM      2  N   UNL     1      34.932 -23.285 -16.357  0.00  0.00    -0.380 NA
ATOM      3  C   UNL     1      36.194 -21.908 -17.786  0.00  0.00    +0.133 C 
ATOM      4  C   UNL     1      34.985 -22.568 -17.544  0.00  0.00    +0.126 C 
ATOM      5  C   UNL     1      36.075 -23.170 -15.722  0.00  0.00    +0.278 C 
ATOM      6  C   UNL     1      36.401 -21.141 -18.944  0.00  0.00    +0.029 C 
ATOM      7  C   UNL     1      35.360 -21.045 -19.870  0.00  0.00    +0.136 C 
ATOM      8  C   UNL     1      33.949 -22.454 -18.495  0.00  0.00    +0.032 C 
ATOM      9  C   UNL     1      34.149 -21.692 -19.651  0.00  0.00    +0.039 C 
ENDROOT
BRANCH   5  10
ATOM     10  S   UNL     1      36.456 -23.904 -14.192  0.00  0.00    +0.091 S 
ATOM     11  O   UNL     1      36.347 -25.351 -14.384  0.00  0.00    -0.150 OA
ATOM     12  O   UNL     1      37.730 -23.318 -13.777  0.00  0.00    -0.150 OA
BRANCH  10  13
ATOM     13  N   UNL     1      35.265 -23.452 -13.033  0.00  0.00    -0.201 NA
ATOM     14  H   UNL     1      34.339 -23.508 -13.458  0.00  0.00    +0.144 HD
ATOM     15  H   UNL     1      35.438 -22.496 -12.723  0.00  0.00    +0.144 HD
ENDBRANCH  10  13
ENDBRANCH   5  10
BRANCH   7  16
ATOM     16  O   UNL     1      35.536 -20.307 -21.002  0.00  0.00    -0.476 OA
BRANCH  16  17
ATOM     17  C   UNL     1      34.404 -19.591 -21.491  0.00  0.00    +0.206 C 
ATOM     18  C   UNL     1      34.664 -19.178 -22.925  0.00  0.00    +0.051 C 
ENDBRANCH  16  17
ENDBRANCH   7  16
TORSDOF 4
ENDMDL
MODEL 8
REMARK VINA RESULT:      -7.4      8.996     12.151
REMARK  Name = 3295
REMARK  4 active torsions:
REMARK  status: ('A' for Active; 'I' for Inactive)
REMARK    1  A    between atoms: C_5  and  S_10
REMARK    2  A    between atoms: C_7  and  O_16
REMARK    3  A    between atoms: S_10  and  N_13
REMARK    4  A    between atoms: O_16  and  C_17
REMARK                            x       y       z     vdW  Elec       q    Type
REMARK                         _______ _______ _______ _____ _____    ______ ____
ROOT
ATOM      1  S   UNL     1      34.193 -14.904 -21.801  0.00  0.00    -0.051 S 
ATOM      2  N   UNL     1      34.134 -15.979 -24.145  0.00  0.00    -0.380 NA
ATOM      3  C   UNL     1      34.772 -16.521 -21.947  0.00  0.00    +0.133 C 
ATOM      4  C   UNL     1      34.662 -16.928 -23.280  0.00  0.00    +0.126 C 
ATOM      5  C   UNL     1      33.853 -14.884 -23.477  0.00  0.00    +0.278 C 
ATOM      6  C   UNL     1      35.288 -17.369 -20.953  0.00  0.00    +0.029 C 
ATOM      7  C   UNL     1      35.696 -18.652 -21.324  0.00  0.00    +0.136 C 
ATOM      8  C   UNL     1      35.082 -18.229 -23.628  0.00  0.00    +0.032 C 
ATOM      9  C   UNL     1      35.596 -19.080 -22.644  0.00  0.00    +0.039 C 
ENDROOT
BRANCH   5  10
ATOM     10  S   UNL     1      33.173 -13.435 -24.158  0.00  0.00    +0.091 S 
ATOM     11  O   UNL     1      32.978 -13.696 -25.585  0.00  0.00    -0.150 OA
ATOM     12  O   UNL     1      32.026 -13.101 -23.315  0.00  0.00    -0.150 OA
BRANCH  10  13
ATOM     13  N   UNL     1      34.317 -12.154 -24.024  0.00  0.00    -0.201 NA
ATOM     14  H   UNL     1      33.868 -11.270 -24.265  0.00  0.00    +0.144 HD
ATOM     15  H   UNL     1      35.094 -12.324 -24.663  0.00  0.00    +0.144 HD
ENDBRANCH  10  13
ENDBRANCH   5  10
BRANCH   7  16
ATOM     16  O   UNL     1      36.199 -19.495 -20.378  0.00  0.00    -0.476 OA
BRANCH  16  17
ATOM     17  C   UNL     1      35.527 -20.740 -20.197  0.00  0.00    +0.206 C 
ATOM     18  C   UNL     1      36.174 -21.487 -19.050  0.00  0.00    +0.051 C 
ENDBRANCH  16  17
ENDBRANCH   7  16
TORSDOF 4
ENDMDL
MODEL 9
REMARK VINA RESULT:      -7.3      1.867      2.930
REMARK  Name = 3295
REMARK  4 active torsions:
REMARK  status: ('A' for Active; 'I' for Inactive)
REMARK    1  A    between atoms: C_5  and  S_10
REMARK    2  A    between atoms: C_7  and  O_16
REMARK    3  A    between atoms: S_10  and  N_13
REMARK    4  A    between atoms: O_16  and  C_17
REMARK                            x       y       z     vdW  Elec       q    Type
REMARK                         _______ _______ _______ _____ _____    ______ ____
ROOT
ATOM      1  S   UNL     1      34.942 -24.171 -12.747  0.00  0.00    -0.051 S 
ATOM      2  N   UNL     1      36.422 -23.766 -14.820  0.00  0.00    -0.380 NA
ATOM      3  C   UNL     1      34.146 -23.808 -14.233  0.00  0.00    +0.133 C 
ATOM      4  C   UNL     1      35.106 -23.622 -15.233  0.00  0.00    +0.126 C 
ATOM      5  C   UNL     1      36.453 -24.052 -13.539  0.00  0.00    +0.278 C 
ATOM      6  C   UNL     1      32.770 -23.696 -14.495  0.00  0.00    +0.029 C 
ATOM      7  C   UNL     1      32.367 -23.389 -15.797  0.00  0.00    +0.136 C 
ATOM      8  C   UNL     1      34.671 -23.313 -16.539  0.00  0.00    +0.032 C 
ATOM      9  C   UNL     1      33.303 -23.200 -16.808  0.00  0.00    +0.039 C 
ENDROOT
BRANCH   5  10
ATOM     10  S   UNL     1      37.893 -24.317 -12.600  0.00  0.00    +0.091 S 
ATOM     11  O   UNL     1      37.584 -25.389 -11.653  0.00  0.00    -0.150 OA
ATOM     12  O   UNL     1      38.973 -24.491 -13.571  0.00  0.00    -0.150 OA
BRANCH  10  13
ATOM     13  N   UNL     1      38.237 -22.903 -11.676  0.00  0.00    -0.201 NA
ATOM     14  H   UNL     1      37.697 -22.923 -10.811  0.00  0.00    +0.144 HD
ATOM     15  H   UNL     1      37.984 -22.075 -12.216  0.00  0.00    +0.144 HD
ENDBRANCH  10  13
ENDBRANCH   5  10
BRANCH   7  16
ATOM     16  O   UNL     1      31.038 -23.274 -16.077  0.00  0.00    -0.476 OA
BRANCH  16  17
ATOM     17  C   UNL     1      30.171 -22.968 -14.988  0.00  0.00    +0.206 C 
ATOM     18  C   UNL     1      28.832 -22.517 -15.535  0.00  0.00    +0.051 C 
ENDBRANCH  16  17
ENDBRANCH   7  16
TORSDOF 4
ENDMDL
