MODEL 1
REMARK VINA RESULT:     -11.3      0.000      0.000
REMARK  Name = 5287739
REMARK  3 active torsions:
REMARK  status: ('A' for Active; 'I' for Inactive)
REMARK    1  A    between atoms: C_2  and  O_21
REMARK    2  A    between atoms: C_3  and  O_23
REMARK    3  A    between atoms: C_4  and  O_25
REMARK                            x       y       z     vdW  Elec       q    Type
REMARK                         _______ _______ _______ _____ _____    ______ ____
ROOT
ATOM      1  C   UNL     1      35.599 -23.774 -13.706  0.00  0.00    -0.021 C 
ATOM      2  C   UNL     1      37.172 -24.843 -11.491  0.00  0.00    +0.168 C 
ATOM      3  C   UNL     1      37.847 -23.882 -12.472  0.00  0.00    +0.162 C 
ATOM      4  C   UNL     1      35.738 -24.392 -11.225  0.00  0.00    +0.144 C 
ATOM      5  C   UNL     1      34.908 -24.400 -12.508  0.00  0.00    +0.058 C 
ATOM      6  C   UNL     1      36.991 -23.546 -13.675  0.00  0.00    +0.003 C 
ATOM      7  C   UNL     1      34.853 -23.460 -14.883  0.00  0.00    -0.004 C 
ATOM      8  C   UNL     1      35.518 -22.878 -15.993  0.00  0.00    -0.000 C 
ATOM      9  C   UNL     1      36.906 -22.627 -15.937  0.00  0.00    -0.000 C 
ATOM     10  C   UNL     1      37.622 -22.966 -14.786  0.00  0.00    -0.002 C 
ATOM     11  C   UNL     1      34.804 -22.542 -17.177  0.00  0.00    -0.000 C 
ATOM     12  C   UNL     1      33.468 -23.700 -15.014  0.00  0.00    -0.000 C 
ATOM     13  C   UNL     1      33.417 -22.792 -17.264  0.00  0.00    -0.000 C 
ATOM     14  C   UNL     1      35.475 -21.957 -18.278  0.00  0.00    -0.000 C 
ATOM     15  C   UNL     1      37.556 -22.048 -17.035  0.00  0.00    -0.000 C 
ATOM     16  C   UNL     1      32.764 -23.373 -16.176  0.00  0.00    -0.000 C 
ATOM     17  C   UNL     1      36.850 -21.716 -18.191  0.00  0.00    -0.000 C 
ATOM     18  C   UNL     1      32.721 -22.457 -18.434  0.00  0.00    -0.000 C 
ATOM     19  C   UNL     1      34.755 -21.631 -19.437  0.00  0.00    -0.000 C 
ATOM     20  C   UNL     1      33.387 -21.880 -19.513  0.00  0.00    +0.000 C 
ENDROOT
BRANCH   2  21
ATOM     21  O   UNL     1      37.169 -26.163 -12.034  0.00  0.00    -0.379 OA
ATOM     22  H   UNL     1      36.956 -26.799 -11.334  0.00  0.00    +0.211 HD
ENDBRANCH   2  21
BRANCH   3  23
ATOM     23  O   UNL     1      38.150 -22.657 -11.806  0.00  0.00    -0.377 OA
ATOM     24  H   UNL     1      38.870 -22.206 -12.273  0.00  0.00    +0.211 HD
ENDBRANCH   3  23
BRANCH   4  25
ATOM     25  O   UNL     1      35.120 -25.259 -10.278  0.00  0.00    -0.382 OA
ATOM     26  H   UNL     1      34.585 -25.920 -10.745  0.00  0.00    +0.210 HD
ENDBRANCH   4  25
TORSDOF 3
ENDMDL
MODEL 2
REMARK VINA RESULT:     -10.5      0.905      3.140
REMARK  Name = 5287739
REMARK  3 active torsions:
REMARK  status: ('A' for Active; 'I' for Inactive)
REMARK    1  A    between atoms: C_2  and  O_21
REMARK    2  A    between atoms: C_3  and  O_23
REMARK    3  A    between atoms: C_4  and  O_25
REMARK                            x       y       z     vdW  Elec       q    Type
REMARK                         _______ _______ _______ _____ _____    ______ ____
ROOT
ATOM      1  C   UNL     1      36.555 -23.212 -14.168  0.00  0.00    -0.021 C 
ATOM      2  C   UNL     1      36.926 -23.670 -11.308  0.00  0.00    +0.168 C 
ATOM      3  C   UNL     1      35.635 -24.161 -11.967  0.00  0.00    +0.162 C 
ATOM      4  C   UNL     1      38.108 -23.893 -12.248  0.00  0.00    +0.144 C 
ATOM      5  C   UNL     1      37.937 -23.108 -13.548  0.00  0.00    +0.058 C 
ATOM      6  C   UNL     1      35.477 -23.702 -13.402  0.00  0.00    +0.003 C 
ATOM      7  C   UNL     1      36.333 -22.771 -15.508  0.00  0.00    -0.004 C 
ATOM      8  C   UNL     1      35.033 -22.874 -16.067  0.00  0.00    -0.000 C 
ATOM      9  C   UNL     1      33.969 -23.395 -15.299  0.00  0.00    -0.000 C 
ATOM     10  C   UNL     1      34.202 -23.798 -13.982  0.00  0.00    -0.002 C 
ATOM     11  C   UNL     1      34.778 -22.454 -17.403  0.00  0.00    -0.000 C 
ATOM     12  C   UNL     1      37.345 -22.224 -16.326  0.00  0.00    -0.000 C 
ATOM     13  C   UNL     1      35.822 -21.919 -18.190  0.00  0.00    -0.000 C 
ATOM     14  C   UNL     1      33.479 -22.565 -17.954  0.00  0.00    -0.000 C 
ATOM     15  C   UNL     1      32.689 -23.498 -15.859  0.00  0.00    -0.000 C 
ATOM     16  C   UNL     1      37.098 -21.808 -17.636  0.00  0.00    -0.000 C 
ATOM     17  C   UNL     1      32.446 -23.090 -17.171  0.00  0.00    -0.000 C 
ATOM     18  C   UNL     1      35.561 -21.508 -19.505  0.00  0.00    -0.000 C 
ATOM     19  C   UNL     1      33.246 -22.147 -19.272  0.00  0.00    -0.000 C 
ATOM     20  C   UNL     1      34.282 -21.622 -20.042  0.00  0.00    +0.000 C 
ENDROOT
BRANCH   2  21
ATOM     21  O   UNL     1      36.812 -22.281 -11.000  0.00  0.00    -0.379 OA
ATOM     22  H   UNL     1      37.152 -22.119 -10.107  0.00  0.00    +0.211 HD
ENDBRANCH   2  21
BRANCH   3  23
ATOM     23  O   UNL     1      35.614 -25.587 -11.968  0.00  0.00    -0.377 OA
ATOM     24  H   UNL     1      35.689 -25.910 -12.880  0.00  0.00    +0.211 HD
ENDBRANCH   3  23
BRANCH   4  25
ATOM     25  O   UNL     1      39.318 -23.477 -11.622  0.00  0.00    -0.382 OA
ATOM     26  H   UNL     1      39.421 -23.941 -10.776  0.00  0.00    +0.210 HD
ENDBRANCH   4  25
TORSDOF 3
ENDMDL
MODEL 3
REMARK VINA RESULT:     -10.1      3.079      5.011
REMARK  Name = 5287739
REMARK  3 active torsions:
REMARK  status: ('A' for Active; 'I' for Inactive)
REMARK    1  A    between atoms: C_2  and  O_21
REMARK    2  A    between atoms: C_3  and  O_23
REMARK    3  A    between atoms: C_4  and  O_25
REMARK                            x       y       z     vdW  Elec       q    Type
REMARK                         _______ _______ _______ _____ _____    ______ ____
ROOT
ATOM      1  C   UNL     1      31.650 -23.686 -15.661  0.00  0.00    -0.021 C 
ATOM      2  C   UNL     1      29.652 -25.139 -14.105  0.00  0.00    +0.168 C 
ATOM      3  C   UNL     1      30.960 -24.737 -13.422  0.00  0.00    +0.162 C 
ATOM      4  C   UNL     1      29.189 -24.025 -15.040  0.00  0.00    +0.144 C 
ATOM      5  C   UNL     1      30.214 -23.767 -16.144  0.00  0.00    +0.058 C 
ATOM      6  C   UNL     1      31.987 -24.159 -14.375  0.00  0.00    +0.003 C 
ATOM      7  C   UNL     1      32.671 -23.178 -16.521  0.00  0.00    -0.004 C 
ATOM      8  C   UNL     1      34.008 -23.114 -16.050  0.00  0.00    -0.000 C 
ATOM      9  C   UNL     1      34.326 -23.562 -14.750  0.00  0.00    -0.000 C 
ATOM     10  C   UNL     1      33.317 -24.079 -13.934  0.00  0.00    -0.002 C 
ATOM     11  C   UNL     1      35.048 -22.603 -16.877  0.00  0.00    -0.000 C 
ATOM     12  C   UNL     1      32.428 -22.730 -17.838  0.00  0.00    -0.000 C 
ATOM     13  C   UNL     1      34.760 -22.158 -18.186  0.00  0.00    -0.000 C 
ATOM     14  C   UNL     1      36.378 -22.538 -16.398  0.00  0.00    -0.000 C 
ATOM     15  C   UNL     1      35.648 -23.492 -14.291  0.00  0.00    -0.000 C 
ATOM     16  C   UNL     1      33.447 -22.231 -18.652  0.00  0.00    -0.000 C 
ATOM     17  C   UNL     1      36.661 -22.984 -15.103  0.00  0.00    -0.000 C 
ATOM     18  C   UNL     1      35.791 -21.656 -18.993  0.00  0.00    -0.000 C 
ATOM     19  C   UNL     1      37.391 -22.031 -17.226  0.00  0.00    -0.000 C 
ATOM     20  C   UNL     1      37.097 -21.592 -18.515  0.00  0.00    +0.000 C 
ENDROOT
BRANCH   2  21
ATOM     21  O   UNL     1      29.846 -26.342 -14.848  0.00  0.00    -0.379 OA
ATOM     22  H   UNL     1      29.638 -27.105 -14.287  0.00  0.00    +0.211 HD
ENDBRANCH   2  21
BRANCH   3  23
ATOM     23  O   UNL     1      30.694 -23.748 -12.428  0.00  0.00    -0.377 OA
ATOM     24  H   UNL     1      29.905 -23.243 -12.679  0.00  0.00    +0.211 HD
ENDBRANCH   3  23
BRANCH   4  25
ATOM     25  O   UNL     1      27.948 -24.377 -15.645  0.00  0.00    -0.382 OA
ATOM     26  H   UNL     1      27.399 -24.855 -15.004  0.00  0.00    +0.210 HD
ENDBRANCH   4  25
TORSDOF 3
ENDMDL
MODEL 4
REMARK VINA RESULT:      -9.6      2.055      3.617
REMARK  Name = 5287739
REMARK  3 active torsions:
REMARK  status: ('A' for Active; 'I' for Inactive)
REMARK    1  A    between atoms: C_2  and  O_21
REMARK    2  A    between atoms: C_3  and  O_23
REMARK    3  A    between atoms: C_4  and  O_25
REMARK                            x       y       z     vdW  Elec       q    Type
REMARK                         _______ _______ _______ _____ _____    ______ ____
ROOT
ATOM      1  C   UNL     1      35.104 -24.377 -14.204  0.00  0.00    -0.021 C 
ATOM      2  C   UNL     1      37.976 -24.902 -14.259  0.00  0.00    +0.168 C 
ATOM      3  C   UNL     1      37.394 -23.909 -15.268  0.00  0.00    +0.162 C 
ATOM      4  C   UNL     1      37.283 -24.738 -12.909  0.00  0.00    +0.144 C 
ATOM      5  C   UNL     1      35.787 -25.027 -13.015  0.00  0.00    +0.058 C 
ATOM      6  C   UNL     1      35.879 -23.863 -15.265  0.00  0.00    +0.003 C 
ATOM      7  C   UNL     1      33.678 -24.325 -14.276  0.00  0.00    -0.004 C 
ATOM      8  C   UNL     1      33.060 -23.715 -15.398  0.00  0.00    -0.000 C 
ATOM      9  C   UNL     1      33.849 -23.178 -16.438  0.00  0.00    -0.000 C 
ATOM     10  C   UNL     1      35.242 -23.261 -16.361  0.00  0.00    -0.002 C 
ATOM     11  C   UNL     1      31.643 -23.637 -15.497  0.00  0.00    -0.000 C 
ATOM     12  C   UNL     1      32.829 -24.858 -13.282  0.00  0.00    -0.000 C 
ATOM     13  C   UNL     1      30.829 -24.177 -14.476  0.00  0.00    -0.000 C 
ATOM     14  C   UNL     1      31.035 -23.022 -16.618  0.00  0.00    -0.000 C 
ATOM     15  C   UNL     1      33.232 -22.573 -17.541  0.00  0.00    -0.000 C 
ATOM     16  C   UNL     1      31.437 -24.786 -13.378  0.00  0.00    -0.000 C 
ATOM     17  C   UNL     1      31.843 -22.494 -17.630  0.00  0.00    -0.000 C 
ATOM     18  C   UNL     1      29.434 -24.094 -14.582  0.00  0.00    -0.000 C 
ATOM     19  C   UNL     1      29.636 -22.954 -16.699  0.00  0.00    -0.000 C 
ATOM     20  C   UNL     1      28.842 -23.486 -15.686  0.00  0.00    +0.000 C 
ENDROOT
BRANCH   2  21
ATOM     21  O   UNL     1      37.793 -26.235 -14.734  0.00  0.00    -0.379 OA
ATOM     22  H   UNL     1      37.079 -26.661 -14.236  0.00  0.00    +0.211 HD
ENDBRANCH   2  21
BRANCH   3  23
ATOM     23  O   UNL     1      37.863 -22.596 -14.968  0.00  0.00    -0.377 OA
ATOM     24  H   UNL     1      37.302 -22.202 -14.281  0.00  0.00    +0.211 HD
ENDBRANCH   3  23
BRANCH   4  25
ATOM     25  O   UNL     1      37.852 -25.630 -11.955  0.00  0.00    -0.382 OA
ATOM     26  H   UNL     1      37.727 -25.272 -11.062  0.00  0.00    +0.210 HD
ENDBRANCH   4  25
TORSDOF 3
ENDMDL
MODEL 5
REMARK VINA RESULT:      -9.6     10.280     12.951
REMARK  Name = 5287739
REMARK  3 active torsions:
REMARK  status: ('A' for Active; 'I' for Inactive)
REMARK    1  A    between atoms: C_2  and  O_21
REMARK    2  A    between atoms: C_3  and  O_23
REMARK    3  A    between atoms: C_4  and  O_25
REMARK                            x       y       z     vdW  Elec       q    Type
REMARK                         _______ _______ _______ _____ _____    ______ ____
ROOT
ATOM      1  C   UNL     1      32.471 -13.012 -21.281  0.00  0.00    -0.021 C 
ATOM      2  C   UNL     1      31.440 -10.318 -20.823  0.00  0.00    +0.168 C 
ATOM      3  C   UNL     1      31.274 -10.939 -22.211  0.00  0.00    +0.162 C 
ATOM      4  C   UNL     1      31.226 -11.381 -19.748  0.00  0.00    +0.144 C 
ATOM      5  C   UNL     1      32.255 -12.504 -19.867  0.00  0.00    +0.058 C 
ATOM      6  C   UNL     1      32.009 -12.254 -22.378  0.00  0.00    +0.003 C 
ATOM      7  C   UNL     1      33.181 -14.230 -21.508  0.00  0.00    -0.004 C 
ATOM      8  C   UNL     1      33.374 -14.685 -22.838  0.00  0.00    -0.000 C 
ATOM      9  C   UNL     1      32.880 -13.932 -23.925  0.00  0.00    -0.000 C 
ATOM     10  C   UNL     1      32.210 -12.730 -23.682  0.00  0.00    -0.002 C 
ATOM     11  C   UNL     1      34.067 -15.900 -23.099  0.00  0.00    -0.000 C 
ATOM     12  C   UNL     1      33.717 -15.023 -20.470  0.00  0.00    -0.000 C 
ATOM     13  C   UNL     1      34.582 -16.668 -22.031  0.00  0.00    -0.000 C 
ATOM     14  C   UNL     1      34.251 -16.349 -24.429  0.00  0.00    -0.000 C 
ATOM     15  C   UNL     1      33.070 -14.390 -25.235  0.00  0.00    -0.000 C 
ATOM     16  C   UNL     1      34.401 -16.215 -20.724  0.00  0.00    -0.000 C 
ATOM     17  C   UNL     1      33.745 -15.584 -25.485  0.00  0.00    -0.000 C 
ATOM     18  C   UNL     1      35.263 -17.863 -22.299  0.00  0.00    -0.000 C 
ATOM     19  C   UNL     1      34.936 -17.549 -24.669  0.00  0.00    -0.000 C 
ATOM     20  C   UNL     1      35.438 -18.301 -23.609  0.00  0.00    +0.000 C 
ENDROOT
BRANCH   2  21
ATOM     21  O   UNL     1      32.750  -9.764 -20.697  0.00  0.00    -0.379 OA
ATOM     22  H   UNL     1      33.373 -10.463 -20.446  0.00  0.00    +0.211 HD
ENDBRANCH   2  21
BRANCH   3  23
ATOM     23  O   UNL     1      29.891 -11.188 -22.458  0.00  0.00    -0.377 OA
ATOM     24  H   UNL     1      29.657 -12.069 -22.127  0.00  0.00    +0.211 HD
ENDBRANCH   3  23
BRANCH   4  25
ATOM     25  O   UNL     1      31.337 -10.797 -18.453  0.00  0.00    -0.382 OA
ATOM     26  H   UNL     1      30.680 -11.195 -17.861  0.00  0.00    +0.210 HD
ENDBRANCH   4  25
TORSDOF 3
ENDMDL
MODEL 6
REMARK VINA RESULT:      -9.6      2.091      4.442
REMARK  Name = 5287739
REMARK  3 active torsions:
REMARK  status: ('A' for Active; 'I' for Inactive)
REMARK    1  A    between atoms: C_2  and  O_21
REMARK    2  A    between atoms: C_3  and  O_23
REMARK    3  A    between atoms: C_4  and  O_25
REMARK                            x       y       z     vdW  Elec       q    Type
REMARK                         _______ _______ _______ _____ _____    ______ ____
ROOT
ATOM      1  C   UNL     1      35.295 -23.986 -14.891  0.00  0.00    -0.021 C 
ATOM      2  C   UNL     1      37.822 -24.273 -13.458  0.00  0.00    +0.168 C 
ATOM      3  C   UNL     1      36.562 -24.891 -12.849  0.00  0.00    +0.162 C 
ATOM      4  C   UNL     1      37.812 -24.454 -14.973  0.00  0.00    +0.144 C 
ATOM      5  C   UNL     1      36.613 -23.749 -15.606  0.00  0.00    +0.058 C 
ATOM      6  C   UNL     1      35.290 -24.516 -13.584  0.00  0.00    +0.003 C 
ATOM      7  C   UNL     1      34.062 -23.629 -15.518  0.00  0.00    -0.004 C 
ATOM      8  C   UNL     1      32.842 -23.856 -14.831  0.00  0.00    -0.000 C 
ATOM      9  C   UNL     1      32.850 -24.416 -13.535  0.00  0.00    -0.000 C 
ATOM     10  C   UNL     1      34.068 -24.735 -12.930  0.00  0.00    -0.002 C 
ATOM     11  C   UNL     1      31.595 -23.522 -15.430  0.00  0.00    -0.000 C 
ATOM     12  C   UNL     1      33.981 -23.049 -16.802  0.00  0.00    -0.000 C 
ATOM     13  C   UNL     1      31.558 -22.950 -16.720  0.00  0.00    -0.000 C 
ATOM     14  C   UNL     1      30.382 -23.757 -14.739  0.00  0.00    -0.000 C 
ATOM     15  C   UNL     1      31.641 -24.641 -12.864  0.00  0.00    -0.000 C 
ATOM     16  C   UNL     1      32.759 -22.718 -17.392  0.00  0.00    -0.000 C 
ATOM     17  C   UNL     1      30.422 -24.318 -13.458  0.00  0.00    -0.000 C 
ATOM     18  C   UNL     1      30.325 -22.625 -17.303  0.00  0.00    -0.000 C 
ATOM     19  C   UNL     1      29.162 -23.422 -15.344  0.00  0.00    -0.000 C 
ATOM     20  C   UNL     1      29.135 -22.861 -16.619  0.00  0.00    +0.000 C 
ENDROOT
BRANCH   2  21
ATOM     21  O   UNL     1      37.880 -22.883 -13.139  0.00  0.00    -0.379 OA
ATOM     22  H   UNL     1      36.985 -22.510 -13.158  0.00  0.00    +0.211 HD
ENDBRANCH   2  21
BRANCH   3  23
ATOM     23  O   UNL     1      36.669 -26.313 -12.875  0.00  0.00    -0.377 OA
ATOM     24  H   UNL     1      35.928 -26.701 -12.383  0.00  0.00    +0.211 HD
ENDBRANCH   3  23
BRANCH   4  25
ATOM     25  O   UNL     1      39.005 -23.919 -15.539  0.00  0.00    -0.382 OA
ATOM     26  H   UNL     1      39.352 -23.221 -14.962  0.00  0.00    +0.210 HD
ENDBRANCH   4  25
TORSDOF 3
ENDMDL
MODEL 7
REMARK VINA RESULT:      -9.5      9.800     13.343
REMARK  Name = 5287739
REMARK  3 active torsions:
REMARK  status: ('A' for Active; 'I' for Inactive)
REMARK    1  A    between atoms: C_2  and  O_21
REMARK    2  A    between atoms: C_3  and  O_23
REMARK    3  A    between atoms: C_4  and  O_25
REMARK                            x       y       z     vdW  Elec       q    Type
REMARK                         _______ _______ _______ _____ _____    ______ ____
ROOT
ATOM      1  C   UNL     1      33.822 -13.968 -24.087  0.00  0.00    -0.021 C 
ATOM      2  C   UNL     1      33.522 -11.778 -25.995  0.00  0.00    +0.168 C 
ATOM      3  C   UNL     1      33.273 -13.209 -26.478  0.00  0.00    +0.162 C 
ATOM      4  C   UNL     1      32.974 -11.603 -24.582  0.00  0.00    +0.144 C 
ATOM      5  C   UNL     1      33.672 -12.540 -23.597  0.00  0.00    +0.058 C 
ATOM      6  C   UNL     1      33.640 -14.265 -25.455  0.00  0.00    +0.003 C 
ATOM      7  C   UNL     1      34.193 -15.006 -23.179  0.00  0.00    -0.004 C 
ATOM      8  C   UNL     1      34.330 -16.334 -23.659  0.00  0.00    -0.000 C 
ATOM      9  C   UNL     1      34.115 -16.621 -25.024  0.00  0.00    -0.000 C 
ATOM     10  C   UNL     1      33.777 -15.588 -25.901  0.00  0.00    -0.002 C 
ATOM     11  C   UNL     1      34.689 -17.394 -22.779  0.00  0.00    -0.000 C 
ATOM     12  C   UNL     1      34.441 -14.787 -21.806  0.00  0.00    -0.000 C 
ATOM     13  C   UNL     1      34.921 -17.132 -21.411  0.00  0.00    -0.000 C 
ATOM     14  C   UNL     1      34.819 -18.717 -23.266  0.00  0.00    -0.000 C 
ATOM     15  C   UNL     1      34.249 -17.936 -25.490  0.00  0.00    -0.000 C 
ATOM     16  C   UNL     1      34.796 -15.824 -20.941  0.00  0.00    -0.000 C 
ATOM     17  C   UNL     1      34.594 -18.971 -24.622  0.00  0.00    -0.000 C 
ATOM     18  C   UNL     1      35.273 -18.183 -20.552  0.00  0.00    -0.000 C 
ATOM     19  C   UNL     1      35.172 -19.749 -22.384  0.00  0.00    -0.000 C 
ATOM     20  C   UNL     1      35.397 -19.483 -21.036  0.00  0.00    +0.000 C 
ENDROOT
BRANCH   2  21
ATOM     21  O   UNL     1      34.923 -11.504 -26.006  0.00  0.00    -0.379 OA
ATOM     22  H   UNL     1      35.298 -11.773 -26.858  0.00  0.00    +0.211 HD
ENDBRANCH   2  21
BRANCH   3  23
ATOM     23  O   UNL     1      31.889 -13.372 -26.785  0.00  0.00    -0.377 OA
ATOM     24  H   UNL     1      31.373 -13.366 -25.964  0.00  0.00    +0.211 HD
ENDBRANCH   3  23
BRANCH   4  25
ATOM     25  O   UNL     1      33.166 -10.260 -24.145  0.00  0.00    -0.382 OA
ATOM     26  H   UNL     1      33.110 -10.223 -23.178  0.00  0.00    +0.210 HD
ENDBRANCH   4  25
TORSDOF 3
ENDMDL
MODEL 8
REMARK VINA RESULT:      -9.5      1.890      3.062
REMARK  Name = 5287739
REMARK  3 active torsions:
REMARK  status: ('A' for Active; 'I' for Inactive)
REMARK    1  A    between atoms: C_2  and  O_21
REMARK    2  A    between atoms: C_3  and  O_23
REMARK    3  A    between atoms: C_4  and  O_25
REMARK                            x       y       z     vdW  Elec       q    Type
REMARK                         _______ _______ _______ _____ _____    ______ ____
ROOT
ATOM      1  C   UNL     1      34.705 -23.061 -16.511  0.00  0.00    -0.021 C 
ATOM      2  C   UNL     1      35.714 -24.886 -14.467  0.00  0.00    +0.168 C 
ATOM      3  C   UNL     1      36.676 -23.863 -15.074  0.00  0.00    +0.162 C 
ATOM      4  C   UNL     1      34.337 -24.256 -14.276  0.00  0.00    +0.144 C 
ATOM      5  C   UNL     1      33.741 -23.812 -15.610  0.00  0.00    +0.058 C 
ATOM      6  C   UNL     1      36.090 -23.104 -16.248  0.00  0.00    +0.003 C 
ATOM      7  C   UNL     1      34.219 -22.349 -17.650  0.00  0.00    -0.004 C 
ATOM      8  C   UNL     1      35.138 -21.655 -18.479  0.00  0.00    -0.000 C 
ATOM      9  C   UNL     1      36.518 -21.682 -18.187  0.00  0.00    -0.000 C 
ATOM     10  C   UNL     1      36.976 -22.405 -17.083  0.00  0.00    -0.002 C 
ATOM     11  C   UNL     1      34.687 -20.928 -19.616  0.00  0.00    -0.000 C 
ATOM     12  C   UNL     1      32.855 -22.295 -18.011  0.00  0.00    -0.000 C 
ATOM     13  C   UNL     1      33.312 -20.893 -19.938  0.00  0.00    -0.000 C 
ATOM     14  C   UNL     1      35.610 -20.234 -20.436  0.00  0.00    -0.000 C 
ATOM     15  C   UNL     1      37.419 -20.992 -19.009  0.00  0.00    -0.000 C 
ATOM     16  C   UNL     1      32.410 -21.584 -19.127  0.00  0.00    -0.000 C 
ATOM     17  C   UNL     1      36.971 -20.275 -20.118  0.00  0.00    -0.000 C 
ATOM     18  C   UNL     1      32.878 -20.173 -21.059  0.00  0.00    -0.000 C 
ATOM     19  C   UNL     1      35.148 -19.521 -21.552  0.00  0.00    -0.000 C 
ATOM     20  C   UNL     1      33.791 -19.491 -21.860  0.00  0.00    +0.000 C 
ENDROOT
BRANCH   2  21
ATOM     21  O   UNL     1      35.610 -26.019 -15.329  0.00  0.00    -0.379 OA
ATOM     22  H   UNL     1      35.556 -25.721 -16.249  0.00  0.00    +0.211 HD
ENDBRANCH   2  21
BRANCH   3  23
ATOM     23  O   UNL     1      37.039 -22.903 -14.082  0.00  0.00    -0.377 OA
ATOM     24  H   UNL     1      37.636 -23.315 -13.438  0.00  0.00    +0.211 HD
ENDBRANCH   3  23
BRANCH   4  25
ATOM     25  O   UNL     1      33.451 -25.192 -13.670  0.00  0.00    -0.382 OA
ATOM     26  H   UNL     1      32.535 -24.897 -13.792  0.00  0.00    +0.210 HD
ENDBRANCH   4  25
TORSDOF 3
ENDMDL
MODEL 9
REMARK VINA RESULT:      -9.4     10.766     13.554
REMARK  Name = 5287739
REMARK  3 active torsions:
REMARK  status: ('A' for Active; 'I' for Inactive)
REMARK    1  A    between atoms: C_2  and  O_21
REMARK    2  A    between atoms: C_3  and  O_23
REMARK    3  A    between atoms: C_4  and  O_25
REMARK                            x       y       z     vdW  Elec       q    Type
REMARK                         _______ _______ _______ _____ _____    ______ ____
ROOT
ATOM      1  C   UNL     1      33.343 -14.185 -22.404  0.00  0.00    -0.021 C 
ATOM      2  C   UNL     1      33.945 -16.823 -21.306  0.00  0.00    +0.168 C 
ATOM      3  C   UNL     1      32.898 -15.957 -20.601  0.00  0.00    +0.162 C 
ATOM      4  C   UNL     1      33.814 -16.668 -22.819  0.00  0.00    +0.144 C 
ATOM      5  C   UNL     1      34.058 -15.223 -23.250  0.00  0.00    +0.058 C 
ATOM      6  C   UNL     1      32.810 -14.548 -21.149  0.00  0.00    +0.003 C 
ATOM      7  C   UNL     1      33.250 -12.832 -22.852  0.00  0.00    -0.004 C 
ATOM      8  C   UNL     1      32.580 -11.877 -22.043  0.00  0.00    -0.000 C 
ATOM      9  C   UNL     1      32.025 -12.261 -20.804  0.00  0.00    -0.000 C 
ATOM     10  C   UNL     1      32.149 -13.584 -20.373  0.00  0.00    -0.002 C 
ATOM     11  C   UNL     1      32.460 -10.523 -22.464  0.00  0.00    -0.000 C 
ATOM     12  C   UNL     1      33.798 -12.375 -24.070  0.00  0.00    -0.000 C 
ATOM     13  C   UNL     1      33.015 -10.109 -23.694  0.00  0.00    -0.000 C 
ATOM     14  C   UNL     1      31.785  -9.578 -21.653  0.00  0.00    -0.000 C 
ATOM     15  C   UNL     1      31.360 -11.314 -20.013  0.00  0.00    -0.000 C 
ATOM     16  C   UNL     1      33.683 -11.046 -24.484  0.00  0.00    -0.000 C 
ATOM     17  C   UNL     1      31.240  -9.989 -20.433  0.00  0.00    -0.000 C 
ATOM     18  C   UNL     1      32.891  -8.773 -24.100  0.00  0.00    -0.000 C 
ATOM     19  C   UNL     1      31.675  -8.247 -22.083  0.00  0.00    -0.000 C 
ATOM     20  C   UNL     1      32.224  -7.849 -23.299  0.00  0.00    +0.000 C 
ENDROOT
BRANCH   2  21
ATOM     21  O   UNL     1      35.253 -16.429 -20.893  0.00  0.00    -0.379 OA
ATOM     22  H   UNL     1      35.184 -15.742 -20.213  0.00  0.00    +0.211 HD
ENDBRANCH   2  21
BRANCH   3  23
ATOM     23  O   UNL     1      31.611 -16.555 -20.746  0.00  0.00    -0.377 OA
ATOM     24  H   UNL     1      30.942 -15.984 -20.335  0.00  0.00    +0.211 HD
ENDBRANCH   3  23
BRANCH   4  25
ATOM     25  O   UNL     1      34.758 -17.505 -23.480  0.00  0.00    -0.382 OA
ATOM     26  H   UNL     1      35.530 -17.638 -22.908  0.00  0.00    +0.210 HD
ENDBRANCH   4  25
TORSDOF 3
ENDMDL
