MODEL 1
REMARK VINA RESULT:      -6.2      0.000      0.000
REMARK  Name = 9896434
REMARK  8 active torsions:
REMARK  status: ('A' for Active; 'I' for Inactive)
REMARK    1  A    between atoms: C_1  and  N_17
REMARK    2  A    between atoms: C_9  and  O_21
REMARK    3  A    between atoms: C_12  and  O_23
REMARK    4  A    between atoms: C_13  and  O_25
REMARK    5  A    between atoms: C_14  and  O_27
REMARK    6  A    between atoms: O_27  and  P_28
REMARK    7  A    between atoms: P_28  and  O_30
REMARK    8  A    between atoms: P_28  and  O_32
REMARK                            x       y       z     vdW  Elec       q    Type
REMARK                         _______ _______ _______ _____ _____    ______ ____
ROOT
ATOM      1  C   UNL     1      34.329 -23.196 -16.604  0.00  0.00    +0.094 C 
ATOM      2  C   UNL     1      34.704 -24.531 -17.278  0.00  0.00    +0.029 C 
ATOM      3  C   UNL     1      34.907 -25.740 -16.357  0.00  0.00    +0.029 C 
ATOM      4  C   UNL     1      33.381 -23.360 -15.429  0.00  0.00    -0.001 C 
ATOM      5  C   UNL     1      35.684 -25.433 -15.101  0.00  0.00    -0.016 C 
ATOM      6  C   UNL     1      33.771 -24.024 -14.237  0.00  0.00    +0.000 C 
ATOM      7  C   UNL     1      35.117 -24.626 -14.085  0.00  0.00    +0.033 C 
ATOM      8  C   UNL     1      32.086 -22.821 -15.533  0.00  0.00    +0.035 C 
ATOM      9  C   UNL     1      35.882 -24.382 -12.928  0.00  0.00    +0.175 C 
ATOM     10  C   UNL     1      36.971 -25.967 -14.940  0.00  0.00    +0.036 C 
ATOM     11  C   UNL     1      32.833 -24.121 -13.191  0.00  0.00    +0.003 C 
ATOM     12  C   UNL     1      37.161 -24.920 -12.778  0.00  0.00    +0.206 C 
ATOM     13  C   UNL     1      37.706 -25.711 -13.783  0.00  0.00    +0.175 C 
ATOM     14  C   UNL     1      31.179 -22.930 -14.480  0.00  0.00    +0.149 C 
ATOM     15  C   UNL     1      31.552 -23.579 -13.310  0.00  0.00    +0.037 C 
ENDROOT
BRANCH   1  17
ATOM     16  O   UNL     1      36.363 -22.108 -18.369  0.00  0.00    -0.275 OA
ATOM     17  N   UNL     1      35.502 -22.431 -16.231  0.00  0.00    -0.302 N 
ATOM     18  C   UNL     1      36.417 -21.954 -17.151  0.00  0.00    +0.223 C 
ATOM     19  C   UNL     1      37.525 -21.171 -16.499  0.00  0.00    +0.095 C 
ATOM     20  H   UNL     1      35.653 -22.241 -15.277  0.00  0.00    +0.150 HD
ENDBRANCH   1  17
BRANCH   9  21
ATOM     21  O   UNL     1      35.421 -23.559 -11.937  0.00  0.00    -0.468 OA
ATOM     22  C   UNL     1      35.304 -24.123 -10.635  0.00  0.00    +0.253 C 
ENDBRANCH   9  21
BRANCH  12  23
ATOM     23  O   UNL     1      37.885 -24.661 -11.652  0.00  0.00    -0.465 OA
ATOM     24  C   UNL     1      38.763 -23.538 -11.693  0.00  0.00    +0.253 C 
ENDBRANCH  12  23
BRANCH  13  25
ATOM     25  O   UNL     1      38.955 -26.239 -13.653  0.00  0.00    -0.468 OA
ATOM     26  C   UNL     1      39.976 -25.705 -14.494  0.00  0.00    +0.253 C 
ENDBRANCH  13  25
BRANCH  14  27
ATOM     27  O   UNL     1      29.931 -22.403 -14.598  0.00  0.00    -0.403 OA
BRANCH  27  28
ATOM     28  P   UNL     1      28.880 -22.747 -15.782  0.00  0.00    +0.528 P 
ATOM     29  O   UNL     1      29.329 -22.373 -17.165  0.00  0.00    -0.216 OA
BRANCH  28  30
ATOM     30  O   UNL     1      27.531 -22.000 -15.291  0.00  0.00    -0.293 OA
ATOM     31  H   UNL     1      27.111 -22.520 -14.588  0.00  0.00    +0.223 HD
ENDBRANCH  28  30
BRANCH  28  32
ATOM     32  O   UNL     1      28.531 -24.310 -15.557  0.00  0.00    -0.293 OA
ATOM     33  H   UNL     1      28.476 -24.496 -14.606  0.00  0.00    +0.223 HD
ENDBRANCH  28  32
ENDBRANCH  27  28
ENDBRANCH  14  27
TORSDOF 8
ENDMDL
MODEL 2
REMARK VINA RESULT:      -6.1     13.111     16.465
REMARK  Name = 9896434
REMARK  8 active torsions:
REMARK  status: ('A' for Active; 'I' for Inactive)
REMARK    1  A    between atoms: C_1  and  N_17
REMARK    2  A    between atoms: C_9  and  O_21
REMARK    3  A    between atoms: C_12  and  O_23
REMARK    4  A    between atoms: C_13  and  O_25
REMARK    5  A    between atoms: C_14  and  O_27
REMARK    6  A    between atoms: O_27  and  P_28
REMARK    7  A    between atoms: P_28  and  O_30
REMARK    8  A    between atoms: P_28  and  O_32
REMARK                            x       y       z     vdW  Elec       q    Type
REMARK                         _______ _______ _______ _____ _____    ______ ____
ROOT
ATOM      1  C   UNL     1      31.548 -11.920 -21.001  0.00  0.00    +0.094 C 
ATOM      2  C   UNL     1      30.182 -11.360 -21.445  0.00  0.00    +0.029 C 
ATOM      3  C   UNL     1      30.131 -10.651 -22.804  0.00  0.00    +0.029 C 
ATOM      4  C   UNL     1      32.356 -12.513 -22.141  0.00  0.00    -0.001 C 
ATOM      5  C   UNL     1      31.298  -9.730 -23.061  0.00  0.00    -0.016 C 
ATOM      6  C   UNL     1      32.859 -11.714 -23.200  0.00  0.00    +0.000 C 
ATOM      7  C   UNL     1      32.596 -10.256 -23.269  0.00  0.00    +0.033 C 
ATOM      8  C   UNL     1      32.617 -13.895 -22.129  0.00  0.00    +0.035 C 
ATOM      9  C   UNL     1      33.646  -9.352 -23.518  0.00  0.00    +0.175 C 
ATOM     10  C   UNL     1      31.085  -8.344 -23.105  0.00  0.00    +0.036 C 
ATOM     11  C   UNL     1      33.610 -12.343 -24.212  0.00  0.00    +0.003 C 
ATOM     12  C   UNL     1      33.421  -7.975 -23.562  0.00  0.00    +0.206 C 
ATOM     13  C   UNL     1      32.143  -7.471 -23.355  0.00  0.00    +0.175 C 
ATOM     14  C   UNL     1      33.364 -14.491 -23.144  0.00  0.00    +0.149 C 
ATOM     15  C   UNL     1      33.860 -13.716 -24.184  0.00  0.00    +0.037 C 
ENDROOT
BRANCH   1  17
ATOM     16  O   UNL     1      30.590 -10.085 -18.962  0.00  0.00    -0.275 OA
ATOM     17  N   UNL     1      32.320 -10.939 -20.264  0.00  0.00    -0.302 N 
ATOM     18  C   UNL     1      31.769 -10.107 -19.307  0.00  0.00    +0.223 C 
ATOM     19  C   UNL     1      32.796  -9.203 -18.680  0.00  0.00    +0.095 C 
ATOM     20  H   UNL     1      33.284 -10.862 -20.455  0.00  0.00    +0.150 HD
ENDBRANCH   1  17
BRANCH   9  21
ATOM     21  O   UNL     1      34.935  -9.788 -23.664  0.00  0.00    -0.468 OA
ATOM     22  C   UNL     1      35.410  -9.954 -24.996  0.00  0.00    +0.253 C 
ENDBRANCH   9  21
BRANCH  12  23
ATOM     23  O   UNL     1      34.458  -7.119 -23.795  0.00  0.00    -0.465 OA
ATOM     24  C   UNL     1      34.518  -6.514 -25.085  0.00  0.00    +0.253 C 
ENDBRANCH  12  23
BRANCH  13  25
ATOM     25  O   UNL     1      31.909  -6.130 -23.391  0.00  0.00    -0.468 OA
ATOM     26  C   UNL     1      30.922  -5.619 -22.495  0.00  0.00    +0.253 C 
ENDBRANCH  13  25
BRANCH  14  27
ATOM     27  O   UNL     1      33.606 -15.829 -23.116  0.00  0.00    -0.403 OA
BRANCH  27  28
ATOM     28  P   UNL     1      34.733 -16.555 -22.207  0.00  0.00    +0.528 P 
ATOM     29  O   UNL     1      35.042 -15.875 -20.905  0.00  0.00    -0.216 OA
BRANCH  28  30
ATOM     30  O   UNL     1      35.991 -16.666 -23.218  0.00  0.00    -0.293 OA
ATOM     31  H   UNL     1      36.805 -16.807 -22.709  0.00  0.00    +0.223 HD
ENDBRANCH  28  30
BRANCH  28  32
ATOM     32  O   UNL     1      34.223 -18.086 -22.094  0.00  0.00    -0.293 OA
ATOM     33  H   UNL     1      34.546 -18.475 -21.266  0.00  0.00    +0.223 HD
ENDBRANCH  28  32
ENDBRANCH  27  28
ENDBRANCH  14  27
TORSDOF 8
ENDMDL
MODEL 3
REMARK VINA RESULT:      -4.0     15.072     18.350
REMARK  Name = 9896434
REMARK  8 active torsions:
REMARK  status: ('A' for Active; 'I' for Inactive)
REMARK    1  A    between atoms: C_1  and  N_17
REMARK    2  A    between atoms: C_9  and  O_21
REMARK    3  A    between atoms: C_12  and  O_23
REMARK    4  A    between atoms: C_13  and  O_25
REMARK    5  A    between atoms: C_14  and  O_27
REMARK    6  A    between atoms: O_27  and  P_28
REMARK    7  A    between atoms: P_28  and  O_30
REMARK    8  A    between atoms: P_28  and  O_32
REMARK                            x       y       z     vdW  Elec       q    Type
REMARK                         _______ _______ _______ _____ _____    ______ ____
ROOT
ATOM      1  C   UNL     1      31.879  -9.995 -21.640  0.00  0.00    +0.094 C 
ATOM      2  C   UNL     1      30.384  -9.780 -21.952  0.00  0.00    +0.029 C 
ATOM      3  C   UNL     1      30.037  -9.244 -23.346  0.00  0.00    +0.029 C 
ATOM      4  C   UNL     1      32.671 -10.525 -22.822  0.00  0.00    -0.001 C 
ATOM      5  C   UNL     1      30.941  -8.134 -23.821  0.00  0.00    -0.016 C 
ATOM      6  C   UNL     1      32.873  -9.755 -23.997  0.00  0.00    +0.000 C 
ATOM      7  C   UNL     1      32.293  -8.399 -24.149  0.00  0.00    +0.033 C 
ATOM      8  C   UNL     1      33.227 -11.814 -22.732  0.00  0.00    +0.035 C 
ATOM      9  C   UNL     1      33.087  -7.328 -24.600  0.00  0.00    +0.175 C 
ATOM     10  C   UNL     1      30.427  -6.835 -23.950  0.00  0.00    +0.036 C 
ATOM     11  C   UNL     1      33.631 -10.318 -25.041  0.00  0.00    +0.003 C 
ATOM     12  C   UNL     1      32.564  -6.040 -24.726  0.00  0.00    +0.206 C 
ATOM     13  C   UNL     1      31.236  -5.793 -24.400  0.00  0.00    +0.175 C 
ATOM     14  C   UNL     1      33.975 -12.345 -23.782  0.00  0.00    +0.149 C 
ATOM     15  C   UNL     1      34.177 -11.598 -24.935  0.00  0.00    +0.037 C 
ENDROOT
BRANCH   1  17
ATOM     16  O   UNL     1      31.398  -8.805 -19.034  0.00  0.00    -0.275 OA
ATOM     17  N   UNL     1      32.492  -8.803 -21.088  0.00  0.00    -0.302 N 
ATOM     18  C   UNL     1      32.195  -8.314 -19.829  0.00  0.00    +0.223 C 
ATOM     19  C   UNL     1      32.990  -7.081 -19.495  0.00  0.00    +0.095 C 
ATOM     20  H   UNL     1      33.152  -8.319 -21.636  0.00  0.00    +0.150 HD
ENDBRANCH   1  17
BRANCH   9  21
ATOM     21  O   UNL     1      34.418  -7.501 -24.872  0.00  0.00    -0.468 OA
ATOM     22  C   UNL     1      35.317  -7.390 -23.775  0.00  0.00    +0.253 C 
ENDBRANCH   9  21
BRANCH  12  23
ATOM     23  O   UNL     1      33.358  -5.018 -25.155  0.00  0.00    -0.465 OA
ATOM     24  C   UNL     1      33.418  -4.793 -26.562  0.00  0.00    +0.253 C 
ENDBRANCH  12  23
BRANCH  13  25
ATOM     25  O   UNL     1      30.712  -4.541 -24.514  0.00  0.00    -0.468 OA
ATOM     26  C   UNL     1      30.940  -3.642 -23.429  0.00  0.00    +0.253 C 
ENDBRANCH  13  25
BRANCH  14  27
ATOM     27  O   UNL     1      34.505 -13.594 -23.677  0.00  0.00    -0.403 OA
BRANCH  27  28
ATOM     28  P   UNL     1      33.733 -14.970 -24.045  0.00  0.00    +0.528 P 
ATOM     29  O   UNL     1      32.875 -14.913 -25.275  0.00  0.00    -0.216 OA
BRANCH  28  30
ATOM     30  O   UNL     1      32.926 -15.302 -22.682  0.00  0.00    -0.293 OA
ATOM     31  H   UNL     1      33.497 -15.808 -22.083  0.00  0.00    +0.223 HD
ENDBRANCH  28  30
BRANCH  28  32
ATOM     32  O   UNL     1      34.902 -16.087 -24.054  0.00  0.00    -0.293 OA
ATOM     33  H   UNL     1      35.629 -15.800 -23.480  0.00  0.00    +0.223 HD
ENDBRANCH  28  32
ENDBRANCH  27  28
ENDBRANCH  14  27
TORSDOF 8
ENDMDL
MODEL 4
REMARK VINA RESULT:      -3.2     10.990     13.996
REMARK  Name = 9896434
REMARK  8 active torsions:
REMARK  status: ('A' for Active; 'I' for Inactive)
REMARK    1  A    between atoms: C_1  and  N_17
REMARK    2  A    between atoms: C_9  and  O_21
REMARK    3  A    between atoms: C_12  and  O_23
REMARK    4  A    between atoms: C_13  and  O_25
REMARK    5  A    between atoms: C_14  and  O_27
REMARK    6  A    between atoms: O_27  and  P_28
REMARK    7  A    between atoms: P_28  and  O_30
REMARK    8  A    between atoms: P_28  and  O_32
REMARK                            x       y       z     vdW  Elec       q    Type
REMARK                         _______ _______ _______ _____ _____    ______ ____
ROOT
ATOM      1  C   UNL     1      32.721 -13.705 -20.855  0.00  0.00    +0.094 C 
ATOM      2  C   UNL     1      34.102 -14.046 -20.259  0.00  0.00    +0.029 C 
ATOM      3  C   UNL     1      35.249 -14.270 -21.252  0.00  0.00    +0.029 C 
ATOM      4  C   UNL     1      32.797 -12.797 -22.070  0.00  0.00    -0.001 C 
ATOM      5  C   UNL     1      34.868 -15.093 -22.458  0.00  0.00    -0.016 C 
ATOM      6  C   UNL     1      33.385 -13.222 -23.290  0.00  0.00    +0.000 C 
ATOM      7  C   UNL     1      33.989 -14.568 -23.436  0.00  0.00    +0.033 C 
ATOM      8  C   UNL     1      32.252 -11.503 -21.975  0.00  0.00    +0.035 C 
ATOM      9  C   UNL     1      33.677 -15.374 -24.548  0.00  0.00    +0.175 C 
ATOM     10  C   UNL     1      35.403 -16.381 -22.610  0.00  0.00    +0.036 C 
ATOM     11  C   UNL     1      33.402 -12.320 -24.372  0.00  0.00    +0.003 C 
ATOM     12  C   UNL     1      34.217 -16.653 -24.689  0.00  0.00    +0.206 C 
ATOM     13  C   UNL     1      35.078 -17.157 -23.721  0.00  0.00    +0.175 C 
ATOM     14  C   UNL     1      32.282 -10.633 -23.063  0.00  0.00    +0.149 C 
ATOM     15  C   UNL     1      32.856 -11.041 -24.260  0.00  0.00    +0.037 C 
ENDROOT
BRANCH   1  17
ATOM     16  O   UNL     1      33.201 -16.398 -19.879  0.00  0.00    -0.275 OA
ATOM     17  N   UNL     1      31.945 -14.896 -21.137  0.00  0.00    -0.302 N 
ATOM     18  C   UNL     1      32.256 -16.140 -20.621  0.00  0.00    +0.223 C 
ATOM     19  C   UNL     1      31.274 -17.197 -21.050  0.00  0.00    +0.095 C 
ATOM     20  H   UNL     1      31.158 -14.814 -21.723  0.00  0.00    +0.150 HD
ENDBRANCH   1  17
BRANCH   9  21
ATOM     21  O   UNL     1      32.785 -14.954 -25.497  0.00  0.00    -0.468 OA
ATOM     22  C   UNL     1      33.326 -14.526 -26.741  0.00  0.00    +0.253 C 
ENDBRANCH   9  21
BRANCH  12  23
ATOM     23  O   UNL     1      33.891 -17.418 -25.770  0.00  0.00    -0.465 OA
ATOM     24  C   UNL     1      33.246 -18.663 -25.510  0.00  0.00    +0.253 C 
ENDBRANCH  12  23
BRANCH  13  25
ATOM     25  O   UNL     1      35.610 -18.405 -23.843  0.00  0.00    -0.468 OA
ATOM     26  C   UNL     1      35.379 -19.316 -22.770  0.00  0.00    +0.253 C 
ENDBRANCH  13  25
BRANCH  14  27
ATOM     27  O   UNL     1      31.751  -9.385 -22.953  0.00  0.00    -0.403 OA
BRANCH  27  28
ATOM     28  P   UNL     1      32.315  -8.213 -21.987  0.00  0.00    +0.528 P 
ATOM     29  O   UNL     1      32.325  -8.540 -20.522  0.00  0.00    -0.216 OA
BRANCH  28  30
ATOM     30  O   UNL     1      31.387  -6.947 -22.383  0.00  0.00    -0.293 OA
ATOM     31  H   UNL     1      30.835  -6.700 -21.625  0.00  0.00    +0.223 HD
ENDBRANCH  28  30
BRANCH  28  32
ATOM     32  O   UNL     1      33.748  -7.827 -22.629  0.00  0.00    -0.293 OA
ATOM     33  H   UNL     1      34.038  -8.538 -23.224  0.00  0.00    +0.223 HD
ENDBRANCH  28  32
ENDBRANCH  27  28
ENDBRANCH  14  27
TORSDOF 8
ENDMDL
MODEL 5
REMARK VINA RESULT:      -3.2     12.444     15.028
REMARK  Name = 9896434
REMARK  8 active torsions:
REMARK  status: ('A' for Active; 'I' for Inactive)
REMARK    1  A    between atoms: C_1  and  N_17
REMARK    2  A    between atoms: C_9  and  O_21
REMARK    3  A    between atoms: C_12  and  O_23
REMARK    4  A    between atoms: C_13  and  O_25
REMARK    5  A    between atoms: C_14  and  O_27
REMARK    6  A    between atoms: O_27  and  P_28
REMARK    7  A    between atoms: P_28  and  O_30
REMARK    8  A    between atoms: P_28  and  O_32
REMARK                            x       y       z     vdW  Elec       q    Type
REMARK                         _______ _______ _______ _____ _____    ______ ____
ROOT
ATOM      1  C   UNL     1      33.327 -11.146 -25.534  0.00  0.00    +0.094 C 
ATOM      2  C   UNL     1      32.487 -11.987 -26.516  0.00  0.00    +0.029 C 
ATOM      3  C   UNL     1      31.987 -13.347 -26.013  0.00  0.00    +0.029 C 
ATOM      4  C   UNL     1      32.844 -11.237 -24.097  0.00  0.00    -0.001 C 
ATOM      5  C   UNL     1      33.016 -14.132 -25.237  0.00  0.00    -0.016 C 
ATOM      6  C   UNL     1      32.914 -12.446 -23.357  0.00  0.00    +0.000 C 
ATOM      7  C   UNL     1      33.435 -13.698 -23.956  0.00  0.00    +0.033 C 
ATOM      8  C   UNL     1      32.326 -10.079 -23.490  0.00  0.00    +0.035 C 
ATOM      9  C   UNL     1      34.387 -14.476 -23.271  0.00  0.00    +0.175 C 
ATOM     10  C   UNL     1      33.546 -15.307 -25.791  0.00  0.00    +0.036 C 
ATOM     11  C   UNL     1      32.456 -12.439 -22.025  0.00  0.00    +0.003 C 
ATOM     12  C   UNL     1      34.906 -15.644 -23.831  0.00  0.00    +0.206 C 
ATOM     13  C   UNL     1      34.487 -16.059 -25.090  0.00  0.00    +0.175 C 
ATOM     14  C   UNL     1      31.880 -10.102 -22.169  0.00  0.00    +0.149 C 
ATOM     15  C   UNL     1      31.946 -11.281 -21.437  0.00  0.00    +0.037 C 
ENDROOT
BRANCH   1  17
ATOM     16  O   UNL     1      35.482  -9.323 -26.219  0.00  0.00    -0.275 OA
ATOM     17  N   UNL     1      34.740 -11.450 -25.634  0.00  0.00    -0.302 N 
ATOM     18  C   UNL     1      35.694 -10.507 -25.969  0.00  0.00    +0.223 C 
ATOM     19  C   UNL     1      37.085 -11.082 -25.977  0.00  0.00    +0.095 C 
ATOM     20  H   UNL     1      35.035 -12.373 -25.454  0.00  0.00    +0.150 HD
ENDBRANCH   1  17
BRANCH   9  21
ATOM     21  O   UNL     1      34.883 -14.080 -22.058  0.00  0.00    -0.468 OA
ATOM     22  C   UNL     1      34.355 -14.728 -20.907  0.00  0.00    +0.253 C 
ENDBRANCH   9  21
BRANCH  12  23
ATOM     23  O   UNL     1      35.836 -16.375 -23.152  0.00  0.00    -0.465 OA
ATOM     24  C   UNL     1      35.355 -17.472 -22.376  0.00  0.00    +0.253 C 
ENDBRANCH  12  23
BRANCH  13  25
ATOM     25  O   UNL     1      34.987 -17.195 -25.651  0.00  0.00    -0.468 OA
ATOM     26  C   UNL     1      34.273 -18.407 -25.410  0.00  0.00    +0.253 C 
ENDBRANCH  13  25
BRANCH  14  27
ATOM     27  O   UNL     1      31.382  -8.972 -21.598  0.00  0.00    -0.403 OA
BRANCH  27  28
ATOM     28  P   UNL     1      32.270  -7.792 -20.933  0.00  0.00    +0.528 P 
ATOM     29  O   UNL     1      31.575  -6.469 -20.794  0.00  0.00    -0.216 OA
BRANCH  28  30
ATOM     30  O   UNL     1      33.586  -7.762 -21.875  0.00  0.00    -0.293 OA
ATOM     31  H   UNL     1      34.235  -8.403 -21.545  0.00  0.00    +0.223 HD
ENDBRANCH  28  30
BRANCH  28  32
ATOM     32  O   UNL     1      32.824  -8.442 -19.559  0.00  0.00    -0.293 OA
ATOM     33  H   UNL     1      33.279  -9.275 -19.756  0.00  0.00    +0.223 HD
ENDBRANCH  28  32
ENDBRANCH  27  28
ENDBRANCH  14  27
TORSDOF 8
ENDMDL
