MODEL 1
REMARK VINA RESULT:      -8.4      0.000      0.000
REMARK  Name = 2097
REMARK  6 active torsions:
REMARK  status: ('A' for Active; 'I' for Inactive)
REMARK    1  A    between atoms: C_1  and  C_13
REMARK    2  A    between atoms: C_2  and  N_7
REMARK    3  A    between atoms: N_7  and  C_9
REMARK    4  A    between atoms: C_9  and  C_10
REMARK    5  A    between atoms: C_13  and  C_16
REMARK    6  A    between atoms: C_16  and  O_17
REMARK                            x       y       z     vdW  Elec       q    Type
REMARK                         _______ _______ _______ _____ _____    ______ ____
ROOT
ATOM      1  C   UNL     1      34.851 -19.583 -21.080  0.00  0.00    -0.012 C 
ATOM      2  C   UNL     1      33.563 -21.458 -19.477  0.00  0.00    +0.045 C 
ATOM      3  C   UNL     1      35.598 -20.516 -20.360  0.00  0.00    -0.002 C 
ATOM      4  C   UNL     1      33.459 -19.591 -20.995  0.00  0.00    -0.002 C 
ATOM      5  C   UNL     1      34.952 -21.456 -19.556  0.00  0.00    +0.014 C 
ATOM      6  C   UNL     1      32.813 -20.530 -20.192  0.00  0.00    +0.014 C 
ENDROOT
BRANCH   2   7
ATOM      7  N   UNL     1      32.907 -22.413 -18.660  0.00  0.00    -0.329 N 
ATOM      8  H   UNL     1      31.949 -22.574 -18.822  0.00  0.00    +0.147 HD
BRANCH   7   9
ATOM      9  C   UNL     1      33.541 -23.165 -17.605  0.00  0.00    +0.110 C 
BRANCH   9  10
ATOM     10  C   UNL     1      32.629 -23.228 -16.411  0.00  0.00    -0.025 C 
ATOM     11  C   UNL     1      33.261 -23.533 -15.084  0.00  0.00    +0.028 C 
ATOM     12  C   UNL     1      31.312 -22.990 -16.521  0.00  0.00    -0.007 C 
ENDBRANCH   9  10
ENDBRANCH   7   9
ENDBRANCH   2   7
BRANCH   1  13
ATOM     13  C   UNL     1      35.541 -18.580 -21.940  0.00  0.00    +0.121 C 
ATOM     14  C   UNL     1      35.251 -18.740 -23.446  0.00  0.00    +0.016 C 
BRANCH  13  16
ATOM     15  O   UNL     1      35.265 -16.707 -20.396  0.00  0.00    -0.250 OA
ATOM     16  C   UNL     1      35.218 -17.135 -21.542  0.00  0.00    +0.317 C 
BRANCH  16  17
ATOM     17  O   UNL     1      34.856 -16.358 -22.597  0.00  0.00    -0.480 OA
ATOM     18  H   UNL     1      33.952 -16.275 -22.829  0.00  0.00    +0.295 HD
ENDBRANCH  16  17
ENDBRANCH  13  16
ENDBRANCH   1  13
TORSDOF 6
ENDMDL
MODEL 2
REMARK VINA RESULT:      -7.8      1.281      2.212
REMARK  Name = 2097
REMARK  6 active torsions:
REMARK  status: ('A' for Active; 'I' for Inactive)
REMARK    1  A    between atoms: C_1  and  C_13
REMARK    2  A    between atoms: C_2  and  N_7
REMARK    3  A    between atoms: N_7  and  C_9
REMARK    4  A    between atoms: C_9  and  C_10
REMARK    5  A    between atoms: C_13  and  C_16
REMARK    6  A    between atoms: C_16  and  O_17
REMARK                            x       y       z     vdW  Elec       q    Type
REMARK                         _______ _______ _______ _____ _____    ______ ____
ROOT
ATOM      1  C   UNL     1      34.300 -19.387 -20.980  0.00  0.00    -0.012 C 
ATOM      2  C   UNL     1      34.194 -21.663 -19.382  0.00  0.00    +0.045 C 
ATOM      3  C   UNL     1      33.067 -19.898 -20.575  0.00  0.00    -0.002 C 
ATOM      4  C   UNL     1      35.479 -20.018 -20.584  0.00  0.00    -0.002 C 
ATOM      5  C   UNL     1      33.013 -21.039 -19.773  0.00  0.00    +0.014 C 
ATOM      6  C   UNL     1      35.426 -21.159 -19.784  0.00  0.00    +0.014 C 
ENDROOT
BRANCH   2   7
ATOM      7  N   UNL     1      34.139 -22.823 -18.569  0.00  0.00    -0.329 N 
ATOM      8  H   UNL     1      34.848 -23.496 -18.684  0.00  0.00    +0.147 HD
BRANCH   7   9
ATOM      9  C   UNL     1      33.119 -23.088 -17.584  0.00  0.00    +0.110 C 
BRANCH   9  10
ATOM     10  C   UNL     1      33.749 -23.200 -16.223  0.00  0.00    -0.025 C 
ATOM     11  C   UNL     1      32.825 -23.411 -15.058  0.00  0.00    +0.028 C 
ATOM     12  C   UNL     1      35.080 -23.147 -16.059  0.00  0.00    -0.007 C 
ENDBRANCH   9  10
ENDBRANCH   7   9
ENDBRANCH   2   7
BRANCH   1  13
ATOM     13  C   UNL     1      34.357 -18.168 -21.835  0.00  0.00    +0.121 C 
ATOM     14  C   UNL     1      35.057 -16.966 -21.167  0.00  0.00    +0.016 C 
BRANCH  13  16
ATOM     15  O   UNL     1      34.864 -19.428 -23.865  0.00  0.00    -0.250 OA
ATOM     16  C   UNL     1      35.032 -18.422 -23.188  0.00  0.00    +0.317 C 
BRANCH  16  17
ATOM     17  O   UNL     1      35.859 -17.413 -23.570  0.00  0.00    -0.480 OA
ATOM     18  H   UNL     1      36.541 -17.577 -24.191  0.00  0.00    +0.295 HD
ENDBRANCH  16  17
ENDBRANCH  13  16
ENDBRANCH   1  13
TORSDOF 6
ENDMDL
MODEL 3
REMARK VINA RESULT:      -7.7      3.741      5.750
REMARK  Name = 2097
REMARK  6 active torsions:
REMARK  status: ('A' for Active; 'I' for Inactive)
REMARK    1  A    between atoms: C_1  and  C_13
REMARK    2  A    between atoms: C_2  and  N_7
REMARK    3  A    between atoms: N_7  and  C_9
REMARK    4  A    between atoms: C_9  and  C_10
REMARK    5  A    between atoms: C_13  and  C_16
REMARK    6  A    between atoms: C_16  and  O_17
REMARK                            x       y       z     vdW  Elec       q    Type
REMARK                         _______ _______ _______ _____ _____    ______ ____
ROOT
ATOM      1  C   UNL     1      33.630 -15.119 -23.832  0.00  0.00    -0.012 C 
ATOM      2  C   UNL     1      34.748 -16.752 -21.877  0.00  0.00    +0.045 C 
ATOM      3  C   UNL     1      34.659 -15.999 -24.164  0.00  0.00    -0.002 C 
ATOM      4  C   UNL     1      33.162 -15.057 -22.520  0.00  0.00    -0.002 C 
ATOM      5  C   UNL     1      35.219 -16.819 -23.184  0.00  0.00    +0.014 C 
ATOM      6  C   UNL     1      33.722 -15.875 -21.539  0.00  0.00    +0.014 C 
ENDROOT
BRANCH   2   7
ATOM      7  N   UNL     1      35.318 -17.584 -20.881  0.00  0.00    -0.329 N 
ATOM      8  H   UNL     1      35.272 -17.278 -19.946  0.00  0.00    +0.147 HD
BRANCH   7   9
ATOM      9  C   UNL     1      35.963 -18.849 -21.137  0.00  0.00    +0.110 C 
BRANCH   9  10
ATOM     10  C   UNL     1      35.103 -19.968 -20.615  0.00  0.00    -0.025 C 
ATOM     11  C   UNL     1      35.802 -21.091 -19.906  0.00  0.00    +0.028 C 
ATOM     12  C   UNL     1      33.768 -19.948 -20.749  0.00  0.00    -0.007 C 
ENDBRANCH   9  10
ENDBRANCH   7   9
ENDBRANCH   2   7
BRANCH   1  13
ATOM     13  C   UNL     1      33.029 -14.244 -24.879  0.00  0.00    +0.121 C 
ATOM     14  C   UNL     1      33.650 -12.834 -24.949  0.00  0.00    +0.016 C 
BRANCH  13  16
ATOM     15  O   UNL     1      32.632 -15.960 -26.572  0.00  0.00    -0.250 OA
ATOM     16  C   UNL     1      33.094 -14.865 -26.280  0.00  0.00    +0.317 C 
BRANCH  16  17
ATOM     17  O   UNL     1      33.734 -14.076 -27.184  0.00  0.00    -0.480 OA
ATOM     18  H   UNL     1      34.630 -14.246 -27.401  0.00  0.00    +0.295 HD
ENDBRANCH  16  17
ENDBRANCH  13  16
ENDBRANCH   1  13
TORSDOF 6
ENDMDL
MODEL 4
REMARK VINA RESULT:      -7.6      3.482      5.600
REMARK  Name = 2097
REMARK  6 active torsions:
REMARK  status: ('A' for Active; 'I' for Inactive)
REMARK    1  A    between atoms: C_1  and  C_13
REMARK    2  A    between atoms: C_2  and  N_7
REMARK    3  A    between atoms: N_7  and  C_9
REMARK    4  A    between atoms: C_9  and  C_10
REMARK    5  A    between atoms: C_13  and  C_16
REMARK    6  A    between atoms: C_16  and  O_17
REMARK                            x       y       z     vdW  Elec       q    Type
REMARK                         _______ _______ _______ _____ _____    ______ ____
ROOT
ATOM      1  C   UNL     1      33.398 -14.725 -22.615  0.00  0.00    -0.012 C 
ATOM      2  C   UNL     1      34.767 -16.816 -21.391  0.00  0.00    +0.045 C 
ATOM      3  C   UNL     1      34.028 -15.696 -23.393  0.00  0.00    -0.002 C 
ATOM      4  C   UNL     1      33.454 -14.803 -21.224  0.00  0.00    -0.002 C 
ATOM      5  C   UNL     1      34.715 -16.745 -22.779  0.00  0.00    +0.014 C 
ATOM      6  C   UNL     1      34.140 -15.850 -20.610  0.00  0.00    +0.014 C 
ENDROOT
BRANCH   2   7
ATOM      7  N   UNL     1      35.465 -17.880 -20.768  0.00  0.00    -0.329 N 
ATOM      8  H   UNL     1      35.905 -17.697 -19.906  0.00  0.00    +0.147 HD
BRANCH   7   9
ATOM      9  C   UNL     1      35.578 -19.214 -21.305  0.00  0.00    +0.110 C 
BRANCH   9  10
ATOM     10  C   UNL     1      34.685 -20.146 -20.533  0.00  0.00    -0.025 C 
ATOM     11  C   UNL     1      35.356 -21.156 -19.647  0.00  0.00    +0.028 C 
ATOM     12  C   UNL     1      33.348 -20.059 -20.607  0.00  0.00    -0.007 C 
ENDBRANCH   9  10
ENDBRANCH   7   9
ENDBRANCH   2   7
BRANCH   1  13
ATOM     13  C   UNL     1      32.663 -13.606 -23.270  0.00  0.00    +0.121 C 
ATOM     14  C   UNL     1      32.192 -12.509 -22.294  0.00  0.00    +0.016 C 
BRANCH  13  16
ATOM     15  O   UNL     1      33.365 -13.207 -25.576  0.00  0.00    -0.250 OA
ATOM     16  C   UNL     1      33.473 -12.937 -24.386  0.00  0.00    +0.317 C 
BRANCH  16  17
ATOM     17  O   UNL     1      34.348 -12.004 -23.925  0.00  0.00    -0.480 OA
ATOM     18  H   UNL     1      34.032 -11.175 -23.624  0.00  0.00    +0.295 HD
ENDBRANCH  16  17
ENDBRANCH  13  16
ENDBRANCH   1  13
TORSDOF 6
ENDMDL
MODEL 5
REMARK VINA RESULT:      -7.6      2.894      4.756
REMARK  Name = 2097
REMARK  6 active torsions:
REMARK  status: ('A' for Active; 'I' for Inactive)
REMARK    1  A    between atoms: C_1  and  C_13
REMARK    2  A    between atoms: C_2  and  N_7
REMARK    3  A    between atoms: N_7  and  C_9
REMARK    4  A    between atoms: C_9  and  C_10
REMARK    5  A    between atoms: C_13  and  C_16
REMARK    6  A    between atoms: C_16  and  O_17
REMARK                            x       y       z     vdW  Elec       q    Type
REMARK                         _______ _______ _______ _____ _____    ______ ____
ROOT
ATOM      1  C   UNL     1      34.547 -15.816 -23.427  0.00  0.00    -0.012 C 
ATOM      2  C   UNL     1      35.188 -17.771 -21.553  0.00  0.00    +0.045 C 
ATOM      3  C   UNL     1      34.855 -17.110 -23.846  0.00  0.00    -0.002 C 
ATOM      4  C   UNL     1      34.560 -15.503 -22.068  0.00  0.00    -0.002 C 
ATOM      5  C   UNL     1      35.176 -18.090 -22.907  0.00  0.00    +0.014 C 
ATOM      6  C   UNL     1      34.882 -16.482 -21.128  0.00  0.00    +0.014 C 
ENDROOT
BRANCH   2   7
ATOM      7  N   UNL     1      35.515 -18.767 -20.599  0.00  0.00    -0.329 N 
ATOM      8  H   UNL     1      35.758 -18.470 -19.692  0.00  0.00    +0.147 HD
BRANCH   7   9
ATOM      9  C   UNL     1      35.518 -20.186 -20.861  0.00  0.00    +0.110 C 
BRANCH   9  10
ATOM     10  C   UNL     1      34.447 -20.852 -20.042  0.00  0.00    -0.025 C 
ATOM     11  C   UNL     1      33.040 -20.360 -20.229  0.00  0.00    +0.028 C 
ATOM     12  C   UNL     1      34.729 -21.863 -19.206  0.00  0.00    -0.007 C 
ENDBRANCH   9  10
ENDBRANCH   7   9
ENDBRANCH   2   7
BRANCH   1  13
ATOM     13  C   UNL     1      34.202 -14.769 -24.430  0.00  0.00    +0.121 C 
ATOM     14  C   UNL     1      33.374 -15.291 -25.621  0.00  0.00    +0.016 C 
BRANCH  13  16
ATOM     15  O   UNL     1      32.309 -13.626 -23.391  0.00  0.00    -0.250 OA
ATOM     16  C   UNL     1      33.457 -13.579 -23.814  0.00  0.00    +0.317 C 
BRANCH  16  17
ATOM     17  O   UNL     1      34.198 -12.440 -23.788  0.00  0.00    -0.480 OA
ATOM     18  H   UNL     1      35.102 -12.464 -24.036  0.00  0.00    +0.295 HD
ENDBRANCH  16  17
ENDBRANCH  13  16
ENDBRANCH   1  13
TORSDOF 6
ENDMDL
MODEL 6
REMARK VINA RESULT:      -7.5      6.231      8.859
REMARK  Name = 2097
REMARK  6 active torsions:
REMARK  status: ('A' for Active; 'I' for Inactive)
REMARK    1  A    between atoms: C_1  and  C_13
REMARK    2  A    between atoms: C_2  and  N_7
REMARK    3  A    between atoms: N_7  and  C_9
REMARK    4  A    between atoms: C_9  and  C_10
REMARK    5  A    between atoms: C_13  and  C_16
REMARK    6  A    between atoms: C_16  and  O_17
REMARK                            x       y       z     vdW  Elec       q    Type
REMARK                         _______ _______ _______ _____ _____    ______ ____
ROOT
ATOM      1  C   UNL     1      34.028 -15.026 -23.165  0.00  0.00    -0.012 C 
ATOM      2  C   UNL     1      32.244 -13.142 -22.160  0.00  0.00    +0.045 C 
ATOM      3  C   UNL     1      33.870 -13.801 -23.812  0.00  0.00    -0.002 C 
ATOM      4  C   UNL     1      33.291 -15.307 -22.015  0.00  0.00    -0.002 C 
ATOM      5  C   UNL     1      32.976 -12.855 -23.308  0.00  0.00    +0.014 C 
ATOM      6  C   UNL     1      32.397 -14.363 -21.511  0.00  0.00    +0.014 C 
ENDROOT
BRANCH   2   7
ATOM      7  N   UNL     1      31.335 -12.182 -21.648  0.00  0.00    -0.329 N 
ATOM      8  H   UNL     1      30.550 -12.512 -21.155  0.00  0.00    +0.147 HD
BRANCH   7   9
ATOM      9  C   UNL     1      31.478 -10.754 -21.799  0.00  0.00    +0.110 C 
BRANCH   9  10
ATOM     10  C   UNL     1      31.711 -10.126 -20.452  0.00  0.00    -0.025 C 
ATOM     11  C   UNL     1      31.372 -10.954 -19.245  0.00  0.00    +0.028 C 
ATOM     12  C   UNL     1      32.229  -8.894 -20.332  0.00  0.00    -0.007 C 
ENDBRANCH   9  10
ENDBRANCH   7   9
ENDBRANCH   2   7
BRANCH   1  13
ATOM     13  C   UNL     1      34.984 -16.036 -23.703  0.00  0.00    +0.121 C 
ATOM     14  C   UNL     1      35.401 -17.110 -22.679  0.00  0.00    +0.016 C 
BRANCH  13  16
ATOM     15  O   UNL     1      34.200 -16.186 -26.012  0.00  0.00    -0.250 OA
ATOM     16  C   UNL     1      34.455 -16.747 -24.954  0.00  0.00    +0.317 C 
BRANCH  16  17
ATOM     17  O   UNL     1      34.282 -18.083 -24.775  0.00  0.00    -0.480 OA
ATOM     18  H   UNL     1      34.890 -18.688 -25.154  0.00  0.00    +0.295 HD
ENDBRANCH  16  17
ENDBRANCH  13  16
ENDBRANCH   1  13
TORSDOF 6
ENDMDL
MODEL 7
REMARK VINA RESULT:      -7.5      3.718      7.237
REMARK  Name = 2097
REMARK  6 active torsions:
REMARK  status: ('A' for Active; 'I' for Inactive)
REMARK    1  A    between atoms: C_1  and  C_13
REMARK    2  A    between atoms: C_2  and  N_7
REMARK    3  A    between atoms: N_7  and  C_9
REMARK    4  A    between atoms: C_9  and  C_10
REMARK    5  A    between atoms: C_13  and  C_16
REMARK    6  A    between atoms: C_16  and  O_17
REMARK                            x       y       z     vdW  Elec       q    Type
REMARK                         _______ _______ _______ _____ _____    ______ ____
ROOT
ATOM      1  C   UNL     1      34.953 -19.247 -21.687  0.00  0.00    -0.012 C 
ATOM      2  C   UNL     1      34.865 -16.849 -23.096  0.00  0.00    +0.045 C 
ATOM      3  C   UNL     1      35.020 -18.034 -21.003  0.00  0.00    -0.002 C 
ATOM      4  C   UNL     1      34.843 -19.258 -23.077  0.00  0.00    -0.002 C 
ATOM      5  C   UNL     1      34.975 -16.831 -21.709  0.00  0.00    +0.014 C 
ATOM      6  C   UNL     1      34.799 -18.057 -23.784  0.00  0.00    +0.014 C 
ENDROOT
BRANCH   2   7
ATOM      7  N   UNL     1      34.820 -15.628 -23.813  0.00  0.00    -0.329 N 
ATOM      8  H   UNL     1      35.671 -15.159 -23.972  0.00  0.00    +0.147 HD
BRANCH   7   9
ATOM      9  C   UNL     1      33.617 -15.021 -24.328  0.00  0.00    +0.110 C 
BRANCH   9  10
ATOM     10  C   UNL     1      33.282 -13.800 -23.516  0.00  0.00    -0.025 C 
ATOM     11  C   UNL     1      32.509 -14.015 -22.246  0.00  0.00    +0.028 C 
ATOM     12  C   UNL     1      33.683 -12.575 -23.891  0.00  0.00    -0.007 C 
ENDBRANCH   9  10
ENDBRANCH   7   9
ENDBRANCH   2   7
BRANCH   1  13
ATOM     13  C   UNL     1      35.000 -20.532 -20.933  0.00  0.00    +0.121 C 
ATOM     14  C   UNL     1      36.194 -20.647 -19.963  0.00  0.00    +0.016 C 
BRANCH  13  16
ATOM     15  O   UNL     1      32.614 -20.357 -20.439  0.00  0.00    -0.250 OA
ATOM     16  C   UNL     1      33.714 -20.804 -20.142  0.00  0.00    +0.317 C 
BRANCH  16  17
ATOM     17  O   UNL     1      33.913 -21.594 -19.054  0.00  0.00    -0.480 OA
ATOM     18  H   UNL     1      34.437 -21.284 -18.341  0.00  0.00    +0.295 HD
ENDBRANCH  16  17
ENDBRANCH  13  16
ENDBRANCH   1  13
TORSDOF 6
ENDMDL
MODEL 8
REMARK VINA RESULT:      -7.5      4.172      7.042
REMARK  Name = 2097
REMARK  6 active torsions:
REMARK  status: ('A' for Active; 'I' for Inactive)
REMARK    1  A    between atoms: C_1  and  C_13
REMARK    2  A    between atoms: C_2  and  N_7
REMARK    3  A    between atoms: N_7  and  C_9
REMARK    4  A    between atoms: C_9  and  C_10
REMARK    5  A    between atoms: C_13  and  C_16
REMARK    6  A    between atoms: C_16  and  O_17
REMARK                            x       y       z     vdW  Elec       q    Type
REMARK                         _______ _______ _______ _____ _____    ______ ____
ROOT
ATOM      1  C   UNL     1      35.706 -22.734 -16.376  0.00  0.00    -0.012 C 
ATOM      2  C   UNL     1      35.609 -21.757 -18.980  0.00  0.00    +0.045 C 
ATOM      3  C   UNL     1      36.803 -22.057 -16.908  0.00  0.00    -0.002 C 
ATOM      4  C   UNL     1      34.561 -22.922 -17.149  0.00  0.00    -0.002 C 
ATOM      5  C   UNL     1      36.754 -21.566 -18.213  0.00  0.00    +0.014 C 
ATOM      6  C   UNL     1      34.512 -22.432 -18.454  0.00  0.00    +0.014 C 
ENDROOT
BRANCH   2   7
ATOM      7  N   UNL     1      35.560 -21.260 -20.306  0.00  0.00    -0.329 N 
ATOM      8  H   UNL     1      35.518 -21.915 -21.040  0.00  0.00    +0.147 HD
BRANCH   7   9
ATOM      9  C   UNL     1      35.567 -19.861 -20.660  0.00  0.00    +0.110 C 
BRANCH   9  10
ATOM     10  C   UNL     1      34.343 -19.540 -21.472  0.00  0.00    -0.025 C 
ATOM     11  C   UNL     1      33.010 -19.778 -20.822  0.00  0.00    +0.028 C 
ATOM     12  C   UNL     1      34.436 -19.033 -22.711  0.00  0.00    -0.007 C 
ENDBRANCH   9  10
ENDBRANCH   7   9
ENDBRANCH   2   7
BRANCH   1  13
ATOM     13  C   UNL     1      35.757 -23.257 -14.981  0.00  0.00    +0.121 C 
ATOM     14  C   UNL     1      34.521 -24.086 -14.577  0.00  0.00    +0.016 C 
BRANCH  13  16
ATOM     15  O   UNL     1      37.887 -23.792 -13.912  0.00  0.00    -0.250 OA
ATOM     16  C   UNL     1      37.008 -24.099 -14.707  0.00  0.00    +0.317 C 
BRANCH  16  17
ATOM     17  O   UNL     1      37.061 -25.235 -15.452  0.00  0.00    -0.480 OA
ATOM     18  H   UNL     1      37.818 -25.786 -15.412  0.00  0.00    +0.295 HD
ENDBRANCH  16  17
ENDBRANCH  13  16
ENDBRANCH   1  13
TORSDOF 6
ENDMDL
MODEL 9
REMARK VINA RESULT:      -7.4      5.214      8.878
REMARK  Name = 2097
REMARK  6 active torsions:
REMARK  status: ('A' for Active; 'I' for Inactive)
REMARK    1  A    between atoms: C_1  and  C_13
REMARK    2  A    between atoms: C_2  and  N_7
REMARK    3  A    between atoms: N_7  and  C_9
REMARK    4  A    between atoms: C_9  and  C_10
REMARK    5  A    between atoms: C_13  and  C_16
REMARK    6  A    between atoms: C_16  and  O_17
REMARK                            x       y       z     vdW  Elec       q    Type
REMARK                         _______ _______ _______ _____ _____    ______ ____
ROOT
ATOM      1  C   UNL     1      34.617 -16.903 -22.524  0.00  0.00    -0.012 C 
ATOM      2  C   UNL     1      34.221 -14.210 -23.103  0.00  0.00    +0.045 C 
ATOM      3  C   UNL     1      34.617 -15.961 -21.495  0.00  0.00    -0.002 C 
ATOM      4  C   UNL     1      34.420 -16.494 -23.843  0.00  0.00    -0.002 C 
ATOM      5  C   UNL     1      34.417 -14.611 -21.785  0.00  0.00    +0.014 C 
ATOM      6  C   UNL     1      34.222 -15.144 -24.133  0.00  0.00    +0.014 C 
ENDROOT
BRANCH   2   7
ATOM      7  N   UNL     1      34.020 -12.838 -23.397  0.00  0.00    -0.329 N 
ATOM      8  H   UNL     1      34.025 -12.203 -22.645  0.00  0.00    +0.147 HD
BRANCH   7   9
ATOM      9  C   UNL     1      33.808 -12.304 -24.720  0.00  0.00    +0.110 C 
BRANCH   9  10
ATOM     10  C   UNL     1      34.308 -10.887 -24.778  0.00  0.00    -0.025 C 
ATOM     11  C   UNL     1      33.744  -9.923 -23.775  0.00  0.00    +0.028 C 
ATOM     12  C   UNL     1      35.240 -10.507 -25.666  0.00  0.00    -0.007 C 
ENDBRANCH   9  10
ENDBRANCH   7   9
ENDBRANCH   2   7
BRANCH   1  13
ATOM     13  C   UNL     1      34.828 -18.345 -22.215  0.00  0.00    +0.121 C 
ATOM     14  C   UNL     1      34.737 -19.270 -23.446  0.00  0.00    +0.016 C 
BRANCH  13  16
ATOM     15  O   UNL     1      36.272 -19.025 -20.365  0.00  0.00    -0.250 OA
ATOM     16  C   UNL     1      36.164 -18.613 -21.513  0.00  0.00    +0.317 C 
BRANCH  16  17
ATOM     17  O   UNL     1      37.242 -18.337 -22.294  0.00  0.00    -0.480 OA
ATOM     18  H   UNL     1      37.553 -17.456 -22.367  0.00  0.00    +0.295 HD
ENDBRANCH  16  17
ENDBRANCH  13  16
ENDBRANCH   1  13
TORSDOF 6
ENDMDL
