MODEL 1
REMARK VINA RESULT:     -10.0      0.000      0.000
REMARK  Name = 11210478
REMARK  5 active torsions:
REMARK  status: ('A' for Active; 'I' for Inactive)
REMARK    1  A    between atoms: N_2  and  C_5
REMARK    2  A    between atoms: C_3  and  C_13
REMARK    3  A    between atoms: C_5  and  C_7
REMARK    4  A    between atoms: C_13  and  C_23
REMARK    5  A    between atoms: C_14  and  C_17
REMARK                            x       y       z     vdW  Elec       q    Type
REMARK                         _______ _______ _______ _____ _____    ______ ____
ROOT
ATOM      1  O   UNL     1      35.366 -18.597 -24.408  0.00  0.00    -0.269 OA
ATOM      2  N   UNL     1      35.281 -18.109 -22.152  0.00  0.00    -0.298 N 
ATOM      3  C   UNL     1      35.058 -17.835 -23.492  0.00  0.00    +0.256 C 
ATOM      4  H   UNL     1      35.004 -17.443 -21.481  0.00  0.00    +0.150 HD
ENDROOT
BRANCH   2   5
ATOM      5  C   UNL     1      35.905 -19.333 -21.699  0.00  0.00    +0.094 C 
ATOM      6  C   UNL     1      37.241 -19.037 -21.022  0.00  0.00    +0.026 C 
BRANCH   5   7
ATOM      7  C   UNL     1      34.971 -20.130 -20.813  0.00  0.00    -0.005 C 
ATOM      8  C   UNL     1      35.487 -21.153 -20.037  0.00  0.00    -0.003 C 
ATOM      9  C   UNL     1      33.623 -19.818 -20.799  0.00  0.00    -0.003 C 
ATOM     10  C   UNL     1      34.628 -21.888 -19.221  0.00  0.00    -0.000 C 
ATOM     11  C   UNL     1      32.763 -20.552 -19.983  0.00  0.00    -0.000 C 
ATOM     12  C   UNL     1      33.266 -21.588 -19.193  0.00  0.00    -0.000 C 
ENDBRANCH   5   7
ENDBRANCH   2   5
BRANCH   3  13
ATOM     13  C   UNL     1      34.391 -16.509 -23.755  0.00  0.00    +0.124 C 
ATOM     14  C   UNL     1      34.211 -15.702 -22.691  0.00  0.00    +0.047 C 
BRANCH  14  17
ATOM     15 BR   UNL     1      34.221 -11.036 -24.899  0.00  0.00    -0.018 Br
ATOM     16  N   UNL     1      34.098 -13.513 -23.617  0.00  0.00    -0.399 NA
ATOM     17  C   UNL     1      33.581 -14.372 -22.723  0.00  0.00    +0.132 C 
ATOM     18  C   UNL     1      32.539 -14.098 -21.865  0.00  0.00    +0.028 C 
ATOM     19  C   UNL     1      31.976 -12.828 -21.931  0.00  0.00    -0.015 C 
ATOM     20  C   UNL     1      32.474 -11.900 -22.839  0.00  0.00    +0.092 C 
ATOM     21  C   UNL     1      33.526 -12.288 -23.652  0.00  0.00    +0.147 C 
ENDBRANCH  14  17
BRANCH  13  23
ATOM     22  N   UNL     1      33.598 -15.835 -26.124  0.00  0.00    -0.191 NA
ATOM     23  C   UNL     1      33.955 -16.139 -25.062  0.00  0.00    +0.105 C 
ENDBRANCH  13  23
ENDBRANCH   3  13
TORSDOF 5
ENDMDL
MODEL 2
REMARK VINA RESULT:      -9.7      1.526      2.088
REMARK  Name = 11210478
REMARK  5 active torsions:
REMARK  status: ('A' for Active; 'I' for Inactive)
REMARK    1  A    between atoms: N_2  and  C_5
REMARK    2  A    between atoms: C_3  and  C_13
REMARK    3  A    between atoms: C_5  and  C_7
REMARK    4  A    between atoms: C_13  and  C_23
REMARK    5  A    between atoms: C_14  and  C_17
REMARK                            x       y       z     vdW  Elec       q    Type
REMARK                         _______ _______ _______ _____ _____    ______ ____
ROOT
ATOM      1  O   UNL     1      34.786 -17.903 -25.179  0.00  0.00    -0.269 OA
ATOM      2  N   UNL     1      35.042 -17.423 -22.935  0.00  0.00    -0.298 N 
ATOM      3  C   UNL     1      34.653 -17.129 -24.232  0.00  0.00    +0.256 C 
ATOM      4  H   UNL     1      34.901 -16.746 -22.234  0.00  0.00    +0.150 HD
ENDROOT
BRANCH   2   5
ATOM      5  C   UNL     1      35.650 -18.684 -22.570  0.00  0.00    +0.094 C 
ATOM      6  C   UNL     1      37.078 -18.468 -22.073  0.00  0.00    +0.026 C 
BRANCH   5   7
ATOM      7  C   UNL     1      34.797 -19.436 -21.571  0.00  0.00    -0.005 C 
ATOM      8  C   UNL     1      33.439 -19.176 -21.513  0.00  0.00    -0.003 C 
ATOM      9  C   UNL     1      35.393 -20.366 -20.738  0.00  0.00    -0.003 C 
ATOM     10  C   UNL     1      32.652 -19.868 -20.592  0.00  0.00    -0.000 C 
ATOM     11  C   UNL     1      34.607 -21.059 -19.817  0.00  0.00    -0.000 C 
ATOM     12  C   UNL     1      33.236 -20.809 -19.745  0.00  0.00    -0.000 C 
ENDBRANCH   5   7
ENDBRANCH   2   5
BRANCH   3  13
ATOM     13  C   UNL     1      34.034 -15.765 -24.403  0.00  0.00    +0.124 C 
ATOM     14  C   UNL     1      34.160 -14.911 -23.369  0.00  0.00    +0.047 C 
BRANCH  14  17
ATOM     15 BR   UNL     1      31.030 -11.630 -20.900  0.00  0.00    -0.018 Br
ATOM     16  N   UNL     1      32.760 -13.290 -22.332  0.00  0.00    -0.399 NA
ATOM     17  C   UNL     1      33.632 -13.538 -23.324  0.00  0.00    +0.132 C 
ATOM     18  C   UNL     1      34.045 -12.624 -24.268  0.00  0.00    +0.028 C 
ATOM     19  C   UNL     1      33.518 -11.340 -24.186  0.00  0.00    -0.015 C 
ATOM     20  C   UNL     1      32.611 -11.031 -23.179  0.00  0.00    +0.092 C 
ATOM     21  C   UNL     1      32.267 -12.032 -22.284  0.00  0.00    +0.147 C 
ENDBRANCH  14  17
BRANCH  13  23
ATOM     22  N   UNL     1      32.766 -15.118 -26.563  0.00  0.00    -0.191 NA
ATOM     23  C   UNL     1      33.333 -15.408 -25.593  0.00  0.00    +0.105 C 
ENDBRANCH  13  23
ENDBRANCH   3  13
TORSDOF 5
ENDMDL
MODEL 3
REMARK VINA RESULT:      -9.7      1.809      2.606
REMARK  Name = 11210478
REMARK  5 active torsions:
REMARK  status: ('A' for Active; 'I' for Inactive)
REMARK    1  A    between atoms: N_2  and  C_5
REMARK    2  A    between atoms: C_3  and  C_13
REMARK    3  A    between atoms: C_5  and  C_7
REMARK    4  A    between atoms: C_13  and  C_23
REMARK    5  A    between atoms: C_14  and  C_17
REMARK                            x       y       z     vdW  Elec       q    Type
REMARK                         _______ _______ _______ _____ _____    ______ ____
ROOT
ATOM      1  O   UNL     1      34.635 -17.236 -24.046  0.00  0.00    -0.269 OA
ATOM      2  N   UNL     1      35.351 -17.482 -21.865  0.00  0.00    -0.298 N 
ATOM      3  C   UNL     1      34.807 -16.769 -22.921  0.00  0.00    +0.256 C 
ATOM      4  H   UNL     1      35.456 -17.032 -20.995  0.00  0.00    +0.150 HD
ENDROOT
BRANCH   2   5
ATOM      5  C   UNL     1      35.774 -18.860 -21.989  0.00  0.00    +0.094 C 
ATOM      6  C   UNL     1      37.277 -18.985 -21.751  0.00  0.00    +0.026 C 
BRANCH   5   7
ATOM      7  C   UNL     1      34.967 -19.765 -21.083  0.00  0.00    -0.005 C 
ATOM      8  C   UNL     1      33.593 -19.612 -21.027  0.00  0.00    -0.003 C 
ATOM      9  C   UNL     1      35.621 -20.726 -20.332  0.00  0.00    -0.003 C 
ATOM     10  C   UNL     1      32.849 -20.445 -20.192  0.00  0.00    -0.000 C 
ATOM     11  C   UNL     1      34.877 -21.560 -19.497  0.00  0.00    -0.000 C 
ATOM     12  C   UNL     1      33.490 -21.419 -19.427  0.00  0.00    -0.000 C 
ENDBRANCH   5   7
ENDBRANCH   2   5
BRANCH   3  13
ATOM     13  C   UNL     1      34.426 -15.350 -22.584  0.00  0.00    +0.124 C 
ATOM     14  C   UNL     1      33.893 -14.615 -23.580  0.00  0.00    +0.047 C 
BRANCH  14  17
ATOM     15 BR   UNL     1      30.824 -11.293 -21.092  0.00  0.00    -0.018 Br
ATOM     16  N   UNL     1      32.535 -12.972 -22.523  0.00  0.00    -0.399 NA
ATOM     17  C   UNL     1      33.457 -13.214 -23.471  0.00  0.00    +0.132 C 
ATOM     18  C   UNL     1      33.998 -12.270 -24.315  0.00  0.00    +0.028 C 
ATOM     19  C   UNL     1      33.554 -10.960 -24.174  0.00  0.00    -0.015 C 
ATOM     20  C   UNL     1      32.601 -10.655 -23.210  0.00  0.00    +0.092 C 
ATOM     21  C   UNL     1      32.127 -11.688 -22.416  0.00  0.00    +0.147 C 
ENDBRANCH  14  17
BRANCH  13  23
ATOM     22  N   UNL     1      34.815 -14.371 -20.221  0.00  0.00    -0.191 NA
ATOM     23  C   UNL     1      34.640 -14.808 -21.282  0.00  0.00    +0.105 C 
ENDBRANCH  13  23
ENDBRANCH   3  13
TORSDOF 5
ENDMDL
MODEL 4
REMARK VINA RESULT:      -9.5      1.160      1.805
REMARK  Name = 11210478
REMARK  5 active torsions:
REMARK  status: ('A' for Active; 'I' for Inactive)
REMARK    1  A    between atoms: N_2  and  C_5
REMARK    2  A    between atoms: C_3  and  C_13
REMARK    3  A    between atoms: C_5  and  C_7
REMARK    4  A    between atoms: C_13  and  C_23
REMARK    5  A    between atoms: C_14  and  C_17
REMARK                            x       y       z     vdW  Elec       q    Type
REMARK                         _______ _______ _______ _____ _____    ______ ____
ROOT
ATOM      1  O   UNL     1      34.686 -17.738 -23.624  0.00  0.00    -0.269 OA
ATOM      2  N   UNL     1      35.416 -17.869 -21.437  0.00  0.00    -0.298 N 
ATOM      3  C   UNL     1      34.854 -17.217 -22.522  0.00  0.00    +0.256 C 
ATOM      4  H   UNL     1      35.516 -17.378 -20.589  0.00  0.00    +0.150 HD
ENDROOT
BRANCH   2   5
ATOM      5  C   UNL     1      35.865 -19.243 -21.500  0.00  0.00    +0.094 C 
ATOM      6  C   UNL     1      37.341 -19.345 -21.121  0.00  0.00    +0.026 C 
BRANCH   5   7
ATOM      7  C   UNL     1      34.989 -20.146 -20.657  0.00  0.00    -0.005 C 
ATOM      8  C   UNL     1      35.576 -21.155 -19.914  0.00  0.00    -0.003 C 
ATOM      9  C   UNL     1      33.620 -19.943 -20.649  0.00  0.00    -0.003 C 
ATOM     10  C   UNL     1      34.770 -21.987 -19.139  0.00  0.00    -0.000 C 
ATOM     11  C   UNL     1      32.813 -20.774 -19.873  0.00  0.00    -0.000 C 
ATOM     12  C   UNL     1      33.388 -21.797 -19.118  0.00  0.00    -0.000 C 
ENDBRANCH   5   7
ENDBRANCH   2   5
BRANCH   3  13
ATOM     13  C   UNL     1      34.447 -15.791 -22.249  0.00  0.00    +0.124 C 
ATOM     14  C   UNL     1      33.847 -15.131 -23.259  0.00  0.00    +0.047 C 
BRANCH  14  17
ATOM     15 BR   UNL     1      34.659 -10.297 -24.881  0.00  0.00    -0.018 Br
ATOM     16  N   UNL     1      34.097 -12.860 -23.926  0.00  0.00    -0.399 NA
ATOM     17  C   UNL     1      33.375 -13.738 -23.209  0.00  0.00    +0.132 C 
ATOM     18  C   UNL     1      32.263 -13.428 -22.458  0.00  0.00    +0.028 C 
ATOM     19  C   UNL     1      31.855 -12.099 -22.440  0.00  0.00    -0.015 C 
ATOM     20  C   UNL     1      32.568 -11.150 -23.164  0.00  0.00    +0.092 C 
ATOM     21  C   UNL     1      33.672 -11.578 -23.885  0.00  0.00    +0.147 C 
ENDBRANCH  14  17
BRANCH  13  23
ATOM     22  N   UNL     1      34.914 -14.665 -19.967  0.00  0.00    -0.191 NA
ATOM     23  C   UNL     1      34.704 -15.168 -20.992  0.00  0.00    +0.105 C 
ENDBRANCH  13  23
ENDBRANCH   3  13
TORSDOF 5
ENDMDL
MODEL 5
REMARK VINA RESULT:      -9.4      2.984      7.810
REMARK  Name = 11210478
REMARK  5 active torsions:
REMARK  status: ('A' for Active; 'I' for Inactive)
REMARK    1  A    between atoms: N_2  and  C_5
REMARK    2  A    between atoms: C_3  and  C_13
REMARK    3  A    between atoms: C_5  and  C_7
REMARK    4  A    between atoms: C_13  and  C_23
REMARK    5  A    between atoms: C_14  and  C_17
REMARK                            x       y       z     vdW  Elec       q    Type
REMARK                         _______ _______ _______ _____ _____    ______ ____
ROOT
ATOM      1  O   UNL     1      35.289 -16.417 -24.507  0.00  0.00    -0.269 OA
ATOM      2  N   UNL     1      33.832 -14.963 -23.459  0.00  0.00    -0.298 N 
ATOM      3  C   UNL     1      34.600 -16.114 -23.533  0.00  0.00    +0.256 C 
ATOM      4  H   UNL     1      33.309 -14.796 -22.642  0.00  0.00    +0.150 HD
ENDROOT
BRANCH   2   5
ATOM      5  C   UNL     1      33.770 -13.996 -24.534  0.00  0.00    +0.094 C 
ATOM      6  C   UNL     1      32.836 -14.484 -25.640  0.00  0.00    +0.026 C 
BRANCH   5   7
ATOM      7  C   UNL     1      33.389 -12.625 -24.018  0.00  0.00    -0.005 C 
ATOM      8  C   UNL     1      33.930 -11.503 -24.621  0.00  0.00    -0.003 C 
ATOM      9  C   UNL     1      32.509 -12.523 -22.955  0.00  0.00    -0.003 C 
ATOM     10  C   UNL     1      33.581 -10.239 -24.145  0.00  0.00    -0.000 C 
ATOM     11  C   UNL     1      32.158 -11.260 -22.480  0.00  0.00    -0.000 C 
ATOM     12  C   UNL     1      32.695 -10.118 -23.075  0.00  0.00    -0.000 C 
ENDBRANCH   5   7
ENDBRANCH   2   5
BRANCH   3  13
ATOM     13  C   UNL     1      34.534 -16.987 -22.307  0.00  0.00    +0.124 C 
ATOM     14  C   UNL     1      34.248 -18.289 -22.506  0.00  0.00    +0.047 C 
BRANCH  14  17
ATOM     15 BR   UNL     1      36.819 -21.476 -19.363  0.00  0.00    -0.018 Br
ATOM     16  N   UNL     1      35.297 -19.805 -21.002  0.00  0.00    -0.399 NA
ATOM     17  C   UNL     1      34.132 -19.311 -21.453  0.00  0.00    +0.132 C 
ATOM     18  C   UNL     1      32.883 -19.686 -21.012  0.00  0.00    +0.028 C 
ATOM     19  C   UNL     1      32.824 -20.656 -20.016  0.00  0.00    -0.015 C 
ATOM     20  C   UNL     1      34.000 -21.201 -19.514  0.00  0.00    +0.092 C 
ATOM     21  C   UNL     1      35.201 -20.745 -20.035  0.00  0.00    +0.147 C 
ENDBRANCH  14  17
BRANCH  13  23
ATOM     22  N   UNL     1      34.910 -16.021 -19.936  0.00  0.00    -0.191 NA
ATOM     23  C   UNL     1      34.743 -16.456 -20.999  0.00  0.00    +0.105 C 
ENDBRANCH  13  23
ENDBRANCH   3  13
TORSDOF 5
ENDMDL
MODEL 6
REMARK VINA RESULT:      -9.4      3.078      5.191
REMARK  Name = 11210478
REMARK  5 active torsions:
REMARK  status: ('A' for Active; 'I' for Inactive)
REMARK    1  A    between atoms: N_2  and  C_5
REMARK    2  A    between atoms: C_3  and  C_13
REMARK    3  A    between atoms: C_5  and  C_7
REMARK    4  A    between atoms: C_13  and  C_23
REMARK    5  A    between atoms: C_14  and  C_17
REMARK                            x       y       z     vdW  Elec       q    Type
REMARK                         _______ _______ _______ _____ _____    ______ ____
ROOT
ATOM      1  O   UNL     1      36.822 -21.662 -19.864  0.00  0.00    -0.269 OA
ATOM      2  N   UNL     1      34.906 -21.653 -18.575  0.00  0.00    -0.298 N 
ATOM      3  C   UNL     1      35.683 -21.250 -19.650  0.00  0.00    +0.256 C 
ATOM      4  H   UNL     1      34.003 -21.273 -18.476  0.00  0.00    +0.150 HD
ENDROOT
BRANCH   2   5
ATOM      5  C   UNL     1      35.370 -22.608 -17.593  0.00  0.00    +0.094 C 
ATOM      6  C   UNL     1      36.573 -22.055 -16.832  0.00  0.00    +0.026 C 
BRANCH   5   7
ATOM      7  C   UNL     1      34.248 -23.035 -16.670  0.00  0.00    -0.005 C 
ATOM      8  C   UNL     1      34.543 -23.373 -15.361  0.00  0.00    -0.003 C 
ATOM      9  C   UNL     1      32.953 -23.077 -17.155  0.00  0.00    -0.003 C 
ATOM     10  C   UNL     1      33.511 -23.767 -14.510  0.00  0.00    -0.000 C 
ATOM     11  C   UNL     1      31.920 -23.470 -16.305  0.00  0.00    -0.000 C 
ATOM     12  C   UNL     1      32.199 -23.816 -14.982  0.00  0.00    -0.000 C 
ENDBRANCH   5   7
ENDBRANCH   2   5
BRANCH   3  13
ATOM     13  C   UNL     1      35.016 -20.253 -20.562  0.00  0.00    +0.124 C 
ATOM     14  C   UNL     1      35.828 -19.434 -21.260  0.00  0.00    +0.047 C 
BRANCH  14  17
ATOM     15 BR   UNL     1      34.204 -14.559 -21.757  0.00  0.00    -0.018 Br
ATOM     16  N   UNL     1      35.071 -17.211 -21.641  0.00  0.00    -0.399 NA
ATOM     17  C   UNL     1      35.388 -18.391 -22.200  0.00  0.00    +0.132 C 
ATOM     18  C   UNL     1      35.328 -18.677 -23.545  0.00  0.00    +0.028 C 
ATOM     19  C   UNL     1      34.906 -17.659 -24.395  0.00  0.00    -0.015 C 
ATOM     20  C   UNL     1      34.565 -16.419 -23.869  0.00  0.00    +0.092 C 
ATOM     21  C   UNL     1      34.664 -16.246 -22.497  0.00  0.00    +0.147 C 
ENDBRANCH  14  17
BRANCH  13  23
ATOM     22  N   UNL     1      32.439 -20.102 -20.746  0.00  0.00    -0.191 NA
ATOM     23  C   UNL     1      33.595 -20.167 -20.663  0.00  0.00    +0.105 C 
ENDBRANCH  13  23
ENDBRANCH   3  13
TORSDOF 5
ENDMDL
MODEL 7
REMARK VINA RESULT:      -9.4      3.055      7.235
REMARK  Name = 11210478
REMARK  5 active torsions:
REMARK  status: ('A' for Active; 'I' for Inactive)
REMARK    1  A    between atoms: N_2  and  C_5
REMARK    2  A    between atoms: C_3  and  C_13
REMARK    3  A    between atoms: C_5  and  C_7
REMARK    4  A    between atoms: C_13  and  C_23
REMARK    5  A    between atoms: C_14  and  C_17
REMARK                            x       y       z     vdW  Elec       q    Type
REMARK                         _______ _______ _______ _____ _____    ______ ____
ROOT
ATOM      1  O   UNL     1      35.754 -15.871 -23.960  0.00  0.00    -0.269 OA
ATOM      2  N   UNL     1      33.597 -15.476 -23.235  0.00  0.00    -0.298 N 
ATOM      3  C   UNL     1      34.718 -16.267 -23.427  0.00  0.00    +0.256 C 
ATOM      4  H   UNL     1      32.808 -15.872 -22.800  0.00  0.00    +0.150 HD
ENDROOT
BRANCH   2   5
ATOM      5  C   UNL     1      33.540 -14.091 -23.651  0.00  0.00    +0.094 C 
ATOM      6  C   UNL     1      32.918 -13.972 -25.040  0.00  0.00    +0.026 C 
BRANCH   5   7
ATOM      7  C   UNL     1      32.828 -13.239 -22.622  0.00  0.00    -0.005 C 
ATOM      8  C   UNL     1      32.597 -13.756 -21.360  0.00  0.00    -0.003 C 
ATOM      9  C   UNL     1      32.423 -11.961 -22.967  0.00  0.00    -0.003 C 
ATOM     10  C   UNL     1      31.940 -12.972 -20.412  0.00  0.00    -0.000 C 
ATOM     11  C   UNL     1      31.766 -11.176 -22.020  0.00  0.00    -0.000 C 
ATOM     12  C   UNL     1      31.524 -11.682 -20.741  0.00  0.00    -0.000 C 
ENDBRANCH   5   7
ENDBRANCH   2   5
BRANCH   3  13
ATOM     13  C   UNL     1      34.579 -17.679 -22.919  0.00  0.00    +0.124 C 
ATOM     14  C   UNL     1      34.315 -17.826 -21.605  0.00  0.00    +0.047 C 
BRANCH  14  17
ATOM     15 BR   UNL     1      36.678 -21.601 -18.995  0.00  0.00    -0.018 Br
ATOM     16  N   UNL     1      35.267 -19.635 -20.388  0.00  0.00    -0.399 NA
ATOM     17  C   UNL     1      34.144 -19.108 -20.905  0.00  0.00    +0.132 C 
ATOM     18  C   UNL     1      32.890 -19.672 -20.825  0.00  0.00    +0.028 C 
ATOM     19  C   UNL     1      32.778 -20.885 -20.154  0.00  0.00    -0.015 C 
ATOM     20  C   UNL     1      33.909 -21.474 -19.601  0.00  0.00    +0.092 C 
ATOM     21  C   UNL     1      35.120 -20.814 -19.744  0.00  0.00    +0.147 C 
ENDBRANCH  14  17
BRANCH  13  23
ATOM     22  N   UNL     1      34.866 -19.718 -24.486  0.00  0.00    -0.191 NA
ATOM     23  C   UNL     1      34.739 -18.803 -23.783  0.00  0.00    +0.105 C 
ENDBRANCH  13  23
ENDBRANCH   3  13
TORSDOF 5
ENDMDL
MODEL 8
REMARK VINA RESULT:      -9.3      3.730      6.295
REMARK  Name = 11210478
REMARK  5 active torsions:
REMARK  status: ('A' for Active; 'I' for Inactive)
REMARK    1  A    between atoms: N_2  and  C_5
REMARK    2  A    between atoms: C_3  and  C_13
REMARK    3  A    between atoms: C_5  and  C_7
REMARK    4  A    between atoms: C_13  and  C_23
REMARK    5  A    between atoms: C_14  and  C_17
REMARK                            x       y       z     vdW  Elec       q    Type
REMARK                         _______ _______ _______ _____ _____    ______ ____
ROOT
ATOM      1  O   UNL     1      33.855 -23.415 -19.601  0.00  0.00    -0.269 OA
ATOM      2  N   UNL     1      34.515 -22.449 -17.610  0.00  0.00    -0.298 N 
ATOM      3  C   UNL     1      34.361 -22.476 -18.987  0.00  0.00    +0.256 C 
ATOM      4  H   UNL     1      34.931 -21.658 -17.197  0.00  0.00    +0.150 HD
ENDROOT
BRANCH   2   5
ATOM      5  C   UNL     1      34.090 -23.536 -16.755  0.00  0.00    +0.094 C 
ATOM      6  C   UNL     1      35.165 -23.858 -15.720  0.00  0.00    +0.026 C 
BRANCH   5   7
ATOM      7  C   UNL     1      32.746 -23.243 -16.122  0.00  0.00    -0.005 C 
ATOM      8  C   UNL     1      32.649 -23.183 -14.743  0.00  0.00    -0.003 C 
ATOM      9  C   UNL     1      31.645 -23.041 -16.936  0.00  0.00    -0.003 C 
ATOM     10  C   UNL     1      31.412 -22.914 -14.158  0.00  0.00    -0.000 C 
ATOM     11  C   UNL     1      30.408 -22.772 -16.352  0.00  0.00    -0.000 C 
ATOM     12  C   UNL     1      30.291 -22.708 -14.963  0.00  0.00    -0.000 C 
ENDBRANCH   5   7
ENDBRANCH   2   5
BRANCH   3  13
ATOM     13  C   UNL     1      34.863 -21.244 -19.695  0.00  0.00    +0.124 C 
ATOM     14  C   UNL     1      34.016 -20.660 -20.565  0.00  0.00    +0.047 C 
BRANCH  14  17
ATOM     15 BR   UNL     1      34.263 -15.504 -20.553  0.00  0.00    -0.018 Br
ATOM     16  N   UNL     1      34.173 -18.290 -20.707  0.00  0.00    -0.399 NA
ATOM     17  C   UNL     1      34.303 -19.457 -21.361  0.00  0.00    +0.132 C 
ATOM     18  C   UNL     1      34.673 -19.593 -22.681  0.00  0.00    +0.028 C 
ATOM     19  C   UNL     1      34.933 -18.427 -23.394  0.00  0.00    -0.015 C 
ATOM     20  C   UNL     1      34.813 -17.193 -22.764  0.00  0.00    +0.092 C 
ATOM     21  C   UNL     1      34.433 -17.179 -21.432  0.00  0.00    +0.147 C 
ENDBRANCH  14  17
BRANCH  13  23
ATOM     22  N   UNL     1      37.245 -20.322 -19.283  0.00  0.00    -0.191 NA
ATOM     23  C   UNL     1      36.177 -20.737 -19.469  0.00  0.00    +0.105 C 
ENDBRANCH  13  23
ENDBRANCH   3  13
TORSDOF 5
ENDMDL
MODEL 9
REMARK VINA RESULT:      -9.1      4.446      9.856
REMARK  Name = 11210478
REMARK  5 active torsions:
REMARK  status: ('A' for Active; 'I' for Inactive)
REMARK    1  A    between atoms: N_2  and  C_5
REMARK    2  A    between atoms: C_3  and  C_13
REMARK    3  A    between atoms: C_5  and  C_7
REMARK    4  A    between atoms: C_13  and  C_23
REMARK    5  A    between atoms: C_14  and  C_17
REMARK                            x       y       z     vdW  Elec       q    Type
REMARK                         _______ _______ _______ _____ _____    ______ ____
ROOT
ATOM      1  O   UNL     1      30.956 -11.231 -21.703  0.00  0.00    -0.269 OA
ATOM      2  N   UNL     1      32.437  -9.582 -22.354  0.00  0.00    -0.298 N 
ATOM      3  C   UNL     1      31.942 -10.876 -22.349  0.00  0.00    +0.256 C 
ATOM      4  H   UNL     1      33.231  -9.382 -22.899  0.00  0.00    +0.150 HD
ENDROOT
BRANCH   2   5
ATOM      5  C   UNL     1      31.833  -8.514 -21.588  0.00  0.00    +0.094 C 
ATOM      6  C   UNL     1      32.672  -8.198 -20.351  0.00  0.00    +0.026 C 
BRANCH   5   7
ATOM      7  C   UNL     1      31.588  -7.292 -22.448  0.00  0.00    -0.005 C 
ATOM      8  C   UNL     1      31.556  -6.043 -21.853  0.00  0.00    -0.003 C 
ATOM      9  C   UNL     1      31.402  -7.451 -23.810  0.00  0.00    -0.003 C 
ATOM     10  C   UNL     1      31.330  -4.917 -22.645  0.00  0.00    -0.000 C 
ATOM     11  C   UNL     1      31.176  -6.326 -24.603  0.00  0.00    -0.000 C 
ATOM     12  C   UNL     1      31.140  -5.058 -24.019  0.00  0.00    -0.000 C 
ENDBRANCH   5   7
ENDBRANCH   2   5
BRANCH   3  13
ATOM     13  C   UNL     1      32.709 -11.840 -23.217  0.00  0.00    +0.124 C 
ATOM     14  C   UNL     1      32.417 -13.148 -23.073  0.00  0.00    +0.047 C 
BRANCH  14  17
ATOM     15 BR   UNL     1      35.379 -17.363 -22.735  0.00  0.00    -0.018 Br
ATOM     16  N   UNL     1      33.767 -15.108 -23.069  0.00  0.00    -0.399 NA
ATOM     17  C   UNL     1      33.046 -14.252 -23.814  0.00  0.00    +0.132 C 
ATOM     18  C   UNL     1      32.868 -14.338 -25.177  0.00  0.00    +0.028 C 
ATOM     19  C   UNL     1      33.483 -15.398 -25.835  0.00  0.00    -0.015 C 
ATOM     20  C   UNL     1      34.240 -16.312 -25.111  0.00  0.00    +0.092 C 
ATOM     21  C   UNL     1      34.350 -16.125 -23.742  0.00  0.00    +0.147 C 
ENDBRANCH  14  17
BRANCH  13  23
ATOM     22  N   UNL     1      34.520 -11.023 -24.875  0.00  0.00    -0.191 NA
ATOM     23  C   UNL     1      33.709 -11.390 -24.130  0.00  0.00    +0.105 C 
ENDBRANCH  13  23
ENDBRANCH   3  13
TORSDOF 5
ENDMDL
