MODEL 1
REMARK VINA RESULT:      -8.4      0.000      0.000
REMARK  Name = 444704
REMARK  3 active torsions:
REMARK  status: ('A' for Active; 'I' for Inactive)
REMARK    1  A    between atoms: C_4  and  C_14
REMARK    2  A    between atoms: C_5  and  C_21
REMARK    3  A    between atoms: C_21  and  O_22
REMARK                            x       y       z     vdW  Elec       q    Type
REMARK                         _______ _______ _______ _____ _____    ______ ____
ROOT
ATOM      1  S   UNL     1      30.658  -8.183 -24.057  0.00  0.00    -0.113 S 
ATOM      2  O   UNL     1      33.149  -6.792 -20.183  0.00  0.00    -0.270 OA
ATOM      3  N   UNL     1      32.380  -7.472 -22.311  0.00  0.00    -0.255 N 
ATOM      4  C   UNL     1      31.990  -8.736 -22.956  0.00  0.00    +0.139 C 
ATOM      5  C   UNL     1      32.178  -6.236 -23.061  0.00  0.00    +0.187 C 
ATOM      6  C   UNL     1      31.641  -9.545 -21.736  0.00  0.00    +0.012 C 
ATOM      7  C   UNL     1      31.515  -6.600 -24.394  0.00  0.00    +0.091 C 
ATOM      8  C   UNL     1      32.686  -7.601 -20.965  0.00  0.00    +0.250 C 
ATOM      9  C   UNL     1      32.164  -8.924 -20.590  0.00  0.00    +0.052 C 
ATOM     10  C   UNL     1      30.992 -10.762 -21.624  0.00  0.00    -0.001 C 
ATOM     11  C   UNL     1      32.062  -9.476 -19.327  0.00  0.00    +0.004 C 
ATOM     12  C   UNL     1      30.881 -11.341 -20.355  0.00  0.00    -0.000 C 
ATOM     13  C   UNL     1      31.415 -10.707 -19.219  0.00  0.00    +0.000 C 
ENDROOT
BRANCH   4  14
ATOM     14  C   UNL     1      33.137  -9.390 -23.745  0.00  0.00    +0.007 C 
ATOM     15  C   UNL     1      34.334  -8.701 -23.930  0.00  0.00    -0.002 C 
ATOM     16  C   UNL     1      32.976 -10.670 -24.273  0.00  0.00    -0.002 C 
ATOM     17  C   UNL     1      35.374  -9.293 -24.647  0.00  0.00    -0.000 C 
ATOM     18  C   UNL     1      34.016 -11.262 -24.990  0.00  0.00    -0.000 C 
ATOM     19  C   UNL     1      35.214 -10.574 -25.177  0.00  0.00    -0.000 C 
ENDBRANCH   4  14
BRANCH   5  21
ATOM     20  O   UNL     1      30.204  -5.786 -21.751  0.00  0.00    -0.248 OA
ATOM     21  C   UNL     1      31.234  -5.376 -22.269  0.00  0.00    +0.336 C 
BRANCH  21  22
ATOM     22  O   UNL     1      31.707  -4.098 -22.228  0.00  0.00    -0.443 OA
ATOM     23  C   UNL     1      31.217  -3.227 -23.252  0.00  0.00    +0.256 C 
ENDBRANCH  21  22
ENDBRANCH   5  21
TORSDOF 3
ENDMDL
MODEL 2
REMARK VINA RESULT:      -7.0     15.503     17.848
REMARK  Name = 444704
REMARK  3 active torsions:
REMARK  status: ('A' for Active; 'I' for Inactive)
REMARK    1  A    between atoms: C_4  and  C_14
REMARK    2  A    between atoms: C_5  and  C_21
REMARK    3  A    between atoms: C_21  and  O_22
REMARK                            x       y       z     vdW  Elec       q    Type
REMARK                         _______ _______ _______ _____ _____    ______ ____
ROOT
ATOM      1  S   UNL     1      33.284 -24.645 -16.608  0.00  0.00    -0.113 S 
ATOM      2  O   UNL     1      34.468 -23.412 -12.111  0.00  0.00    -0.270 OA
ATOM      3  N   UNL     1      34.023 -23.541 -14.428  0.00  0.00    -0.255 N 
ATOM      4  C   UNL     1      34.696 -24.079 -15.620  0.00  0.00    +0.139 C 
ATOM      5  C   UNL     1      32.668 -23.022 -14.590  0.00  0.00    +0.187 C 
ATOM      6  C   UNL     1      35.588 -25.100 -14.968  0.00  0.00    +0.012 C 
ATOM      7  C   UNL     1      32.254 -23.239 -16.049  0.00  0.00    +0.091 C 
ATOM      8  C   UNL     1      34.688 -23.807 -13.241  0.00  0.00    +0.250 C 
ATOM      9  C   UNL     1      35.666 -24.849 -13.588  0.00  0.00    +0.052 C 
ATOM     10  C   UNL     1      36.339 -26.120 -15.525  0.00  0.00    -0.001 C 
ATOM     11  C   UNL     1      36.471 -25.583 -12.737  0.00  0.00    +0.004 C 
ATOM     12  C   UNL     1      37.164 -26.874 -14.683  0.00  0.00    -0.000 C 
ATOM     13  C   UNL     1      37.232 -26.605 -13.304  0.00  0.00    +0.000 C 
ENDROOT
BRANCH   4  14
ATOM     14  C   UNL     1      35.522 -23.022 -16.374  0.00  0.00    +0.007 C 
ATOM     15  C   UNL     1      36.648 -22.463 -15.775  0.00  0.00    -0.002 C 
ATOM     16  C   UNL     1      35.141 -22.629 -17.656  0.00  0.00    -0.002 C 
ATOM     17  C   UNL     1      37.397 -21.504 -16.458  0.00  0.00    -0.000 C 
ATOM     18  C   UNL     1      35.890 -21.670 -18.339  0.00  0.00    -0.000 C 
ATOM     19  C   UNL     1      37.016 -21.108 -17.741  0.00  0.00    -0.000 C 
ENDBRANCH   4  14
BRANCH   5  21
ATOM     20  O   UNL     1      31.301 -23.429 -12.645  0.00  0.00    -0.248 OA
ATOM     21  C   UNL     1      31.764 -23.832 -13.703  0.00  0.00    +0.336 C 
BRANCH  21  22
ATOM     22  O   UNL     1      31.555 -25.058 -14.263  0.00  0.00    -0.443 OA
ATOM     23  C   UNL     1      30.185 -25.411 -14.477  0.00  0.00    +0.256 C 
ENDBRANCH  21  22
ENDBRANCH   5  21
TORSDOF 3
ENDMDL
MODEL 3
REMARK VINA RESULT:      -6.8     15.323     17.819
REMARK  Name = 444704
REMARK  3 active torsions:
REMARK  status: ('A' for Active; 'I' for Inactive)
REMARK    1  A    between atoms: C_4  and  C_14
REMARK    2  A    between atoms: C_5  and  C_21
REMARK    3  A    between atoms: C_21  and  O_22
REMARK                            x       y       z     vdW  Elec       q    Type
REMARK                         _______ _______ _______ _____ _____    ______ ____
ROOT
ATOM      1  S   UNL     1      35.092 -23.012 -13.462  0.00  0.00    -0.113 S 
ATOM      2  O   UNL     1      33.117 -23.984 -17.739  0.00  0.00    -0.270 OA
ATOM      3  N   UNL     1      34.194 -24.002 -15.637  0.00  0.00    -0.255 N 
ATOM      4  C   UNL     1      35.519 -23.642 -15.109  0.00  0.00    +0.139 C 
ATOM      5  C   UNL     1      33.162 -24.384 -14.678  0.00  0.00    +0.187 C 
ATOM      6  C   UNL     1      35.960 -22.673 -16.171  0.00  0.00    +0.012 C 
ATOM      7  C   UNL     1      33.754 -24.247 -13.271  0.00  0.00    +0.091 C 
ATOM      8  C   UNL     1      34.029 -23.711 -16.982  0.00  0.00    +0.250 C 
ATOM      9  C   UNL     1      35.148 -22.813 -17.308  0.00  0.00    +0.052 C 
ATOM     10  C   UNL     1      37.025 -21.790 -16.192  0.00  0.00    -0.001 C 
ATOM     11  C   UNL     1      35.360 -22.102 -18.474  0.00  0.00    +0.004 C 
ATOM     12  C   UNL     1      37.262 -21.061 -17.363  0.00  0.00    -0.000 C 
ATOM     13  C   UNL     1      36.440 -21.219 -18.493  0.00  0.00    +0.000 C 
ENDROOT
BRANCH   4  14
ATOM     14  C   UNL     1      36.479 -24.841 -15.020  0.00  0.00    +0.007 C 
ATOM     15  C   UNL     1      37.769 -24.664 -14.525  0.00  0.00    -0.002 C 
ATOM     16  C   UNL     1      36.055 -26.103 -15.435  0.00  0.00    -0.002 C 
ATOM     17  C   UNL     1      38.640 -25.750 -14.444  0.00  0.00    -0.000 C 
ATOM     18  C   UNL     1      36.926 -27.189 -15.355  0.00  0.00    -0.000 C 
ATOM     19  C   UNL     1      38.218 -27.013 -14.861  0.00  0.00    -0.000 C 
ENDBRANCH   4  14
BRANCH   5  21
ATOM     20  O   UNL     1      32.081 -22.237 -14.476  0.00  0.00    -0.248 OA
ATOM     21  C   UNL     1      32.027 -23.409 -14.823  0.00  0.00    +0.336 C 
BRANCH  21  22
ATOM     22  O   UNL     1      30.957 -24.036 -15.390  0.00  0.00    -0.443 OA
ATOM     23  C   UNL     1      30.420 -25.133 -14.644  0.00  0.00    +0.256 C 
ENDBRANCH  21  22
ENDBRANCH   5  21
TORSDOF 3
ENDMDL
MODEL 4
REMARK VINA RESULT:      -6.3     15.624     17.900
REMARK  Name = 444704
REMARK  3 active torsions:
REMARK  status: ('A' for Active; 'I' for Inactive)
REMARK    1  A    between atoms: C_4  and  C_14
REMARK    2  A    between atoms: C_5  and  C_21
REMARK    3  A    between atoms: C_21  and  O_22
REMARK                            x       y       z     vdW  Elec       q    Type
REMARK                         _______ _______ _______ _____ _____    ______ ____
ROOT
ATOM      1  S   UNL     1      36.750 -22.031 -14.724  0.00  0.00    -0.113 S 
ATOM      2  O   UNL     1      35.497 -26.659 -15.122  0.00  0.00    -0.270 OA
ATOM      3  N   UNL     1      36.189 -24.421 -15.427  0.00  0.00    -0.255 N 
ATOM      4  C   UNL     1      35.540 -23.105 -15.546  0.00  0.00    +0.139 C 
ATOM      5  C   UNL     1      37.647 -24.455 -15.363  0.00  0.00    +0.187 C 
ATOM      6  C   UNL     1      34.238 -23.402 -14.854  0.00  0.00    +0.012 C 
ATOM      7  C   UNL     1      38.152 -23.008 -15.382  0.00  0.00    +0.091 C 
ATOM      8  C   UNL     1      35.308 -25.457 -15.161  0.00  0.00    +0.250 C 
ATOM      9  C   UNL     1      34.064 -24.791 -14.746  0.00  0.00    +0.052 C 
ATOM     10  C   UNL     1      33.240 -22.548 -14.418  0.00  0.00    -0.001 C 
ATOM     11  C   UNL     1      32.924 -25.365 -14.217  0.00  0.00    +0.004 C 
ATOM     12  C   UNL     1      32.074 -23.107 -13.882  0.00  0.00    -0.000 C 
ATOM     13  C   UNL     1      31.916 -24.501 -13.786  0.00  0.00    +0.000 C 
ENDROOT
BRANCH   4  14
ATOM     14  C   UNL     1      35.308 -22.677 -17.005  0.00  0.00    +0.007 C 
ATOM     15  C   UNL     1      36.292 -21.963 -17.685  0.00  0.00    -0.002 C 
ATOM     16  C   UNL     1      34.112 -23.005 -17.643  0.00  0.00    -0.002 C 
ATOM     17  C   UNL     1      36.081 -21.574 -19.008  0.00  0.00    -0.000 C 
ATOM     18  C   UNL     1      33.902 -22.615 -18.966  0.00  0.00    -0.000 C 
ATOM     19  C   UNL     1      34.885 -21.899 -19.648  0.00  0.00    -0.000 C 
ENDBRANCH   4  14
BRANCH   5  21
ATOM     20  O   UNL     1      37.668 -24.664 -12.960  0.00  0.00    -0.248 OA
ATOM     21  C   UNL     1      38.027 -25.084 -14.052  0.00  0.00    +0.336 C 
BRANCH  21  22
ATOM     22  O   UNL     1      38.818 -26.172 -14.280  0.00  0.00    -0.443 OA
ATOM     23  C   UNL     1      40.220 -25.904 -14.369  0.00  0.00    +0.256 C 
ENDBRANCH  21  22
ENDBRANCH   5  21
TORSDOF 3
ENDMDL
MODEL 5
REMARK VINA RESULT:      -5.8      2.894      5.201
REMARK  Name = 444704
REMARK  3 active torsions:
REMARK  status: ('A' for Active; 'I' for Inactive)
REMARK    1  A    between atoms: C_4  and  C_14
REMARK    2  A    between atoms: C_5  and  C_21
REMARK    3  A    between atoms: C_21  and  O_22
REMARK                            x       y       z     vdW  Elec       q    Type
REMARK                         _______ _______ _______ _____ _____    ______ ____
ROOT
ATOM      1  S   UNL     1      34.895  -8.734 -23.651  0.00  0.00    -0.113 S 
ATOM      2  O   UNL     1      30.979 -11.422 -22.892  0.00  0.00    -0.270 OA
ATOM      3  N   UNL     1      32.618  -9.887 -23.627  0.00  0.00    -0.255 N 
ATOM      4  C   UNL     1      33.149  -8.591 -23.177  0.00  0.00    +0.139 C 
ATOM      5  C   UNL     1      33.278 -10.538 -24.755  0.00  0.00    +0.187 C 
ATOM      6  C   UNL     1      32.780  -8.657 -21.721  0.00  0.00    +0.012 C 
ATOM      7  C   UNL     1      34.468  -9.666 -25.168  0.00  0.00    +0.091 C 
ATOM      8  C   UNL     1      31.684 -10.439 -22.764  0.00  0.00    +0.250 C 
ATOM      9  C   UNL     1      31.827  -9.669 -21.518  0.00  0.00    +0.052 C 
ATOM     10  C   UNL     1      33.172  -7.860 -20.660  0.00  0.00    -0.001 C 
ATOM     11  C   UNL     1      31.247  -9.917 -20.289  0.00  0.00    +0.004 C 
ATOM     12  C   UNL     1      32.594  -8.090 -19.406  0.00  0.00    -0.000 C 
ATOM     13  C   UNL     1      31.638  -9.105 -19.224  0.00  0.00    +0.000 C 
ENDROOT
BRANCH   4  14
ATOM     14  C   UNL     1      32.476  -7.392 -23.866  0.00  0.00    +0.007 C 
ATOM     15  C   UNL     1      31.088  -7.277 -23.863  0.00  0.00    -0.002 C 
ATOM     16  C   UNL     1      33.258  -6.422 -24.492  0.00  0.00    -0.002 C 
ATOM     17  C   UNL     1      30.477  -6.190 -24.488  0.00  0.00    -0.000 C 
ATOM     18  C   UNL     1      32.646  -5.335 -25.117  0.00  0.00    -0.000 C 
ATOM     19  C   UNL     1      31.257  -5.219 -25.116  0.00  0.00    -0.000 C 
ENDBRANCH   4  14
BRANCH   5  21
ATOM     20  O   UNL     1      34.237 -12.061 -23.149  0.00  0.00    -0.248 OA
ATOM     21  C   UNL     1      33.793 -11.865 -24.273  0.00  0.00    +0.336 C 
BRANCH  21  22
ATOM     22  O   UNL     1      33.686 -12.786 -25.272  0.00  0.00    -0.443 OA
ATOM     23  C   UNL     1      33.003 -13.994 -24.924  0.00  0.00    +0.256 C 
ENDBRANCH  21  22
ENDBRANCH   5  21
TORSDOF 3
ENDMDL
MODEL 6
REMARK VINA RESULT:      -5.8      2.883      5.908
REMARK  Name = 444704
REMARK  3 active torsions:
REMARK  status: ('A' for Active; 'I' for Inactive)
REMARK    1  A    between atoms: C_4  and  C_14
REMARK    2  A    between atoms: C_5  and  C_21
REMARK    3  A    between atoms: C_21  and  O_22
REMARK                            x       y       z     vdW  Elec       q    Type
REMARK                         _______ _______ _______ _____ _____    ______ ____
ROOT
ATOM      1  S   UNL     1      31.078 -11.375 -23.532  0.00  0.00    -0.113 S 
ATOM      2  O   UNL     1      35.308  -9.132 -23.999  0.00  0.00    -0.270 OA
ATOM      3  N   UNL     1      33.400 -10.338 -23.303  0.00  0.00    -0.255 N 
ATOM      4  C   UNL     1      32.048 -10.017 -22.819  0.00  0.00    +0.139 C 
ATOM      5  C   UNL     1      33.715 -11.740 -23.558  0.00  0.00    +0.187 C 
ATOM      6  C   UNL     1      31.896  -8.633 -23.388  0.00  0.00    +0.012 C 
ATOM      7  C   UNL     1      32.450 -12.562 -23.288  0.00  0.00    +0.091 C 
ATOM      8  C   UNL     1      34.139  -9.226 -23.674  0.00  0.00    +0.250 C 
ATOM      9  C   UNL     1      33.153  -8.139 -23.773  0.00  0.00    +0.052 C 
ATOM     10  C   UNL     1      30.777  -7.826 -23.496  0.00  0.00    -0.001 C 
ATOM     11  C   UNL     1      33.337  -6.861 -24.266  0.00  0.00    +0.004 C 
ATOM     12  C   UNL     1      30.940  -6.527 -23.989  0.00  0.00    -0.000 C 
ATOM     13  C   UNL     1      32.208  -6.048 -24.366  0.00  0.00    +0.000 C 
ENDROOT
BRANCH   4  14
ATOM     14  C   UNL     1      31.945 -10.000 -21.284  0.00  0.00    +0.007 C 
ATOM     15  C   UNL     1      31.482 -11.125 -20.606  0.00  0.00    -0.002 C 
ATOM     16  C   UNL     1      32.316  -8.858 -20.576  0.00  0.00    -0.002 C 
ATOM     17  C   UNL     1      31.388 -11.110 -19.214  0.00  0.00    -0.000 C 
ATOM     18  C   UNL     1      32.222  -8.843 -19.184  0.00  0.00    -0.000 C 
ATOM     19  C   UNL     1      31.758  -9.968 -18.503  0.00  0.00    -0.000 C 
ENDBRANCH   4  14
BRANCH   5  21
ATOM     20  O   UNL     1      34.830 -11.103 -25.599  0.00  0.00    -0.248 OA
ATOM     21  C   UNL     1      34.074 -11.866 -25.012  0.00  0.00    +0.336 C 
BRANCH  21  22
ATOM     22  O   UNL     1      33.433 -12.943 -25.549  0.00  0.00    -0.443 OA
ATOM     23  C   UNL     1      33.416 -12.998 -26.978  0.00  0.00    +0.256 C 
ENDBRANCH  21  22
ENDBRANCH   5  21
TORSDOF 3
ENDMDL
