MODEL 1
REMARK VINA RESULT:     -10.0      0.000      0.000
REMARK  Name = 9571044
REMARK  7 active torsions:
REMARK  status: ('A' for Active; 'I' for Inactive)
REMARK    1  A    between atoms: N_2  and  N_13
REMARK    2  A    between atoms: C_3  and  C_6
REMARK    3  A    between atoms: C_8  and  N_12
REMARK    4  A    between atoms: N_13  and  C_14
REMARK    5  A    between atoms: C_15  and  C_16
REMARK    6  A    between atoms: C_15  and  C_18
REMARK    7  A    between atoms: C_20  and  N_24
REMARK                            x       y       z     vdW  Elec       q    Type
REMARK                         _______ _______ _______ _____ _____    ______ ____
ROOT
ATOM      1  O   UNL     1      35.351 -17.197 -20.557  0.00  0.00    -0.268 OA
ATOM      2  N   UNL     1      35.955 -19.218 -21.458  0.00  0.00    -0.211 N 
ATOM      3  C   UNL     1      35.446 -17.929 -21.544  0.00  0.00    +0.269 C 
ATOM      4  H   UNL     1      36.022 -19.786 -22.259  0.00  0.00    +0.175 HD
ENDROOT
BRANCH   3   6
ATOM      5  S   UNL     1      34.321 -15.967 -23.038  0.00  0.00    -0.059 S 
ATOM      6  C   UNL     1      35.001 -17.507 -22.880  0.00  0.00    +0.086 C 
ATOM      7  C   UNL     1      35.066 -18.217 -24.027  0.00  0.00    +0.013 C 
ATOM      8  C   UNL     1      34.088 -16.224 -24.714  0.00  0.00    +0.173 C 
ATOM      9  C   UNL     1      34.529 -17.467 -25.113  0.00  0.00    +0.031 C 
BRANCH   8  12
ATOM     10  O   UNL     1      33.452 -15.340 -26.744  0.00  0.00    -0.126 OA
ATOM     11  O   UNL     1      33.047 -14.181 -24.920  0.00  0.00    -0.126 OA
ATOM     12  N   UNL     1      33.507 -15.209 -25.490  0.00  0.00    +0.064 N 
ENDBRANCH   8  12
ENDBRANCH   3   6
BRANCH   2  13
ATOM     13  N   UNL     1      36.359 -19.677 -20.248  0.00  0.00    -0.147 NA
BRANCH  13  14
ATOM     14  C   UNL     1      35.910 -20.856 -19.959  0.00  0.00    +0.100 C 
ATOM     15  C   UNL     1      34.488 -21.082 -19.625  0.00  0.00    +0.001 C 
BRANCH  15  16
ATOM     16  C   UNL     1      34.090 -22.329 -19.334  0.00  0.00    +0.092 C 
BRANCH  16  18
ATOM     17  O   UNL     1      32.111 -22.566 -17.951  0.00  0.00    -0.437 OA
ATOM     18  C   UNL     1      33.445 -22.692 -18.107  0.00  0.00    +0.129 C 
ATOM     19  C   UNL     1      34.044 -23.189 -16.988  0.00  0.00    +0.038 C 
ATOM     20  C   UNL     1      31.842 -22.994 -16.690  0.00  0.00    +0.289 C 
ATOM     21  C   UNL     1      32.998 -23.388 -16.056  0.00  0.00    +0.066 C 
BRANCH  20  24
ATOM     22  O   UNL     1      30.143 -23.436 -15.200  0.00  0.00    -0.123 OA
ATOM     23  O   UNL     1      29.649 -22.414 -17.085  0.00  0.00    -0.123 OA
ATOM     24  N   UNL     1      30.499 -22.948 -16.312  0.00  0.00    +0.093 N 
ENDBRANCH  20  24
ENDBRANCH  16  18
ENDBRANCH  15  16
ENDBRANCH  13  14
ENDBRANCH   2  13
TORSDOF 7
ENDMDL
MODEL 2
REMARK VINA RESULT:      -9.8      5.135      6.991
REMARK  Name = 9571044
REMARK  7 active torsions:
REMARK  status: ('A' for Active; 'I' for Inactive)
REMARK    1  A    between atoms: N_2  and  N_13
REMARK    2  A    between atoms: C_3  and  C_6
REMARK    3  A    between atoms: C_8  and  N_12
REMARK    4  A    between atoms: N_13  and  C_14
REMARK    5  A    between atoms: C_15  and  C_16
REMARK    6  A    between atoms: C_15  and  C_18
REMARK    7  A    between atoms: C_20  and  N_24
REMARK                            x       y       z     vdW  Elec       q    Type
REMARK                         _______ _______ _______ _____ _____    ______ ____
ROOT
ATOM      1  O   UNL     1      33.838 -23.959 -19.260  0.00  0.00    -0.268 OA
ATOM      2  N   UNL     1      34.098 -22.686 -17.369  0.00  0.00    -0.211 N 
ATOM      3  C   UNL     1      33.983 -22.849 -18.743  0.00  0.00    +0.269 C 
ATOM      4  H   UNL     1      34.213 -21.791 -16.976  0.00  0.00    +0.175 HD
ENDROOT
BRANCH   3   6
ATOM      5  S   UNL     1      35.612 -21.002 -19.876  0.00  0.00    -0.059 S 
ATOM      6  C   UNL     1      34.073 -21.617 -19.540  0.00  0.00    +0.086 C 
ATOM      7  C   UNL     1      33.051 -20.893 -20.048  0.00  0.00    +0.013 C 
ATOM      8  C   UNL     1      34.919 -19.700 -20.745  0.00  0.00    +0.173 C 
ATOM      9  C   UNL     1      33.543 -19.760 -20.759  0.00  0.00    +0.031 C 
BRANCH   8  12
ATOM     10  O   UNL     1      37.011 -18.856 -21.209  0.00  0.00    -0.126 OA
ATOM     11  O   UNL     1      35.252 -17.783 -21.976  0.00  0.00    -0.126 OA
ATOM     12  N   UNL     1      35.760 -18.743 -21.332  0.00  0.00    +0.064 N 
ENDBRANCH   8  12
ENDBRANCH   3   6
BRANCH   2  13
ATOM     13  N   UNL     1      34.049 -23.787 -16.578  0.00  0.00    -0.147 NA
BRANCH  13  14
ATOM     14  C   UNL     1      34.826 -23.725 -15.546  0.00  0.00    +0.100 C 
ATOM     15  C   UNL     1      36.124 -23.018 -15.595  0.00  0.00    +0.001 C 
BRANCH  15  16
ATOM     16  C   UNL     1      36.880 -22.993 -14.488  0.00  0.00    +0.092 C 
BRANCH  16  18
ATOM     17  O   UNL     1      38.782 -24.473 -14.773  0.00  0.00    -0.437 OA
ATOM     18  C   UNL     1      37.702 -24.088 -14.062  0.00  0.00    +0.129 C 
ATOM     19  C   UNL     1      37.527 -24.851 -12.947  0.00  0.00    +0.038 C 
ATOM     20  C   UNL     1      39.320 -25.520 -14.093  0.00  0.00    +0.289 C 
ATOM     21  C   UNL     1      38.584 -25.792 -12.963  0.00  0.00    +0.066 C 
BRANCH  20  24
ATOM     22  O   UNL     1      41.310 -26.665 -13.923  0.00  0.00    -0.123 OA
ATOM     23  O   UNL     1      40.644 -26.005 -15.913  0.00  0.00    -0.123 OA
ATOM     24  N   UNL     1      40.464 -26.082 -14.662  0.00  0.00    +0.093 N 
ENDBRANCH  20  24
ENDBRANCH  16  18
ENDBRANCH  15  16
ENDBRANCH  13  14
ENDBRANCH   2  13
TORSDOF 7
ENDMDL
MODEL 3
REMARK VINA RESULT:      -9.8      3.085      4.884
REMARK  Name = 9571044
REMARK  7 active torsions:
REMARK  status: ('A' for Active; 'I' for Inactive)
REMARK    1  A    between atoms: N_2  and  N_13
REMARK    2  A    between atoms: C_3  and  C_6
REMARK    3  A    between atoms: C_8  and  N_12
REMARK    4  A    between atoms: N_13  and  C_14
REMARK    5  A    between atoms: C_15  and  C_16
REMARK    6  A    between atoms: C_15  and  C_18
REMARK    7  A    between atoms: C_20  and  N_24
REMARK                            x       y       z     vdW  Elec       q    Type
REMARK                         _______ _______ _______ _____ _____    ______ ____
ROOT
ATOM      1  O   UNL     1      33.899 -23.659 -19.634  0.00  0.00    -0.268 OA
ATOM      2  N   UNL     1      34.355 -22.496 -17.711  0.00  0.00    -0.211 N 
ATOM      3  C   UNL     1      34.106 -22.580 -19.074  0.00  0.00    +0.269 C 
ATOM      4  H   UNL     1      34.518 -21.624 -17.283  0.00  0.00    +0.175 HD
ENDROOT
BRANCH   3   6
ATOM      5  S   UNL     1      35.643 -20.617 -20.139  0.00  0.00    -0.059 S 
ATOM      6  C   UNL     1      34.135 -21.307 -19.808  0.00  0.00    +0.086 C 
ATOM      7  C   UNL     1      33.078 -20.598 -20.259  0.00  0.00    +0.013 C 
ATOM      8  C   UNL     1      34.886 -19.300 -20.926  0.00  0.00    +0.173 C 
ATOM      9  C   UNL     1      33.513 -19.412 -20.919  0.00  0.00    +0.031 C 
BRANCH   8  12
ATOM     10  O   UNL     1      36.803 -18.572 -21.975  0.00  0.00    -0.126 OA
ATOM     11  O   UNL     1      35.256 -17.093 -21.468  0.00  0.00    -0.126 OA
ATOM     12  N   UNL     1      35.680 -18.283 -21.477  0.00  0.00    +0.064 N 
ENDBRANCH   8  12
ENDBRANCH   3   6
BRANCH   2  13
ATOM     13  N   UNL     1      34.368 -23.638 -16.981  0.00  0.00    -0.147 NA
BRANCH  13  14
ATOM     14  C   UNL     1      33.332 -23.785 -16.220  0.00  0.00    +0.100 C 
ATOM     15  C   UNL     1      33.227 -23.097 -14.915  0.00  0.00    +0.001 C 
BRANCH  15  16
ATOM     16  C   UNL     1      32.126 -23.294 -14.176  0.00  0.00    +0.092 C 
BRANCH  16  18
ATOM     17  O   UNL     1      30.199 -22.965 -15.614  0.00  0.00    -0.437 OA
ATOM     18  C   UNL     1      30.869 -23.720 -14.719  0.00  0.00    +0.129 C 
ATOM     19  C   UNL     1      30.208 -24.876 -14.431  0.00  0.00    +0.038 C 
ATOM     20  C   UNL     1      29.069 -23.657 -15.912  0.00  0.00    +0.289 C 
ATOM     21  C   UNL     1      29.027 -24.840 -15.210  0.00  0.00    +0.066 C 
BRANCH  20  24
ATOM     22  O   UNL     1      27.631 -23.752 -17.708  0.00  0.00    -0.123 OA
ATOM     23  O   UNL     1      28.033 -21.795 -16.786  0.00  0.00    -0.123 OA
ATOM     24  N   UNL     1      28.216 -23.048 -16.834  0.00  0.00    +0.093 N 
ENDBRANCH  20  24
ENDBRANCH  16  18
ENDBRANCH  15  16
ENDBRANCH  13  14
ENDBRANCH   2  13
TORSDOF 7
ENDMDL
MODEL 4
REMARK VINA RESULT:      -9.7      1.981      2.318
REMARK  Name = 9571044
REMARK  7 active torsions:
REMARK  status: ('A' for Active; 'I' for Inactive)
REMARK    1  A    between atoms: N_2  and  N_13
REMARK    2  A    between atoms: C_3  and  C_6
REMARK    3  A    between atoms: C_8  and  N_12
REMARK    4  A    between atoms: N_13  and  C_14
REMARK    5  A    between atoms: C_15  and  C_16
REMARK    6  A    between atoms: C_15  and  C_18
REMARK    7  A    between atoms: C_20  and  N_24
REMARK                            x       y       z     vdW  Elec       q    Type
REMARK                         _______ _______ _______ _____ _____    ______ ____
ROOT
ATOM      1  O   UNL     1      35.398 -17.170 -20.561  0.00  0.00    -0.268 OA
ATOM      2  N   UNL     1      35.899 -19.220 -21.460  0.00  0.00    -0.211 N 
ATOM      3  C   UNL     1      35.453 -17.907 -21.548  0.00  0.00    +0.269 C 
ATOM      4  H   UNL     1      35.935 -19.792 -22.261  0.00  0.00    +0.175 HD
ENDROOT
BRANCH   3   6
ATOM      5  S   UNL     1      34.294 -15.948 -23.019  0.00  0.00    -0.059 S 
ATOM      6  C   UNL     1      35.026 -17.466 -22.883  0.00  0.00    +0.086 C 
ATOM      7  C   UNL     1      35.143 -18.143 -24.046  0.00  0.00    +0.013 C 
ATOM      8  C   UNL     1      34.111 -16.169 -24.706  0.00  0.00    +0.173 C 
ATOM      9  C   UNL     1      34.605 -17.385 -25.126  0.00  0.00    +0.031 C 
BRANCH   8  12
ATOM     10  O   UNL     1      33.446 -15.280 -26.724  0.00  0.00    -0.126 OA
ATOM     11  O   UNL     1      33.046 -14.136 -24.889  0.00  0.00    -0.126 OA
ATOM     12  N   UNL     1      33.511 -15.156 -25.470  0.00  0.00    +0.064 N 
ENDBRANCH   8  12
ENDBRANCH   3   6
BRANCH   2  13
ATOM     13  N   UNL     1      36.284 -19.696 -20.251  0.00  0.00    -0.147 NA
BRANCH  13  14
ATOM     14  C   UNL     1      35.759 -20.839 -19.947  0.00  0.00    +0.100 C 
ATOM     15  C   UNL     1      34.297 -21.005 -19.799  0.00  0.00    +0.001 C 
BRANCH  15  16
ATOM     16  C   UNL     1      33.821 -22.217 -19.482  0.00  0.00    +0.092 C 
BRANCH  16  18
ATOM     17  O   UNL     1      34.831 -23.054 -17.442  0.00  0.00    -0.437 OA
ATOM     18  C   UNL     1      33.729 -22.709 -18.139  0.00  0.00    +0.129 C 
ATOM     19  C   UNL     1      32.589 -22.888 -17.414  0.00  0.00    +0.038 C 
ATOM     20  C   UNL     1      34.387 -23.470 -16.227  0.00  0.00    +0.289 C 
ATOM     21  C   UNL     1      33.015 -23.388 -16.160  0.00  0.00    +0.066 C 
BRANCH  20  24
ATOM     22  O   UNL     1      35.856 -25.049 -15.419  0.00  0.00    -0.123 OA
ATOM     23  O   UNL     1      35.787 -23.079 -14.442  0.00  0.00    -0.123 OA
ATOM     24  N   UNL     1      35.376 -23.881 -15.332  0.00  0.00    +0.093 N 
ENDBRANCH  20  24
ENDBRANCH  16  18
ENDBRANCH  15  16
ENDBRANCH  13  14
ENDBRANCH   2  13
TORSDOF 7
ENDMDL
MODEL 5
REMARK VINA RESULT:      -9.7      8.152     10.403
REMARK  Name = 9571044
REMARK  7 active torsions:
REMARK  status: ('A' for Active; 'I' for Inactive)
REMARK    1  A    between atoms: N_2  and  N_13
REMARK    2  A    between atoms: C_3  and  C_6
REMARK    3  A    between atoms: C_8  and  N_12
REMARK    4  A    between atoms: N_13  and  C_14
REMARK    5  A    between atoms: C_15  and  C_16
REMARK    6  A    between atoms: C_15  and  C_18
REMARK    7  A    between atoms: C_20  and  N_24
REMARK                            x       y       z     vdW  Elec       q    Type
REMARK                         _______ _______ _______ _____ _____    ______ ____
ROOT
ATOM      1  O   UNL     1      35.526 -24.158 -11.640  0.00  0.00    -0.268 OA
ATOM      2  N   UNL     1      34.348 -24.574 -13.564  0.00  0.00    -0.211 N 
ATOM      3  C   UNL     1      35.502 -24.596 -12.792  0.00  0.00    +0.269 C 
ATOM      4  H   UNL     1      34.350 -24.929 -14.482  0.00  0.00    +0.175 HD
ENDROOT
BRANCH   3   6
ATOM      5  S   UNL     1      38.211 -24.647 -12.885  0.00  0.00    -0.059 S 
ATOM      6  C   UNL     1      36.697 -25.147 -13.448  0.00  0.00    +0.086 C 
ATOM      7  C   UNL     1      36.736 -26.024 -14.475  0.00  0.00    +0.013 C 
ATOM      8  C   UNL     1      38.987 -25.632 -14.050  0.00  0.00    +0.173 C 
ATOM      9  C   UNL     1      38.084 -26.314 -14.836  0.00  0.00    +0.031 C 
BRANCH   8  12
ATOM     10  O   UNL     1      41.024 -24.594 -14.326  0.00  0.00    -0.126 OA
ATOM     11  O   UNL     1      40.993 -26.754 -13.917  0.00  0.00    -0.126 OA
ATOM     12  N   UNL     1      40.389 -25.660 -14.100  0.00  0.00    +0.064 N 
ENDBRANCH   8  12
ENDBRANCH   3   6
BRANCH   2  13
ATOM     13  N   UNL     1      33.217 -24.054 -13.025  0.00  0.00    -0.147 NA
BRANCH  13  14
ATOM     14  C   UNL     1      32.391 -23.580 -13.901  0.00  0.00    +0.100 C 
ATOM     15  C   UNL     1      32.672 -23.653 -15.351  0.00  0.00    +0.001 C 
BRANCH  15  16
ATOM     16  C   UNL     1      31.774 -23.141 -16.203  0.00  0.00    +0.092 C 
BRANCH  16  18
ATOM     17  O   UNL     1      29.459 -22.428 -16.351  0.00  0.00    -0.437 OA
ATOM     18  C   UNL     1      30.366 -23.400 -16.125  0.00  0.00    +0.129 C 
ATOM     19  C   UNL     1      29.773 -24.592 -15.832  0.00  0.00    +0.038 C 
ATOM     20  C   UNL     1      28.242 -23.011 -16.198  0.00  0.00    +0.289 C 
ATOM     21  C   UNL     1      28.380 -24.342 -15.878  0.00  0.00    +0.066 C 
BRANCH  20  24
ATOM     22  O   UNL     1      26.139 -22.267 -15.624  0.00  0.00    -0.123 OA
ATOM     23  O   UNL     1      27.163 -21.317 -17.325  0.00  0.00    -0.123 OA
ATOM     24  N   UNL     1      27.143 -22.171 -16.389  0.00  0.00    +0.093 N 
ENDBRANCH  20  24
ENDBRANCH  16  18
ENDBRANCH  15  16
ENDBRANCH  13  14
ENDBRANCH   2  13
TORSDOF 7
ENDMDL
MODEL 6
REMARK VINA RESULT:      -9.6      3.137      9.677
REMARK  Name = 9571044
REMARK  7 active torsions:
REMARK  status: ('A' for Active; 'I' for Inactive)
REMARK    1  A    between atoms: N_2  and  N_13
REMARK    2  A    between atoms: C_3  and  C_6
REMARK    3  A    between atoms: C_8  and  N_12
REMARK    4  A    between atoms: N_13  and  C_14
REMARK    5  A    between atoms: C_15  and  C_16
REMARK    6  A    between atoms: C_15  and  C_18
REMARK    7  A    between atoms: C_20  and  N_24
REMARK                            x       y       z     vdW  Elec       q    Type
REMARK                         _______ _______ _______ _____ _____    ______ ____
ROOT
ATOM      1  O   UNL     1      33.871 -23.528 -19.473  0.00  0.00    -0.268 OA
ATOM      2  N   UNL     1      32.920 -21.516 -18.920  0.00  0.00    -0.211 N 
ATOM      3  C   UNL     1      33.467 -22.753 -18.604  0.00  0.00    +0.269 C 
ATOM      4  H   UNL     1      32.603 -20.911 -18.211  0.00  0.00    +0.175 HD
ENDROOT
BRANCH   3   6
ATOM      5  S   UNL     1      32.038 -23.404 -16.395  0.00  0.00    -0.059 S 
ATOM      6  C   UNL     1      33.505 -23.086 -17.173  0.00  0.00    +0.086 C 
ATOM      7  C   UNL     1      34.595 -23.169 -16.380  0.00  0.00    +0.013 C 
ATOM      8  C   UNL     1      32.860 -23.671 -14.918  0.00  0.00    +0.173 C 
ATOM      9  C   UNL     1      34.223 -23.513 -15.048  0.00  0.00    +0.031 C 
BRANCH   8  12
ATOM     10  O   UNL     1      31.851 -23.116 -12.924  0.00  0.00    -0.126 OA
ATOM     11  O   UNL     1      31.742 -25.202 -13.611  0.00  0.00    -0.126 OA
ATOM     12  N   UNL     1      32.123 -24.008 -13.773  0.00  0.00    +0.064 N 
ENDBRANCH   8  12
ENDBRANCH   3   6
BRANCH   2  13
ATOM     13  N   UNL     1      32.832 -21.158 -20.225  0.00  0.00    -0.147 NA
BRANCH  13  14
ATOM     14  C   UNL     1      33.593 -20.163 -20.547  0.00  0.00    +0.100 C 
ATOM     15  C   UNL     1      35.067 -20.289 -20.564  0.00  0.00    +0.001 C 
BRANCH  15  16
ATOM     16  C   UNL     1      35.795 -19.217 -20.906  0.00  0.00    +0.092 C 
BRANCH  16  18
ATOM     17  O   UNL     1      35.172 -18.466 -23.128  0.00  0.00    -0.437 OA
ATOM     18  C   UNL     1      35.344 -18.205 -21.816  0.00  0.00    +0.129 C 
ATOM     19  C   UNL     1      35.039 -16.913 -21.509  0.00  0.00    +0.038 C 
ATOM     20  C   UNL     1      34.743 -17.304 -23.686  0.00  0.00    +0.289 C 
ATOM     21  C   UNL     1      34.645 -16.317 -22.732  0.00  0.00    +0.066 C 
BRANCH  20  24
ATOM     22  O   UNL     1      33.763 -18.259 -25.537  0.00  0.00    -0.123 OA
ATOM     23  O   UNL     1      35.020 -16.476 -25.816  0.00  0.00    -0.123 OA
ATOM     24  N   UNL     1      34.501 -17.349 -25.060  0.00  0.00    +0.093 N 
ENDBRANCH  20  24
ENDBRANCH  16  18
ENDBRANCH  15  16
ENDBRANCH  13  14
ENDBRANCH   2  13
TORSDOF 7
ENDMDL
MODEL 7
REMARK VINA RESULT:      -9.4      2.146      2.767
REMARK  Name = 9571044
REMARK  7 active torsions:
REMARK  status: ('A' for Active; 'I' for Inactive)
REMARK    1  A    between atoms: N_2  and  N_13
REMARK    2  A    between atoms: C_3  and  C_6
REMARK    3  A    between atoms: C_8  and  N_12
REMARK    4  A    between atoms: N_13  and  C_14
REMARK    5  A    between atoms: C_15  and  C_16
REMARK    6  A    between atoms: C_15  and  C_18
REMARK    7  A    between atoms: C_20  and  N_24
REMARK                            x       y       z     vdW  Elec       q    Type
REMARK                         _______ _______ _______ _____ _____    ______ ____
ROOT
ATOM      1  O   UNL     1      34.935 -15.533 -20.414  0.00  0.00    -0.268 OA
ATOM      2  N   UNL     1      35.265 -17.325 -21.807  0.00  0.00    -0.211 N 
ATOM      3  C   UNL     1      34.810 -16.042 -21.529  0.00  0.00    +0.269 C 
ATOM      4  H   UNL     1      35.156 -17.714 -22.705  0.00  0.00    +0.175 HD
ENDROOT
BRANCH   3   6
ATOM      5  S   UNL     1      34.282 -16.018 -24.188  0.00  0.00    -0.059 S 
ATOM      6  C   UNL     1      34.148 -15.346 -22.642  0.00  0.00    +0.086 C 
ATOM      7  C   UNL     1      33.429 -14.204 -22.581  0.00  0.00    +0.013 C 
ATOM      8  C   UNL     1      33.343 -14.744 -24.840  0.00  0.00    +0.173 C 
ATOM      9  C   UNL     1      32.952 -13.843 -23.874  0.00  0.00    +0.031 C 
BRANCH   8  12
ATOM     10  O   UNL     1      33.159 -13.646 -26.856  0.00  0.00    -0.126 OA
ATOM     11  O   UNL     1      32.733 -15.802 -26.792  0.00  0.00    -0.126 OA
ATOM     12  N   UNL     1      33.068 -14.729 -26.215  0.00  0.00    +0.064 N 
ENDBRANCH   8  12
ENDBRANCH   3   6
BRANCH   2  13
ATOM     13  N   UNL     1      35.863 -18.031 -20.815  0.00  0.00    -0.147 NA
BRANCH  13  14
ATOM     14  C   UNL     1      35.497 -19.270 -20.761  0.00  0.00    +0.100 C 
ATOM     15  C   UNL     1      36.326 -20.294 -20.089  0.00  0.00    +0.001 C 
BRANCH  15  16
ATOM     16  C   UNL     1      35.887 -21.561 -20.072  0.00  0.00    +0.092 C 
BRANCH  16  18
ATOM     17  O   UNL     1      35.275 -22.667 -18.001  0.00  0.00    -0.437 OA
ATOM     18  C   UNL     1      34.910 -22.051 -19.144  0.00  0.00    +0.129 C 
ATOM     19  C   UNL     1      33.556 -21.972 -19.272  0.00  0.00    +0.038 C 
ATOM     20  C   UNL     1      34.117 -22.996 -17.370  0.00  0.00    +0.289 C 
ATOM     21  C   UNL     1      33.031 -22.590 -18.112  0.00  0.00    +0.066 C 
BRANCH  20  24
ATOM     22  O   UNL     1      35.351 -24.240 -15.876  0.00  0.00    -0.123 OA
ATOM     23  O   UNL     1      33.305 -23.654 -15.319  0.00  0.00    -0.123 OA
ATOM     24  N   UNL     1      34.263 -23.653 -16.147  0.00  0.00    +0.093 N 
ENDBRANCH  20  24
ENDBRANCH  16  18
ENDBRANCH  15  16
ENDBRANCH  13  14
ENDBRANCH   2  13
TORSDOF 7
ENDMDL
MODEL 8
REMARK VINA RESULT:      -9.3      8.324     10.039
REMARK  Name = 9571044
REMARK  7 active torsions:
REMARK  status: ('A' for Active; 'I' for Inactive)
REMARK    1  A    between atoms: N_2  and  N_13
REMARK    2  A    between atoms: C_3  and  C_6
REMARK    3  A    between atoms: C_8  and  N_12
REMARK    4  A    between atoms: N_13  and  C_14
REMARK    5  A    between atoms: C_15  and  C_16
REMARK    6  A    between atoms: C_15  and  C_18
REMARK    7  A    between atoms: C_20  and  N_24
REMARK                            x       y       z     vdW  Elec       q    Type
REMARK                         _______ _______ _______ _____ _____    ______ ____
ROOT
ATOM      1  O   UNL     1      30.594 -24.262 -12.505  0.00  0.00    -0.268 OA
ATOM      2  N   UNL     1      32.267 -23.887 -14.029  0.00  0.00    -0.211 N 
ATOM      3  C   UNL     1      30.938 -24.075 -13.674  0.00  0.00    +0.269 C 
ATOM      4  H   UNL     1      32.520 -23.739 -14.969  0.00  0.00    +0.175 HD
ENDROOT
BRANCH   3   6
ATOM      5  S   UNL     1      29.291 -22.584 -15.227  0.00  0.00    -0.059 S 
ATOM      6  C   UNL     1      29.974 -24.066 -14.784  0.00  0.00    +0.086 C 
ATOM      7  C   UNL     1      29.552 -25.123 -15.510  0.00  0.00    +0.013 C 
ATOM      8  C   UNL     1      28.377 -23.353 -16.452  0.00  0.00    +0.173 C 
ATOM      9  C   UNL     1      28.609 -24.711 -16.496  0.00  0.00    +0.031 C 
BRANCH   8  12
ATOM     10  O   UNL     1      27.185 -21.429 -16.877  0.00  0.00    -0.126 OA
ATOM     11  O   UNL     1      27.109 -23.059 -18.352  0.00  0.00    -0.126 OA
ATOM     12  N   UNL     1      27.524 -22.584 -17.258  0.00  0.00    +0.064 N 
ENDBRANCH   8  12
ENDBRANCH   3   6
BRANCH   2  13
ATOM     13  N   UNL     1      33.209 -23.910 -13.054  0.00  0.00    -0.147 NA
BRANCH  13  14
ATOM     14  C   UNL     1      34.423 -23.861 -13.498  0.00  0.00    +0.100 C 
ATOM     15  C   UNL     1      34.718 -23.857 -14.947  0.00  0.00    +0.001 C 
BRANCH  15  16
ATOM     16  C   UNL     1      35.999 -23.807 -15.339  0.00  0.00    +0.092 C 
BRANCH  16  18
ATOM     17  O   UNL     1      38.274 -24.552 -14.947  0.00  0.00    -0.437 OA
ATOM     18  C   UNL     1      36.959 -24.832 -15.052  0.00  0.00    +0.129 C 
ATOM     19  C   UNL     1      36.702 -26.155 -14.854  0.00  0.00    +0.038 C 
ATOM     20  C   UNL     1      38.885 -25.735 -14.673  0.00  0.00    +0.289 C 
ATOM     21  C   UNL     1      37.961 -26.752 -14.606  0.00  0.00    +0.066 C 
BRANCH  20  24
ATOM     22  O   UNL     1      40.964 -26.725 -14.664  0.00  0.00    -0.123 OA
ATOM     23  O   UNL     1      40.825 -24.569 -14.250  0.00  0.00    -0.123 OA
ATOM     24  N   UNL     1      40.272 -25.675 -14.523  0.00  0.00    +0.093 N 
ENDBRANCH  20  24
ENDBRANCH  16  18
ENDBRANCH  15  16
ENDBRANCH  13  14
ENDBRANCH   2  13
TORSDOF 7
ENDMDL
MODEL 9
REMARK VINA RESULT:      -9.3      2.005      2.824
REMARK  Name = 9571044
REMARK  7 active torsions:
REMARK  status: ('A' for Active; 'I' for Inactive)
REMARK    1  A    between atoms: N_2  and  N_13
REMARK    2  A    between atoms: C_3  and  C_6
REMARK    3  A    between atoms: C_8  and  N_12
REMARK    4  A    between atoms: N_13  and  C_14
REMARK    5  A    between atoms: C_15  and  C_16
REMARK    6  A    between atoms: C_15  and  C_18
REMARK    7  A    between atoms: C_20  and  N_24
REMARK                            x       y       z     vdW  Elec       q    Type
REMARK                         _______ _______ _______ _____ _____    ______ ____
ROOT
ATOM      1  O   UNL     1      36.514 -20.363 -20.215  0.00  0.00    -0.268 OA
ATOM      2  N   UNL     1      34.300 -20.901 -20.482  0.00  0.00    -0.211 N 
ATOM      3  C   UNL     1      35.407 -20.088 -20.684  0.00  0.00    +0.269 C 
ATOM      4  H   UNL     1      33.425 -20.662 -20.865  0.00  0.00    +0.175 HD
ENDROOT
BRANCH   3   6
ATOM      5  S   UNL     1      34.828 -19.036 -23.115  0.00  0.00    -0.059 S 
ATOM      6  C   UNL     1      35.168 -18.866 -21.467  0.00  0.00    +0.086 C 
ATOM      7  C   UNL     1      35.189 -17.591 -21.022  0.00  0.00    +0.013 C 
ATOM      8  C   UNL     1      34.697 -17.338 -23.279  0.00  0.00    +0.173 C 
ATOM      9  C   UNL     1      34.913 -16.684 -22.086  0.00  0.00    +0.031 C 
BRANCH   8  12
ATOM     10  O   UNL     1      33.907 -15.630 -24.607  0.00  0.00    -0.126 OA
ATOM     11  O   UNL     1      34.622 -17.471 -25.576  0.00  0.00    -0.126 OA
ATOM     12  N   UNL     1      34.397 -16.791 -24.536  0.00  0.00    +0.064 N 
ENDBRANCH   8  12
ENDBRANCH   3   6
BRANCH   2  13
ATOM     13  N   UNL     1      34.449 -22.030 -19.746  0.00  0.00    -0.147 NA
BRANCH  13  14
ATOM     14  C   UNL     1      33.943 -21.951 -18.558  0.00  0.00    +0.100 C 
ATOM     15  C   UNL     1      33.370 -23.134 -17.880  0.00  0.00    +0.001 C 
BRANCH  15  16
ATOM     16  C   UNL     1      32.861 -22.981 -16.650  0.00  0.00    +0.092 C 
BRANCH  16  18
ATOM     17  O   UNL     1      30.480 -22.734 -17.049  0.00  0.00    -0.437 OA
ATOM     18  C   UNL     1      31.491 -23.245 -16.317  0.00  0.00    +0.129 C 
ATOM     19  C   UNL     1      31.038 -24.004 -15.280  0.00  0.00    +0.038 C 
ATOM     20  C   UNL     1      29.337 -23.178 -16.464  0.00  0.00    +0.289 C 
ATOM     21  C   UNL     1      29.626 -23.963 -15.371  0.00  0.00    +0.066 C 
BRANCH  20  24
ATOM     22  O   UNL     1      27.712 -21.594 -16.853  0.00  0.00    -0.123 OA
ATOM     23  O   UNL     1      27.523 -23.555 -17.831  0.00  0.00    -0.123 OA
ATOM     24  N   UNL     1      28.150 -22.761 -17.069  0.00  0.00    +0.093 N 
ENDBRANCH  20  24
ENDBRANCH  16  18
ENDBRANCH  15  16
ENDBRANCH  13  14
ENDBRANCH   2  13
TORSDOF 7
ENDMDL
