MODEL 1
REMARK VINA RESULT:     -10.8      0.000      0.000
REMARK  Name = 9886249
REMARK  2 active torsions:
REMARK  status: ('A' for Active; 'I' for Inactive)
REMARK    1  A    between atoms: C_16  and  C_25
REMARK    2  A    between atoms: C_29  and  C_31
REMARK                            x       y       z     vdW  Elec       q    Type
REMARK                         _______ _______ _______ _____ _____    ______ ____
ROOT
ATOM      1  F   UNL     1      30.123 -11.561 -21.697  0.00  0.00    -0.203 F 
ATOM      2  F   UNL     1      34.360  -8.607 -23.475  0.00  0.00    -0.204 F 
ATOM      3  O   UNL     1      33.701 -18.301 -25.112  0.00  0.00    -0.270 OA
ATOM      4  N   UNL     1      34.278 -16.189 -24.285  0.00  0.00    -0.276 N 
ATOM      5  N   UNL     1      32.057 -12.829 -23.211  0.00  0.00    -0.316 N 
ATOM      6  N   UNL     1      34.220 -12.679 -24.462  0.00  0.00    -0.242 NA
ATOM      7  N   UNL     1      35.229 -10.647 -24.863  0.00  0.00    -0.343 N 
ATOM      8  C   UNL     1      33.193 -13.507 -23.813  0.00  0.00    +0.145 C 
ATOM      9  C   UNL     1      32.633 -14.463 -24.896  0.00  0.00    +0.063 C 
ATOM     10  C   UNL     1      33.890 -14.337 -22.707  0.00  0.00    +0.063 C 
ATOM     11  C   UNL     1      33.674 -15.463 -25.400  0.00  0.00    +0.097 C 
ATOM     12  C   UNL     1      34.901 -15.341 -23.264  0.00  0.00    +0.097 C 
ATOM     13  C   UNL     1      32.167 -11.485 -22.907  0.00  0.00    +0.078 C 
ATOM     14  C   UNL     1      34.251 -11.398 -24.254  0.00  0.00    +0.126 C 
ATOM     15  C   UNL     1      33.242 -10.722 -23.383  0.00  0.00    +0.074 C 
ATOM     16  C   UNL     1      34.224 -17.584 -24.260  0.00  0.00    +0.251 C 
ATOM     17  C   UNL     1      31.181 -10.859 -22.131  0.00  0.00    +0.153 C 
ATOM     18  C   UNL     1      33.337  -9.362 -23.054  0.00  0.00    +0.144 C 
ATOM     19  C   UNL     1      31.273  -9.505 -21.812  0.00  0.00    +0.033 C 
ATOM     20  C   UNL     1      32.354  -8.759 -22.269  0.00  0.00    +0.032 C 
ATOM     21  H   UNL     1      31.223 -13.318 -23.022  0.00  0.00    +0.148 HD
ATOM     22  H   UNL     1      35.898 -11.083 -25.439  0.00  0.00    +0.144 HD
ATOM     23  H   UNL     1      35.261  -9.673 -24.723  0.00  0.00    +0.144 HD
ENDROOT
BRANCH  16  25
ATOM     24  N   UNL     1      34.596 -19.765 -21.241  0.00  0.00    -0.233 NA
ATOM     25  C   UNL     1      34.840 -18.276 -23.122  0.00  0.00    +0.073 C 
ATOM     26  C   UNL     1      36.188 -18.116 -22.841  0.00  0.00    +0.008 C 
ATOM     27  C   UNL     1      34.092 -19.101 -22.305  0.00  0.00    +0.104 C 
ATOM     28  C   UNL     1      36.745 -18.783 -21.755  0.00  0.00    +0.030 C 
ATOM     29  C   UNL     1      35.915 -19.589 -20.994  0.00  0.00    +0.149 C 
BRANCH  29  31
ATOM     30  N   UNL     1      36.815 -20.890 -18.943  0.00  0.00    -0.189 NA
ATOM     31  C   UNL     1      36.411 -20.305 -19.865  0.00  0.00    +0.120 C 
ENDBRANCH  29  31
ENDBRANCH  16  25
TORSDOF 2
ENDMDL
MODEL 2
REMARK VINA RESULT:      -9.8      0.947      1.033
REMARK  Name = 9886249
REMARK  2 active torsions:
REMARK  status: ('A' for Active; 'I' for Inactive)
REMARK    1  A    between atoms: C_16  and  C_25
REMARK    2  A    between atoms: C_29  and  C_31
REMARK                            x       y       z     vdW  Elec       q    Type
REMARK                         _______ _______ _______ _____ _____    ______ ____
ROOT
ATOM      1  F   UNL     1      30.482 -10.756 -21.956  0.00  0.00    -0.203 F 
ATOM      2  F   UNL     1      34.932  -8.140 -23.743  0.00  0.00    -0.204 F 
ATOM      3  O   UNL     1      33.362 -17.679 -25.651  0.00  0.00    -0.270 OA
ATOM      4  N   UNL     1      34.146 -15.655 -24.775  0.00  0.00    -0.276 N 
ATOM      5  N   UNL     1      32.261 -12.144 -23.551  0.00  0.00    -0.316 N 
ATOM      6  N   UNL     1      34.403 -12.150 -24.847  0.00  0.00    -0.242 NA
ATOM      7  N   UNL     1      35.584 -10.206 -25.210  0.00  0.00    -0.343 N 
ATOM      8  C   UNL     1      33.318 -12.903 -24.199  0.00  0.00    +0.145 C 
ATOM      9  C   UNL     1      32.652 -13.769 -25.297  0.00  0.00    +0.063 C 
ATOM     10  C   UNL     1      33.959 -13.826 -23.134  0.00  0.00    +0.063 C 
ATOM     11  C   UNL     1      33.588 -14.843 -25.854  0.00  0.00    +0.097 C 
ATOM     12  C   UNL     1      34.864 -14.899 -23.744  0.00  0.00    +0.097 C 
ATOM     13  C   UNL     1      32.499 -10.826 -23.210  0.00  0.00    +0.078 C 
ATOM     14  C   UNL     1      34.554 -10.885 -24.602  0.00  0.00    +0.126 C 
ATOM     15  C   UNL     1      33.629 -10.148 -23.687  0.00  0.00    +0.074 C 
ATOM     16  C   UNL     1      33.965 -17.040 -24.791  0.00  0.00    +0.251 C 
ATOM     17  C   UNL     1      31.589 -10.138 -22.393  0.00  0.00    +0.153 C 
ATOM     18  C   UNL     1      33.854  -8.813 -23.321  0.00  0.00    +0.144 C 
ATOM     19  C   UNL     1      31.811  -8.809 -22.036  0.00  0.00    +0.033 C 
ATOM     20  C   UNL     1      32.945  -8.150 -22.495  0.00  0.00    +0.032 C 
ATOM     21  H   UNL     1      31.390 -12.561 -23.358  0.00  0.00    +0.148 HD
ATOM     22  H   UNL     1      36.199 -10.681 -25.814  0.00  0.00    +0.144 HD
ATOM     23  H   UNL     1      35.707  -9.243 -25.042  0.00  0.00    +0.144 HD
ENDROOT
BRANCH  16  25
ATOM     24  N   UNL     1      35.221 -17.923 -21.378  0.00  0.00    -0.233 NA
ATOM     25  C   UNL     1      34.539 -17.819 -23.688  0.00  0.00    +0.073 C 
ATOM     26  C   UNL     1      34.934 -19.134 -23.880  0.00  0.00    +0.008 C 
ATOM     27  C   UNL     1      34.699 -17.262 -22.434  0.00  0.00    +0.104 C 
ATOM     28  C   UNL     1      35.476 -19.849 -22.817  0.00  0.00    +0.030 C 
ATOM     29  C   UNL     1      35.596 -19.204 -21.597  0.00  0.00    +0.149 C 
BRANCH  29  31
ATOM     30  N   UNL     1      36.588 -20.411 -19.530  0.00  0.00    -0.189 NA
ATOM     31  C   UNL     1      36.142 -19.869 -20.459  0.00  0.00    +0.120 C 
ENDBRANCH  29  31
ENDBRANCH  16  25
TORSDOF 2
ENDMDL
MODEL 3
REMARK VINA RESULT:      -9.3      3.415      8.548
REMARK  Name = 9886249
REMARK  2 active torsions:
REMARK  status: ('A' for Active; 'I' for Inactive)
REMARK    1  A    between atoms: C_16  and  C_25
REMARK    2  A    between atoms: C_29  and  C_31
REMARK                            x       y       z     vdW  Elec       q    Type
REMARK                         _______ _______ _______ _____ _____    ______ ____
ROOT
ATOM      1  F   UNL     1      38.565 -18.654 -21.840  0.00  0.00    -0.203 F 
ATOM      2  F   UNL     1      34.110 -20.926 -19.641  0.00  0.00    -0.204 F 
ATOM      3  O   UNL     1      33.535 -14.054 -26.680  0.00  0.00    -0.270 OA
ATOM      4  N   UNL     1      33.506 -15.197 -24.637  0.00  0.00    -0.276 N 
ATOM      5  N   UNL     1      36.096 -17.929 -22.847  0.00  0.00    -0.316 N 
ATOM      6  N   UNL     1      33.604 -18.162 -22.753  0.00  0.00    -0.242 NA
ATOM      7  N   UNL     1      32.605 -19.773 -21.443  0.00  0.00    -0.343 N 
ATOM      8  C   UNL     1      34.785 -17.406 -23.198  0.00  0.00    +0.145 C 
ATOM      9  C   UNL     1      34.720 -17.335 -24.744  0.00  0.00    +0.063 C 
ATOM     10  C   UNL     1      34.674 -15.977 -22.613  0.00  0.00    +0.063 C 
ATOM     11  C   UNL     1      33.527 -16.523 -25.250  0.00  0.00    +0.097 C 
ATOM     12  C   UNL     1      33.482 -15.196 -23.171  0.00  0.00    +0.097 C 
ATOM     13  C   UNL     1      36.196 -18.836 -21.809  0.00  0.00    +0.078 C 
ATOM     14  C   UNL     1      33.726 -19.088 -21.852  0.00  0.00    +0.126 C 
ATOM     15  C   UNL     1      35.054 -19.436 -21.260  0.00  0.00    +0.074 C 
ATOM     16  C   UNL     1      33.512 -14.061 -25.451  0.00  0.00    +0.251 C 
ATOM     17  C   UNL     1      37.456 -19.188 -21.305  0.00  0.00    +0.153 C 
ATOM     18  C   UNL     1      35.180 -20.348 -20.202  0.00  0.00    +0.144 C 
ATOM     19  C   UNL     1      37.580 -20.100 -20.258  0.00  0.00    +0.033 C 
ATOM     20  C   UNL     1      36.442 -20.674 -19.704  0.00  0.00    +0.032 C 
ATOM     21  H   UNL     1      36.898 -17.641 -23.340  0.00  0.00    +0.148 HD
ATOM     22  H   UNL     1      31.725 -19.551 -21.827  0.00  0.00    +0.144 HD
ATOM     23  H   UNL     1      32.681 -20.484 -20.768  0.00  0.00    +0.144 HD
ENDROOT
BRANCH  16  25
ATOM     24  N   UNL     1      32.651 -11.343 -23.026  0.00  0.00    -0.233 NA
ATOM     25  C   UNL     1      33.492 -12.748 -24.797  0.00  0.00    +0.073 C 
ATOM     26  C   UNL     1      34.252 -11.698 -25.290  0.00  0.00    +0.008 C 
ATOM     27  C   UNL     1      32.716 -12.527 -23.675  0.00  0.00    +0.104 C 
ATOM     28  C   UNL     1      34.212 -10.464 -24.650  0.00  0.00    +0.030 C 
ATOM     29  C   UNL     1      33.405 -10.340 -23.532  0.00  0.00    +0.149 C 
BRANCH  29  31
ATOM     30  N   UNL     1      33.232  -8.101 -22.240  0.00  0.00    -0.189 NA
ATOM     31  C   UNL     1      33.310  -9.107 -22.821  0.00  0.00    +0.120 C 
ENDBRANCH  29  31
ENDBRANCH  16  25
TORSDOF 2
ENDMDL
MODEL 4
REMARK VINA RESULT:      -9.0      4.322      6.871
REMARK  Name = 9886249
REMARK  2 active torsions:
REMARK  status: ('A' for Active; 'I' for Inactive)
REMARK    1  A    between atoms: C_16  and  C_25
REMARK    2  A    between atoms: C_29  and  C_31
REMARK                            x       y       z     vdW  Elec       q    Type
REMARK                         _______ _______ _______ _____ _____    ______ ____
ROOT
ATOM      1  F   UNL     1      33.676 -14.978 -20.451  0.00  0.00    -0.203 F 
ATOM      2  F   UNL     1      35.419 -16.907 -25.256  0.00  0.00    -0.204 F 
ATOM      3  O   UNL     1      32.487 -22.877 -17.986  0.00  0.00    -0.270 OA
ATOM      4  N   UNL     1      33.759 -21.649 -19.519  0.00  0.00    -0.276 N 
ATOM      5  N   UNL     1      33.596 -17.708 -20.871  0.00  0.00    -0.316 N 
ATOM      6  N   UNL     1      34.048 -19.644 -22.393  0.00  0.00    -0.242 NA
ATOM      7  N   UNL     1      34.654 -19.318 -24.591  0.00  0.00    -0.343 N 
ATOM      8  C   UNL     1      33.775 -19.141 -21.038  0.00  0.00    +0.145 C 
ATOM      9  C   UNL     1      32.472 -19.825 -20.556  0.00  0.00    +0.063 C 
ATOM     10  C   UNL     1      34.951 -19.580 -20.130  0.00  0.00    +0.063 C 
ATOM     11  C   UNL     1      32.623 -21.337 -20.383  0.00  0.00    +0.097 C 
ATOM     12  C   UNL     1      35.043 -21.099 -19.968  0.00  0.00    +0.097 C 
ATOM     13  C   UNL     1      34.073 -16.858 -21.850  0.00  0.00    +0.078 C 
ATOM     14  C   UNL     1      34.393 -18.822 -23.335  0.00  0.00    +0.126 C 
ATOM     15  C   UNL     1      34.498 -17.350 -23.091  0.00  0.00    +0.074 C 
ATOM     16  C   UNL     1      33.561 -22.415 -18.369  0.00  0.00    +0.251 C 
ATOM     17  C   UNL     1      34.114 -15.475 -21.618  0.00  0.00    +0.153 C 
ATOM     18  C   UNL     1      34.986 -16.469 -24.067  0.00  0.00    +0.144 C 
ATOM     19  C   UNL     1      34.593 -14.600 -22.592  0.00  0.00    +0.033 C 
ATOM     20  C   UNL     1      35.033 -15.098 -23.812  0.00  0.00    +0.032 C 
ATOM     21  H   UNL     1      33.143 -17.349 -20.073  0.00  0.00    +0.148 HD
ATOM     22  H   UNL     1      34.587 -20.286 -24.762  0.00  0.00    +0.144 HD
ATOM     23  H   UNL     1      34.908 -18.706 -25.319  0.00  0.00    +0.144 HD
ENDROOT
BRANCH  16  25
ATOM     24  N   UNL     1      35.707 -23.997 -15.743  0.00  0.00    -0.233 NA
ATOM     25  C   UNL     1      34.727 -22.705 -17.527  0.00  0.00    +0.073 C 
ATOM     26  C   UNL     1      35.912 -22.004 -17.691  0.00  0.00    +0.008 C 
ATOM     27  C   UNL     1      34.671 -23.682 -16.552  0.00  0.00    +0.104 C 
ATOM     28  C   UNL     1      37.001 -22.299 -16.878  0.00  0.00    +0.030 C 
ATOM     29  C   UNL     1      36.849 -23.296 -15.928  0.00  0.00    +0.149 C 
BRANCH  29  31
ATOM     30  N   UNL     1      38.792 -23.953 -14.346  0.00  0.00    -0.189 NA
ATOM     31  C   UNL     1      37.919 -23.657 -15.057  0.00  0.00    +0.120 C 
ENDBRANCH  29  31
ENDBRANCH  16  25
TORSDOF 2
ENDMDL
