MODEL 1
REMARK VINA RESULT:      -9.8      0.000      0.000
REMARK  Name = 5090
REMARK  3 active torsions:
REMARK  status: ('A' for Active; 'I' for Inactive)
REMARK    1  A    between atoms: C_3  and  C_7
REMARK    2  A    between atoms: C_4  and  C_17
REMARK    3  A    between atoms: C_8  and  S_13
REMARK                            x       y       z     vdW  Elec       q    Type
REMARK                         _______ _______ _______ _____ _____    ______ ____
ROOT
ATOM      1  O   UNL     1      33.391 -14.888 -27.009  0.00  0.00    -0.440 OA
ATOM      2  O   UNL     1      33.378 -16.709 -25.616  0.00  0.00    -0.245 OA
ATOM      3  C   UNL     1      33.565 -13.298 -25.361  0.00  0.00    +0.028 C 
ATOM      4  C   UNL     1      33.549 -14.480 -24.734  0.00  0.00    +0.075 C 
ATOM      5  C   UNL     1      33.506 -13.476 -26.831  0.00  0.00    +0.236 C 
ATOM      6  C   UNL     1      33.428 -15.504 -25.793  0.00  0.00    +0.341 C 
ENDROOT
BRANCH   3   7
ATOM      7  C   UNL     1      33.638 -11.951 -24.775  0.00  0.00    -0.000 C 
ATOM      8  C   UNL     1      33.772  -9.387 -23.661  0.00  0.00    +0.106 C 
ATOM      9  C   UNL     1      32.692 -11.542 -23.827  0.00  0.00    +0.001 C 
ATOM     10  C   UNL     1      34.651 -11.066 -25.160  0.00  0.00    +0.001 C 
ATOM     11  C   UNL     1      32.760 -10.264 -23.273  0.00  0.00    +0.018 C 
ATOM     12  C   UNL     1      34.718  -9.788 -24.605  0.00  0.00    +0.018 C 
BRANCH   8  13
ATOM     13  S   UNL     1      33.855  -7.787 -22.966  0.00  0.00    +0.010 S 
ATOM     14  O   UNL     1      33.377  -7.869 -21.594  0.00  0.00    -0.169 OA
ATOM     15  O   UNL     1      35.169  -7.222 -23.241  0.00  0.00    -0.169 OA
ATOM     16  C   UNL     1      32.678  -6.838 -23.901  0.00  0.00    +0.182 C 
ENDBRANCH   8  13
ENDBRANCH   3   7
BRANCH   4  17
ATOM     17  C   UNL     1      33.636 -14.787 -23.305  0.00  0.00    +0.006 C 
ATOM     18  C   UNL     1      32.602 -14.411 -22.447  0.00  0.00    +0.000 C 
ATOM     19  C   UNL     1      34.752 -15.454 -22.802  0.00  0.00    +0.000 C 
ATOM     20  C   UNL     1      32.685 -14.702 -21.086  0.00  0.00    +0.000 C 
ATOM     21  C   UNL     1      34.835 -15.745 -21.440  0.00  0.00    +0.000 C 
ATOM     22  C   UNL     1      33.801 -15.369 -20.582  0.00  0.00    +0.000 C 
ENDBRANCH   4  17
TORSDOF 3
ENDMDL
MODEL 2
REMARK VINA RESULT:      -9.6      0.624      1.200
REMARK  Name = 5090
REMARK  3 active torsions:
REMARK  status: ('A' for Active; 'I' for Inactive)
REMARK    1  A    between atoms: C_3  and  C_7
REMARK    2  A    between atoms: C_4  and  C_17
REMARK    3  A    between atoms: C_8  and  S_13
REMARK                            x       y       z     vdW  Elec       q    Type
REMARK                         _______ _______ _______ _____ _____    ______ ____
ROOT
ATOM      1  O   UNL     1      33.481 -15.072 -26.828  0.00  0.00    -0.440 OA
ATOM      2  O   UNL     1      33.690 -16.944 -25.521  0.00  0.00    -0.245 OA
ATOM      3  C   UNL     1      33.479 -13.549 -25.109  0.00  0.00    +0.028 C 
ATOM      4  C   UNL     1      33.604 -14.752 -24.537  0.00  0.00    +0.075 C 
ATOM      5  C   UNL     1      33.432 -13.665 -26.586  0.00  0.00    +0.236 C 
ATOM      6  C   UNL     1      33.598 -15.734 -25.642  0.00  0.00    +0.341 C 
ENDROOT
BRANCH   3   7
ATOM      7  C   UNL     1      33.397 -12.231 -24.462  0.00  0.00    -0.000 C 
ATOM      8  C   UNL     1      33.246  -9.724 -23.227  0.00  0.00    +0.106 C 
ATOM      9  C   UNL     1      34.268 -11.203 -24.842  0.00  0.00    +0.001 C 
ATOM     10  C   UNL     1      32.450 -11.994 -23.459  0.00  0.00    +0.001 C 
ATOM     11  C   UNL     1      34.191  -9.954 -24.226  0.00  0.00    +0.018 C 
ATOM     12  C   UNL     1      32.375 -10.744 -22.844  0.00  0.00    +0.018 C 
BRANCH   8  13
ATOM     13  S   UNL     1      33.151  -8.159 -22.457  0.00  0.00    +0.010 S 
ATOM     14  O   UNL     1      32.837  -8.371 -21.052  0.00  0.00    -0.169 OA
ATOM     15  O   UNL     1      34.326  -7.381 -22.825  0.00  0.00    -0.169 OA
ATOM     16  C   UNL     1      31.750  -7.375 -23.220  0.00  0.00    +0.182 C 
ENDBRANCH   8  13
ENDBRANCH   3   7
BRANCH   4  17
ATOM     17  C   UNL     1      33.735 -15.111 -23.124  0.00  0.00    +0.006 C 
ATOM     18  C   UNL     1      32.705 -14.815 -22.231  0.00  0.00    +0.000 C 
ATOM     19  C   UNL     1      34.890 -15.748 -22.670  0.00  0.00    +0.000 C 
ATOM     20  C   UNL     1      32.830 -15.156 -20.884  0.00  0.00    +0.000 C 
ATOM     21  C   UNL     1      35.014 -16.090 -21.323  0.00  0.00    +0.000 C 
ATOM     22  C   UNL     1      33.984 -15.793 -20.430  0.00  0.00    +0.000 C 
ENDBRANCH   4  17
TORSDOF 3
ENDMDL
MODEL 3
REMARK VINA RESULT:      -8.9      4.918      8.167
REMARK  Name = 5090
REMARK  3 active torsions:
REMARK  status: ('A' for Active; 'I' for Inactive)
REMARK    1  A    between atoms: C_3  and  C_7
REMARK    2  A    between atoms: C_4  and  C_17
REMARK    3  A    between atoms: C_8  and  S_13
REMARK                            x       y       z     vdW  Elec       q    Type
REMARK                         _______ _______ _______ _____ _____    ______ ____
ROOT
ATOM      1  O   UNL     1      34.414 -16.809 -25.990  0.00  0.00    -0.440 OA
ATOM      2  O   UNL     1      33.514 -14.764 -25.477  0.00  0.00    -0.245 OA
ATOM      3  C   UNL     1      34.711 -17.517 -23.825  0.00  0.00    +0.028 C 
ATOM      4  C   UNL     1      34.167 -16.296 -23.744  0.00  0.00    +0.075 C 
ATOM      5  C   UNL     1      34.867 -17.936 -25.239  0.00  0.00    +0.236 C 
ATOM      6  C   UNL     1      33.983 -15.837 -25.137  0.00  0.00    +0.341 C 
ENDROOT
BRANCH   3   7
ATOM      7  C   UNL     1      35.127 -18.409 -22.733  0.00  0.00    -0.000 C 
ATOM      8  C   UNL     1      35.917 -20.103 -20.650  0.00  0.00    +0.106 C 
ATOM      9  C   UNL     1      34.197 -19.258 -22.122  0.00  0.00    +0.001 C 
ATOM     10  C   UNL     1      36.456 -18.415 -22.292  0.00  0.00    +0.001 C 
ATOM     11  C   UNL     1      34.592 -20.102 -21.084  0.00  0.00    +0.018 C 
ATOM     12  C   UNL     1      36.849 -19.259 -21.254  0.00  0.00    +0.018 C 
BRANCH   8  13
ATOM     13  S   UNL     1      36.409 -21.160 -19.350  0.00  0.00    +0.010 S 
ATOM     14  O   UNL     1      37.256 -22.201 -19.915  0.00  0.00    -0.169 OA
ATOM     15  O   UNL     1      36.901 -20.350 -18.244  0.00  0.00    -0.169 OA
ATOM     16  C   UNL     1      34.898 -21.921 -18.803  0.00  0.00    +0.182 C 
ENDBRANCH   8  13
ENDBRANCH   3   7
BRANCH   4  17
ATOM     17  C   UNL     1      33.793 -15.512 -22.567  0.00  0.00    +0.006 C 
ATOM     18  C   UNL     1      32.668 -14.688 -22.607  0.00  0.00    +0.000 C 
ATOM     19  C   UNL     1      34.562 -15.585 -21.406  0.00  0.00    +0.000 C 
ATOM     20  C   UNL     1      32.311 -13.940 -21.486  0.00  0.00    +0.000 C 
ATOM     21  C   UNL     1      34.205 -14.836 -20.285  0.00  0.00    +0.000 C 
ATOM     22  C   UNL     1      33.079 -14.013 -20.325  0.00  0.00    +0.000 C 
ENDBRANCH   4  17
TORSDOF 3
ENDMDL
MODEL 4
REMARK VINA RESULT:      -8.9      3.525      7.298
REMARK  Name = 5090
REMARK  3 active torsions:
REMARK  status: ('A' for Active; 'I' for Inactive)
REMARK    1  A    between atoms: C_3  and  C_7
REMARK    2  A    between atoms: C_4  and  C_17
REMARK    3  A    between atoms: C_8  and  S_13
REMARK                            x       y       z     vdW  Elec       q    Type
REMARK                         _______ _______ _______ _____ _____    ______ ____
ROOT
ATOM      1  O   UNL     1      31.465 -11.474 -20.643  0.00  0.00    -0.440 OA
ATOM      2  O   UNL     1      31.429 -10.302 -22.614  0.00  0.00    -0.245 OA
ATOM      3  C   UNL     1      32.534 -13.335 -21.463  0.00  0.00    +0.028 C 
ATOM      4  C   UNL     1      32.418 -12.490 -22.495  0.00  0.00    +0.075 C 
ATOM      5  C   UNL     1      31.980 -12.739 -20.224  0.00  0.00    +0.236 C 
ATOM      6  C   UNL     1      31.722 -11.296 -21.970  0.00  0.00    +0.341 C 
ENDROOT
BRANCH   3   7
ATOM      7  C   UNL     1      33.120 -14.684 -21.445  0.00  0.00    -0.000 C 
ATOM      8  C   UNL     1      34.234 -17.251 -21.407  0.00  0.00    +0.106 C 
ATOM      9  C   UNL     1      32.381 -15.767 -20.957  0.00  0.00    +0.001 C 
ATOM     10  C   UNL     1      34.421 -14.895 -21.914  0.00  0.00    +0.001 C 
ATOM     11  C   UNL     1      32.937 -17.046 -20.939  0.00  0.00    +0.018 C 
ATOM     12  C   UNL     1      34.977 -16.175 -21.895  0.00  0.00    +0.018 C 
BRANCH   8  13
ATOM     13  S   UNL     1      34.930 -18.852 -21.382  0.00  0.00    +0.010 S 
ATOM     14  O   UNL     1      35.118 -19.280 -22.761  0.00  0.00    -0.169 OA
ATOM     15  O   UNL     1      36.059 -18.862 -20.462  0.00  0.00    -0.169 OA
ATOM     16  C   UNL     1      33.665 -19.872 -20.659  0.00  0.00    +0.182 C 
ENDBRANCH   8  13
ENDBRANCH   3   7
BRANCH   4  17
ATOM     17  C   UNL     1      32.863 -12.634 -23.882  0.00  0.00    +0.006 C 
ATOM     18  C   UNL     1      33.630 -11.632 -24.475  0.00  0.00    +0.000 C 
ATOM     19  C   UNL     1      32.521 -13.773 -24.610  0.00  0.00    +0.000 C 
ATOM     20  C   UNL     1      34.055 -11.768 -25.797  0.00  0.00    +0.000 C 
ATOM     21  C   UNL     1      32.946 -13.910 -25.932  0.00  0.00    +0.000 C 
ATOM     22  C   UNL     1      33.712 -12.907 -26.525  0.00  0.00    +0.000 C 
ENDBRANCH   4  17
TORSDOF 3
ENDMDL
MODEL 5
REMARK VINA RESULT:      -8.8      2.988      7.034
REMARK  Name = 5090
REMARK  3 active torsions:
REMARK  status: ('A' for Active; 'I' for Inactive)
REMARK    1  A    between atoms: C_3  and  C_7
REMARK    2  A    between atoms: C_4  and  C_17
REMARK    3  A    between atoms: C_8  and  S_13
REMARK                            x       y       z     vdW  Elec       q    Type
REMARK                         _______ _______ _______ _____ _____    ______ ____
ROOT
ATOM      1  O   UNL     1      31.103 -11.082 -21.296  0.00  0.00    -0.440 OA
ATOM      2  O   UNL     1      31.600  -9.374 -22.742  0.00  0.00    -0.245 OA
ATOM      3  C   UNL     1      32.554 -12.620 -22.195  0.00  0.00    +0.028 C 
ATOM      4  C   UNL     1      32.700 -11.504 -22.921  0.00  0.00    +0.075 C 
ATOM      5  C   UNL     1      31.571 -12.418 -21.104  0.00  0.00    +0.236 C 
ATOM      6  C   UNL     1      31.761 -10.517 -22.348  0.00  0.00    +0.341 C 
ENDROOT
BRANCH   3   7
ATOM      7  C   UNL     1      33.227 -13.916 -22.362  0.00  0.00    -0.000 C 
ATOM      8  C   UNL     1      34.505 -16.385 -22.682  0.00  0.00    +0.106 C 
ATOM      9  C   UNL     1      33.241 -14.548 -23.611  0.00  0.00    +0.001 C 
ATOM     10  C   UNL     1      33.859 -14.530 -21.275  0.00  0.00    +0.001 C 
ATOM     11  C   UNL     1      33.878 -15.778 -23.769  0.00  0.00    +0.018 C 
ATOM     12  C   UNL     1      34.496 -15.761 -21.434  0.00  0.00    +0.018 C 
BRANCH   8  13
ATOM     13  S   UNL     1      35.302 -17.926 -22.881  0.00  0.00    +0.010 S 
ATOM     14  O   UNL     1      35.260 -18.273 -24.294  0.00  0.00    -0.169 OA
ATOM     15  O   UNL     1      36.581 -17.889 -22.184  0.00  0.00    -0.169 OA
ATOM     16  C   UNL     1      34.267 -19.075 -22.003  0.00  0.00    +0.182 C 
ENDBRANCH   8  13
ENDBRANCH   3   7
BRANCH   4  17
ATOM     17  C   UNL     1      33.586 -11.230 -24.053  0.00  0.00    +0.006 C 
ATOM     18  C   UNL     1      34.527 -10.204 -23.969  0.00  0.00    +0.000 C 
ATOM     19  C   UNL     1      33.487 -11.993 -25.216  0.00  0.00    +0.000 C 
ATOM     20  C   UNL     1      35.371  -9.942 -25.048  0.00  0.00    +0.000 C 
ATOM     21  C   UNL     1      34.331 -11.731 -26.296  0.00  0.00    +0.000 C 
ATOM     22  C   UNL     1      35.273 -10.705 -26.212  0.00  0.00    +0.000 C 
ENDBRANCH   4  17
TORSDOF 3
ENDMDL
MODEL 6
REMARK VINA RESULT:      -8.6     11.891     15.328
REMARK  Name = 5090
REMARK  3 active torsions:
REMARK  status: ('A' for Active; 'I' for Inactive)
REMARK    1  A    between atoms: C_3  and  C_7
REMARK    2  A    between atoms: C_4  and  C_17
REMARK    3  A    between atoms: C_8  and  S_13
REMARK                            x       y       z     vdW  Elec       q    Type
REMARK                         _______ _______ _______ _____ _____    ______ ____
ROOT
ATOM      1  O   UNL     1      30.850 -23.682 -15.212  0.00  0.00    -0.440 OA
ATOM      2  O   UNL     1      30.728 -22.669 -17.265  0.00  0.00    -0.245 OA
ATOM      3  C   UNL     1      33.142 -23.808 -15.116  0.00  0.00    +0.028 C 
ATOM      4  C   UNL     1      32.852 -23.216 -16.282  0.00  0.00    +0.075 C 
ATOM      5  C   UNL     1      31.907 -24.105 -14.350  0.00  0.00    +0.236 C 
ATOM      6  C   UNL     1      31.377 -23.143 -16.348  0.00  0.00    +0.341 C 
ENDROOT
BRANCH   3   7
ATOM      7  C   UNL     1      34.461 -24.154 -14.568  0.00  0.00    -0.000 C 
ATOM      8  C   UNL     1      36.975 -24.810 -13.527  0.00  0.00    +0.106 C 
ATOM      9  C   UNL     1      34.975 -23.455 -13.470  0.00  0.00    +0.001 C 
ATOM     10  C   UNL     1      35.216 -25.184 -15.141  0.00  0.00    +0.001 C 
ATOM     11  C   UNL     1      36.228 -23.783 -12.951  0.00  0.00    +0.018 C 
ATOM     12  C   UNL     1      36.469 -25.511 -14.622  0.00  0.00    +0.018 C 
BRANCH   8  13
ATOM     13  S   UNL     1      38.543 -25.219 -12.877  0.00  0.00    +0.010 S 
ATOM     14  O   UNL     1      39.172 -23.989 -12.418  0.00  0.00    -0.169 OA
ATOM     15  O   UNL     1      38.396 -26.341 -11.961  0.00  0.00    -0.169 OA
ATOM     16  C   UNL     1      39.461 -25.813 -14.280  0.00  0.00    +0.182 C 
ENDBRANCH   8  13
ENDBRANCH   3   7
BRANCH   4  17
ATOM     17  C   UNL     1      33.744 -22.710 -17.325  0.00  0.00    +0.006 C 
ATOM     18  C   UNL     1      35.100 -22.522 -17.052  0.00  0.00    +0.000 C 
ATOM     19  C   UNL     1      33.241 -22.414 -18.591  0.00  0.00    +0.000 C 
ATOM     20  C   UNL     1      35.951 -22.039 -18.046  0.00  0.00    +0.000 C 
ATOM     21  C   UNL     1      34.092 -21.930 -19.585  0.00  0.00    +0.000 C 
ATOM     22  C   UNL     1      35.447 -21.742 -19.312  0.00  0.00    +0.000 C 
ENDBRANCH   4  17
TORSDOF 3
ENDMDL
MODEL 7
REMARK VINA RESULT:      -8.6     12.670     15.378
REMARK  Name = 5090
REMARK  3 active torsions:
REMARK  status: ('A' for Active; 'I' for Inactive)
REMARK    1  A    between atoms: C_3  and  C_7
REMARK    2  A    between atoms: C_4  and  C_17
REMARK    3  A    between atoms: C_8  and  S_13
REMARK                            x       y       z     vdW  Elec       q    Type
REMARK                         _______ _______ _______ _____ _____    ______ ____
ROOT
ATOM      1  O   UNL     1      32.876 -22.352 -18.397  0.00  0.00    -0.440 OA
ATOM      2  O   UNL     1      30.720 -22.431 -17.623  0.00  0.00    -0.245 OA
ATOM      3  C   UNL     1      33.866 -23.207 -16.508  0.00  0.00    +0.028 C 
ATOM      4  C   UNL     1      32.552 -23.176 -16.256  0.00  0.00    +0.075 C 
ATOM      5  C   UNL     1      34.154 -22.728 -17.881  0.00  0.00    +0.236 C 
ATOM      6  C   UNL     1      31.915 -22.618 -17.468  0.00  0.00    +0.341 C 
ENDROOT
BRANCH   3   7
ATOM      7  C   UNL     1      34.958 -23.641 -15.625  0.00  0.00    -0.000 C 
ATOM      8  C   UNL     1      37.034 -24.470 -13.940  0.00  0.00    +0.106 C 
ATOM      9  C   UNL     1      35.123 -24.998 -15.322  0.00  0.00    +0.001 C 
ATOM     10  C   UNL     1      35.841 -22.703 -15.078  0.00  0.00    +0.001 C 
ATOM     11  C   UNL     1      36.158 -25.410 -14.483  0.00  0.00    +0.018 C 
ATOM     12  C   UNL     1      36.875 -23.116 -14.239  0.00  0.00    +0.018 C 
BRANCH   8  13
ATOM     13  S   UNL     1      38.329 -24.987 -12.889  0.00  0.00    +0.010 S 
ATOM     14  O   UNL     1      38.892 -23.804 -12.257  0.00  0.00    -0.169 OA
ATOM     15  O   UNL     1      37.855 -26.090 -12.065  0.00  0.00    -0.169 OA
ATOM     16  C   UNL     1      39.553 -25.655 -13.993  0.00  0.00    +0.182 C 
ENDBRANCH   8  13
ENDBRANCH   3   7
BRANCH   4  17
ATOM     17  C   UNL     1      31.815 -23.594 -15.063  0.00  0.00    +0.006 C 
ATOM     18  C   UNL     1      31.042 -24.756 -15.092  0.00  0.00    +0.000 C 
ATOM     19  C   UNL     1      31.883 -22.832 -13.897  0.00  0.00    +0.000 C 
ATOM     20  C   UNL     1      30.339 -25.155 -13.956  0.00  0.00    +0.000 C 
ATOM     21  C   UNL     1      31.180 -23.231 -12.761  0.00  0.00    +0.000 C 
ATOM     22  C   UNL     1      30.407 -24.392 -12.790  0.00  0.00    +0.000 C 
ENDBRANCH   4  17
TORSDOF 3
ENDMDL
MODEL 8
REMARK VINA RESULT:      -8.6     11.332     14.018
REMARK  Name = 5090
REMARK  3 active torsions:
REMARK  status: ('A' for Active; 'I' for Inactive)
REMARK    1  A    between atoms: C_3  and  C_7
REMARK    2  A    between atoms: C_4  and  C_17
REMARK    3  A    between atoms: C_8  and  S_13
REMARK                            x       y       z     vdW  Elec       q    Type
REMARK                         _______ _______ _______ _____ _____    ______ ____
ROOT
ATOM      1  O   UNL     1      36.840 -24.071 -14.086  0.00  0.00    -0.440 OA
ATOM      2  O   UNL     1      38.289 -23.262 -15.667  0.00  0.00    -0.245 OA
ATOM      3  C   UNL     1      34.907 -23.436 -15.152  0.00  0.00    +0.028 C 
ATOM      4  C   UNL     1      35.912 -23.047 -15.946  0.00  0.00    +0.075 C 
ATOM      5  C   UNL     1      35.420 -24.138 -13.951  0.00  0.00    +0.236 C 
ATOM      6  C   UNL     1      37.156 -23.448 -15.257  0.00  0.00    +0.341 C 
ENDROOT
BRANCH   3   7
ATOM      7  C   UNL     1      33.461 -23.253 -15.348  0.00  0.00    -0.000 C 
ATOM      8  C   UNL     1      30.708 -22.909 -15.720  0.00  0.00    +0.106 C 
ATOM      9  C   UNL     1      32.639 -22.915 -14.267  0.00  0.00    +0.001 C 
ATOM     10  C   UNL     1      32.893 -23.418 -16.617  0.00  0.00    +0.001 C 
ATOM     11  C   UNL     1      31.268 -22.743 -14.453  0.00  0.00    +0.018 C 
ATOM     12  C   UNL     1      31.522 -23.246 -16.802  0.00  0.00    +0.018 C 
BRANCH   8  13
ATOM     13  S   UNL     1      28.991 -22.694 -15.951  0.00  0.00    +0.010 S 
ATOM     14  O   UNL     1      28.502 -21.824 -14.892  0.00  0.00    -0.169 OA
ATOM     15  O   UNL     1      28.743 -22.347 -17.344  0.00  0.00    -0.169 OA
ATOM     16  C   UNL     1      28.304 -24.314 -15.691  0.00  0.00    +0.182 C 
ENDBRANCH   8  13
ENDBRANCH   3   7
BRANCH   4  17
ATOM     17  C   UNL     1      35.876 -22.371 -17.243  0.00  0.00    +0.006 C 
ATOM     18  C   UNL     1      34.844 -22.642 -18.142  0.00  0.00    +0.000 C 
ATOM     19  C   UNL     1      36.873 -21.456 -17.581  0.00  0.00    +0.000 C 
ATOM     20  C   UNL     1      34.809 -21.997 -19.379  0.00  0.00    +0.000 C 
ATOM     21  C   UNL     1      36.838 -20.812 -18.818  0.00  0.00    +0.000 C 
ATOM     22  C   UNL     1      35.807 -21.083 -19.717  0.00  0.00    +0.000 C 
ENDBRANCH   4  17
TORSDOF 3
ENDMDL
MODEL 9
REMARK VINA RESULT:      -8.5     10.624     14.234
REMARK  Name = 5090
REMARK  3 active torsions:
REMARK  status: ('A' for Active; 'I' for Inactive)
REMARK    1  A    between atoms: C_3  and  C_7
REMARK    2  A    between atoms: C_4  and  C_17
REMARK    3  A    between atoms: C_8  and  S_13
REMARK                            x       y       z     vdW  Elec       q    Type
REMARK                         _______ _______ _______ _____ _____    ______ ____
ROOT
ATOM      1  O   UNL     1      36.765 -24.443 -12.500  0.00  0.00    -0.440 OA
ATOM      2  O   UNL     1      34.816 -25.037 -11.448  0.00  0.00    -0.245 OA
ATOM      3  C   UNL     1      35.790 -23.595 -14.400  0.00  0.00    +0.028 C 
ATOM      4  C   UNL     1      34.783 -24.005 -13.619  0.00  0.00    +0.075 C 
ATOM      5  C   UNL     1      37.098 -23.806 -13.734  0.00  0.00    +0.236 C 
ATOM      6  C   UNL     1      35.410 -24.559 -12.400  0.00  0.00    +0.341 C 
ENDROOT
BRANCH   3   7
ATOM      7  C   UNL     1      35.724 -22.997 -15.741  0.00  0.00    -0.000 C 
ATOM      8  C   UNL     1      35.596 -21.855 -18.293  0.00  0.00    +0.106 C 
ATOM      9  C   UNL     1      36.791 -22.234 -16.228  0.00  0.00    +0.001 C 
ATOM     10  C   UNL     1      34.592 -23.184 -16.543  0.00  0.00    +0.001 C 
ATOM     11  C   UNL     1      36.727 -21.665 -17.500  0.00  0.00    +0.018 C 
ATOM     12  C   UNL     1      34.528 -22.615 -17.815  0.00  0.00    +0.018 C 
BRANCH   8  13
ATOM     13  S   UNL     1      35.517 -21.142 -19.885  0.00  0.00    +0.010 S 
ATOM     14  O   UNL     1      36.268 -19.896 -19.856  0.00  0.00    -0.169 OA
ATOM     15  O   UNL     1      35.844 -22.160 -20.875  0.00  0.00    -0.169 OA
ATOM     16  C   UNL     1      33.798 -20.742 -20.104  0.00  0.00    +0.182 C 
ENDBRANCH   8  13
ENDBRANCH   3   7
BRANCH   4  17
ATOM     17  C   UNL     1      33.338 -23.949 -13.843  0.00  0.00    +0.006 C 
ATOM     18  C   UNL     1      32.601 -25.129 -13.938  0.00  0.00    +0.000 C 
ATOM     19  C   UNL     1      32.699 -22.715 -13.962  0.00  0.00    +0.000 C 
ATOM     20  C   UNL     1      31.223 -25.075 -14.152  0.00  0.00    +0.000 C 
ATOM     21  C   UNL     1      31.321 -22.662 -14.176  0.00  0.00    +0.000 C 
ATOM     22  C   UNL     1      30.584 -23.842 -14.272  0.00  0.00    +0.000 C 
ENDBRANCH   4  17
TORSDOF 3
ENDMDL
