MODEL 1
REMARK VINA RESULT:      -7.6      0.000      0.000
REMARK  Name = 2724
REMARK  7 active torsions:
REMARK  status: ('A' for Active; 'I' for Inactive)
REMARK    1  A    between atoms: C_1  and  O_2
REMARK    2  A    between atoms: C_1  and  C_4
REMARK    3  A    between atoms: C_1  and  C_13
REMARK    4  A    between atoms: C_4  and  O_5
REMARK    5  A    between atoms: O_5  and  C_7
REMARK    6  A    between atoms: C_13  and  O_14
REMARK    7  A    between atoms: O_14  and  C_17
REMARK                            x       y       z     vdW  Elec       q    Type
REMARK                         _______ _______ _______ _____ _____    ______ ____
ROOT
ATOM      1  C   UNL     1      35.371 -17.645 -23.780  0.00  0.00    +0.198 C 
ENDROOT
BRANCH   1   2
ATOM      2  O   UNL     1      35.791 -16.300 -23.535  0.00  0.00    -0.378 OA
ATOM      3  H   UNL     1      36.273 -15.966 -24.307  0.00  0.00    +0.211 HD
ENDBRANCH   1   2
BRANCH   1   4
ATOM      4  C   UNL     1      34.661 -18.150 -22.531  0.00  0.00    +0.238 C 
BRANCH   4   5
ATOM      5  O   UNL     1      35.592 -18.873 -21.731  0.00  0.00    -0.473 OA
BRANCH   5   7
ATOM      6 CL   UNL     1      33.375 -22.961 -18.148  0.00  0.00    -0.082 Cl
ATOM      7  C   UNL     1      35.075 -19.826 -20.895  0.00  0.00    +0.139 C 
ATOM      8  C   UNL     1      35.931 -20.702 -20.237  0.00  0.00    +0.038 C 
ATOM      9  C   UNL     1      33.698 -19.909 -20.712  0.00  0.00    +0.038 C 
ATOM     10  C   UNL     1      35.404 -21.674 -19.385  0.00  0.00    +0.015 C 
ATOM     11  C   UNL     1      33.172 -20.880 -19.861  0.00  0.00    +0.015 C 
ATOM     12  C   UNL     1      34.024 -21.763 -19.198  0.00  0.00    +0.058 C 
ENDBRANCH   5   7
ENDBRANCH   4   5
ENDBRANCH   1   4
BRANCH   1  13
ATOM     13  C   UNL     1      34.443 -17.656 -24.990  0.00  0.00    +0.243 C 
BRANCH  13  14
ATOM     14  O   UNL     1      34.606 -16.453 -25.734  0.00  0.00    -0.432 OA
BRANCH  14  17
ATOM     15  O   UNL     1      32.671 -15.734 -26.752  0.00  0.00    -0.227 OA
ATOM     16  N   UNL     1      33.427 -14.769 -24.808  0.00  0.00    -0.295 N 
ATOM     17  C   UNL     1      33.496 -15.662 -25.847  0.00  0.00    +0.399 C 
ATOM     18  H   UNL     1      34.126 -14.766 -24.114  0.00  0.00    +0.148 HD
ATOM     19  H   UNL     1      32.679 -14.131 -24.754  0.00  0.00    +0.148 HD
ENDBRANCH  14  17
ENDBRANCH  13  14
ENDBRANCH   1  13
TORSDOF 7
ENDMDL
MODEL 2
REMARK VINA RESULT:      -7.6      6.965      9.695
REMARK  Name = 2724
REMARK  7 active torsions:
REMARK  status: ('A' for Active; 'I' for Inactive)
REMARK    1  A    between atoms: C_1  and  O_2
REMARK    2  A    between atoms: C_1  and  C_4
REMARK    3  A    between atoms: C_1  and  C_13
REMARK    4  A    between atoms: C_4  and  O_5
REMARK    5  A    between atoms: O_5  and  C_7
REMARK    6  A    between atoms: C_13  and  O_14
REMARK    7  A    between atoms: O_14  and  C_17
REMARK                            x       y       z     vdW  Elec       q    Type
REMARK                         _______ _______ _______ _____ _____    ______ ____
ROOT
ATOM      1  C   UNL     1      34.465 -23.813 -15.441  0.00  0.00    +0.198 C 
ENDROOT
BRANCH   1   2
ATOM      2  O   UNL     1      33.705 -22.968 -14.572  0.00  0.00    -0.378 OA
ATOM      3  H   UNL     1      33.667 -22.073 -14.942  0.00  0.00    +0.211 HD
ENDBRANCH   1   2
BRANCH   1   4
ATOM      4  C   UNL     1      35.109 -22.934 -16.505  0.00  0.00    +0.238 C 
BRANCH   4   5
ATOM      5  O   UNL     1      34.545 -23.254 -17.772  0.00  0.00    -0.473 OA
BRANCH   5   7
ATOM      6 CL   UNL     1      34.444 -18.960 -21.776  0.00  0.00    -0.082 Cl
ATOM      7  C   UNL     1      34.522 -22.253 -18.706  0.00  0.00    +0.139 C 
ATOM      8  C   UNL     1      35.717 -21.764 -19.222  0.00  0.00    +0.038 C 
ATOM      9  C   UNL     1      33.302 -21.734 -19.130  0.00  0.00    +0.038 C 
ATOM     10  C   UNL     1      35.693 -20.743 -20.174  0.00  0.00    +0.015 C 
ATOM     11  C   UNL     1      33.278 -20.714 -20.081  0.00  0.00    +0.015 C 
ATOM     12  C   UNL     1      34.474 -20.219 -20.603  0.00  0.00    +0.058 C 
ENDBRANCH   5   7
ENDBRANCH   4   5
ENDBRANCH   1   4
BRANCH   1  13
ATOM     13  C   UNL     1      35.514 -24.547 -14.614  0.00  0.00    +0.243 C 
BRANCH  13  14
ATOM     14  O   UNL     1      36.461 -25.167 -15.477  0.00  0.00    -0.432 OA
BRANCH  14  17
ATOM     15  O   UNL     1      36.689 -27.338 -16.210  0.00  0.00    -0.227 OA
ATOM     16  N   UNL     1      36.756 -26.820 -13.971  0.00  0.00    -0.295 N 
ATOM     17  C   UNL     1      36.640 -26.513 -15.304  0.00  0.00    +0.399 C 
ATOM     18  H   UNL     1      36.706 -26.106 -13.295  0.00  0.00    +0.148 HD
ATOM     19  H   UNL     1      36.889 -27.754 -13.691  0.00  0.00    +0.148 HD
ENDBRANCH  14  17
ENDBRANCH  13  14
ENDBRANCH   1  13
TORSDOF 7
ENDMDL
MODEL 3
REMARK VINA RESULT:      -7.5      6.454      9.425
REMARK  Name = 2724
REMARK  7 active torsions:
REMARK  status: ('A' for Active; 'I' for Inactive)
REMARK    1  A    between atoms: C_1  and  O_2
REMARK    2  A    between atoms: C_1  and  C_4
REMARK    3  A    between atoms: C_1  and  C_13
REMARK    4  A    between atoms: C_4  and  O_5
REMARK    5  A    between atoms: O_5  and  C_7
REMARK    6  A    between atoms: C_13  and  O_14
REMARK    7  A    between atoms: O_14  and  C_17
REMARK                            x       y       z     vdW  Elec       q    Type
REMARK                         _______ _______ _______ _____ _____    ______ ____
ROOT
ATOM      1  C   UNL     1      31.968 -23.353 -16.756  0.00  0.00    +0.198 C 
ENDROOT
BRANCH   1   2
ATOM      2  O   UNL     1      30.896 -22.467 -17.091  0.00  0.00    -0.378 OA
ATOM      3  H   UNL     1      30.999 -21.635 -16.603  0.00  0.00    +0.211 HD
ENDBRANCH   1   2
BRANCH   1   4
ATOM      4  C   UNL     1      33.169 -22.982 -17.615  0.00  0.00    +0.238 C 
BRANCH   4   5
ATOM      5  O   UNL     1      32.708 -22.382 -18.822  0.00  0.00    -0.473 OA
BRANCH   5   7
ATOM      6 CL   UNL     1      36.415 -18.729 -21.539  0.00  0.00    -0.082 Cl
ATOM      7  C   UNL     1      33.572 -21.530 -19.455  0.00  0.00    +0.139 C 
ATOM      8  C   UNL     1      33.071 -20.481 -20.217  0.00  0.00    +0.038 C 
ATOM      9  C   UNL     1      34.945 -21.722 -19.331  0.00  0.00    +0.038 C 
ATOM     10  C   UNL     1      33.952 -19.612 -20.863  0.00  0.00    +0.015 C 
ATOM     11  C   UNL     1      35.825 -20.854 -19.976  0.00  0.00    +0.015 C 
ATOM     12  C   UNL     1      35.329 -19.799 -20.742  0.00  0.00    +0.058 C 
ENDBRANCH   5   7
ENDBRANCH   4   5
ENDBRANCH   1   4
BRANCH   1  13
ATOM     13  C   UNL     1      32.279 -23.207 -15.271  0.00  0.00    +0.243 C 
BRANCH  13  14
ATOM     14  O   UNL     1      31.119 -23.511 -14.503  0.00  0.00    -0.432 OA
BRANCH  14  17
ATOM     15  O   UNL     1      31.978 -25.152 -13.137  0.00  0.00    -0.227 OA
ATOM     16  N   UNL     1      29.984 -25.442 -14.242  0.00  0.00    -0.295 N 
ATOM     17  C   UNL     1      31.107 -24.735 -13.893  0.00  0.00    +0.399 C 
ATOM     18  H   UNL     1      29.324 -25.045 -14.856  0.00  0.00    +0.148 HD
ATOM     19  H   UNL     1      29.837 -26.345 -13.879  0.00  0.00    +0.148 HD
ENDBRANCH  14  17
ENDBRANCH  13  14
ENDBRANCH   1  13
TORSDOF 7
ENDMDL
MODEL 4
REMARK VINA RESULT:      -7.4      1.597      1.886
REMARK  Name = 2724
REMARK  7 active torsions:
REMARK  status: ('A' for Active; 'I' for Inactive)
REMARK    1  A    between atoms: C_1  and  O_2
REMARK    2  A    between atoms: C_1  and  C_4
REMARK    3  A    between atoms: C_1  and  C_13
REMARK    4  A    between atoms: C_4  and  O_5
REMARK    5  A    between atoms: O_5  and  C_7
REMARK    6  A    between atoms: C_13  and  O_14
REMARK    7  A    between atoms: O_14  and  C_17
REMARK                            x       y       z     vdW  Elec       q    Type
REMARK                         _______ _______ _______ _____ _____    ______ ____
ROOT
ATOM      1  C   UNL     1      34.949 -16.340 -21.543  0.00  0.00    +0.198 C 
ENDROOT
BRANCH   1   2
ATOM      2  O   UNL     1      34.874 -15.414 -20.456  0.00  0.00    -0.378 OA
ATOM      3  H   UNL     1      34.779 -15.899 -19.622  0.00  0.00    +0.211 HD
ENDBRANCH   1   2
BRANCH   1   4
ATOM      4  C   UNL     1      33.954 -17.461 -21.275  0.00  0.00    +0.238 C 
BRANCH   4   5
ATOM      5  O   UNL     1      34.540 -18.701 -21.659  0.00  0.00    -0.473 OA
BRANCH   5   7
ATOM      6 CL   UNL     1      33.666 -23.261 -18.066  0.00  0.00    -0.082 Cl
ATOM      7  C   UNL     1      34.336 -19.764 -20.821  0.00  0.00    +0.139 C 
ATOM      8  C   UNL     1      35.423 -20.507 -20.374  0.00  0.00    +0.038 C 
ATOM      9  C   UNL     1      33.043 -20.091 -20.424  0.00  0.00    +0.038 C 
ATOM     10  C   UNL     1      35.215 -21.591 -19.520  0.00  0.00    +0.015 C 
ATOM     11  C   UNL     1      32.836 -21.174 -19.570  0.00  0.00    +0.015 C 
ATOM     12  C   UNL     1      33.922 -21.924 -19.119  0.00  0.00    +0.058 C 
ENDBRANCH   5   7
ENDBRANCH   4   5
ENDBRANCH   1   4
BRANCH   1  13
ATOM     13  C   UNL     1      34.623 -15.603 -22.837  0.00  0.00    +0.243 C 
BRANCH  13  14
ATOM     14  O   UNL     1      35.435 -16.102 -23.894  0.00  0.00    -0.432 OA
BRANCH  14  17
ATOM     15  O   UNL     1      34.301 -16.216 -25.895  0.00  0.00    -0.227 OA
ATOM     16  N   UNL     1      34.716 -18.102 -24.649  0.00  0.00    -0.295 N 
ATOM     17  C   UNL     1      34.776 -16.754 -24.901  0.00  0.00    +0.399 C 
ATOM     18  H   UNL     1      35.120 -18.468 -23.828  0.00  0.00    +0.148 HD
ATOM     19  H   UNL     1      34.270 -18.704 -25.287  0.00  0.00    +0.148 HD
ENDBRANCH  14  17
ENDBRANCH  13  14
ENDBRANCH   1  13
TORSDOF 7
ENDMDL
MODEL 5
REMARK VINA RESULT:      -7.4      1.862      2.252
REMARK  Name = 2724
REMARK  7 active torsions:
REMARK  status: ('A' for Active; 'I' for Inactive)
REMARK    1  A    between atoms: C_1  and  O_2
REMARK    2  A    between atoms: C_1  and  C_4
REMARK    3  A    between atoms: C_1  and  C_13
REMARK    4  A    between atoms: C_4  and  O_5
REMARK    5  A    between atoms: O_5  and  C_7
REMARK    6  A    between atoms: C_13  and  O_14
REMARK    7  A    between atoms: O_14  and  C_17
REMARK                            x       y       z     vdW  Elec       q    Type
REMARK                         _______ _______ _______ _____ _____    ______ ____
ROOT
ATOM      1  C   UNL     1      34.530 -17.457 -24.157  0.00  0.00    +0.198 C 
ENDROOT
BRANCH   1   2
ATOM      2  O   UNL     1      34.726 -17.541 -25.571  0.00  0.00    -0.378 OA
ATOM      3  H   UNL     1      33.987 -18.023 -25.973  0.00  0.00    +0.211 HD
ENDBRANCH   1   2
BRANCH   1   4
ATOM      4  C   UNL     1      35.361 -18.552 -23.503  0.00  0.00    +0.238 C 
BRANCH   4   5
ATOM      5  O   UNL     1      35.434 -18.304 -22.102  0.00  0.00    -0.473 OA
BRANCH   5   7
ATOM      6 CL   UNL     1      33.302 -22.478 -18.566  0.00  0.00    -0.082 Cl
ATOM      7  C   UNL     1      34.937 -19.277 -21.277  0.00  0.00    +0.139 C 
ATOM      8  C   UNL     1      35.810 -20.154 -20.643  0.00  0.00    +0.038 C 
ATOM      9  C   UNL     1      33.563 -19.380 -21.083  0.00  0.00    +0.038 C 
ATOM     10  C   UNL     1      35.303 -21.146 -19.802  0.00  0.00    +0.015 C 
ATOM     11  C   UNL     1      33.057 -20.371 -20.242  0.00  0.00    +0.015 C 
ATOM     12  C   UNL     1      33.927 -21.254 -19.603  0.00  0.00    +0.058 C 
ENDBRANCH   5   7
ENDBRANCH   4   5
ENDBRANCH   1   4
BRANCH   1  13
ATOM     13  C   UNL     1      34.960 -16.073 -23.684  0.00  0.00    +0.243 C 
BRANCH  13  14
ATOM     14  O   UNL     1      33.814 -15.302 -23.343  0.00  0.00    -0.432 OA
BRANCH  14  17
ATOM     15  O   UNL     1      32.284 -15.233 -21.624  0.00  0.00    -0.227 OA
ATOM     16  N   UNL     1      34.529 -15.501 -21.213  0.00  0.00    -0.295 N 
ATOM     17  C   UNL     1      33.437 -15.336 -22.028  0.00  0.00    +0.399 C 
ATOM     18  H   UNL     1      35.430 -15.576 -21.606  0.00  0.00    +0.148 HD
ATOM     19  H   UNL     1      34.414 -15.544 -20.237  0.00  0.00    +0.148 HD
ENDBRANCH  14  17
ENDBRANCH  13  14
ENDBRANCH   1  13
TORSDOF 7
ENDMDL
MODEL 6
REMARK VINA RESULT:      -7.3      7.011      9.772
REMARK  Name = 2724
REMARK  7 active torsions:
REMARK  status: ('A' for Active; 'I' for Inactive)
REMARK    1  A    between atoms: C_1  and  O_2
REMARK    2  A    between atoms: C_1  and  C_4
REMARK    3  A    between atoms: C_1  and  C_13
REMARK    4  A    between atoms: C_4  and  O_5
REMARK    5  A    between atoms: O_5  and  C_7
REMARK    6  A    between atoms: C_13  and  O_14
REMARK    7  A    between atoms: O_14  and  C_17
REMARK                            x       y       z     vdW  Elec       q    Type
REMARK                         _______ _______ _______ _____ _____    ______ ____
ROOT
ATOM      1  C   UNL     1      37.194 -23.130 -15.416  0.00  0.00    +0.198 C 
ENDROOT
BRANCH   1   2
ATOM      2  O   UNL     1      38.517 -23.541 -15.772  0.00  0.00    -0.378 OA
ATOM      3  H   UNL     1      38.924 -22.869 -16.339  0.00  0.00    +0.211 HD
ENDBRANCH   1   2
BRANCH   1   4
ATOM      4  C   UNL     1      36.742 -22.081 -16.423  0.00  0.00    +0.238 C 
BRANCH   4   5
ATOM      5  O   UNL     1      35.866 -22.692 -17.366  0.00  0.00    -0.473 OA
BRANCH   5   7
ATOM      6 CL   UNL     1      34.266 -19.434 -21.980  0.00  0.00    -0.082 Cl
ATOM      7  C   UNL     1      35.493 -21.932 -18.441  0.00  0.00    +0.139 C 
ATOM      8  C   UNL     1      34.153 -21.865 -18.805  0.00  0.00    +0.038 C 
ATOM      9  C   UNL     1      36.458 -21.235 -19.161  0.00  0.00    +0.038 C 
ATOM     10  C   UNL     1      33.772 -21.090 -19.902  0.00  0.00    +0.015 C 
ATOM     11  C   UNL     1      36.078 -20.460 -20.257  0.00  0.00    +0.015 C 
ATOM     12  C   UNL     1      34.735 -20.389 -20.628  0.00  0.00    +0.058 C 
ENDBRANCH   5   7
ENDBRANCH   4   5
ENDBRANCH   1   4
BRANCH   1  13
ATOM     13  C   UNL     1      36.281 -24.351 -15.434  0.00  0.00    +0.243 C 
BRANCH  13  14
ATOM     14  O   UNL     1      36.744 -25.314 -14.494  0.00  0.00    -0.432 OA
BRANCH  14  17
ATOM     15  O   UNL     1      36.678 -27.093 -15.955  0.00  0.00    -0.227 OA
ATOM     16  N   UNL     1      38.314 -26.926 -14.348  0.00  0.00    -0.295 N 
ATOM     17  C   UNL     1      37.196 -26.495 -15.017  0.00  0.00    +0.399 C 
ATOM     18  H   UNL     1      38.678 -26.395 -13.603  0.00  0.00    +0.148 HD
ATOM     19  H   UNL     1      38.754 -27.766 -14.614  0.00  0.00    +0.148 HD
ENDBRANCH  14  17
ENDBRANCH  13  14
ENDBRANCH   1  13
TORSDOF 7
ENDMDL
MODEL 7
REMARK VINA RESULT:      -7.3      1.818      2.328
REMARK  Name = 2724
REMARK  7 active torsions:
REMARK  status: ('A' for Active; 'I' for Inactive)
REMARK    1  A    between atoms: C_1  and  O_2
REMARK    2  A    between atoms: C_1  and  C_4
REMARK    3  A    between atoms: C_1  and  C_13
REMARK    4  A    between atoms: C_4  and  O_5
REMARK    5  A    between atoms: O_5  and  C_7
REMARK    6  A    between atoms: C_13  and  O_14
REMARK    7  A    between atoms: O_14  and  C_17
REMARK                            x       y       z     vdW  Elec       q    Type
REMARK                         _______ _______ _______ _____ _____    ______ ____
ROOT
ATOM      1  C   UNL     1      34.575 -16.149 -22.632  0.00  0.00    +0.198 C 
ENDROOT
BRANCH   1   2
ATOM      2  O   UNL     1      35.665 -16.089 -23.556  0.00  0.00    -0.378 OA
ATOM      3  H   UNL     1      36.098 -16.955 -23.603  0.00  0.00    +0.211 HD
ENDBRANCH   1   2
BRANCH   1   4
ATOM      4  C   UNL     1      34.921 -17.177 -21.564  0.00  0.00    +0.238 C 
BRANCH   4   5
ATOM      5  O   UNL     1      34.738 -18.483 -22.101  0.00  0.00    -0.473 OA
BRANCH   5   7
ATOM      6 CL   UNL     1      33.747 -22.806 -18.255  0.00  0.00    -0.082 Cl
ATOM      7  C   UNL     1      34.507 -19.492 -21.205  0.00  0.00    +0.139 C 
ATOM      8  C   UNL     1      33.203 -19.789 -20.824  0.00  0.00    +0.038 C 
ATOM      9  C   UNL     1      35.578 -20.209 -20.683  0.00  0.00    +0.038 C 
ATOM     10  C   UNL     1      32.967 -20.817 -19.909  0.00  0.00    +0.015 C 
ATOM     11  C   UNL     1      35.343 -21.236 -19.769  0.00  0.00    +0.015 C 
ATOM     12  C   UNL     1      34.038 -21.540 -19.382  0.00  0.00    +0.058 C 
ENDBRANCH   5   7
ENDBRANCH   4   5
ENDBRANCH   1   4
BRANCH   1  13
ATOM     13  C   UNL     1      34.368 -14.765 -22.028  0.00  0.00    +0.243 C 
BRANCH  13  14
ATOM     14  O   UNL     1      34.233 -13.800 -23.066  0.00  0.00    -0.432 OA
BRANCH  14  17
ATOM     15  O   UNL     1      32.795 -14.039 -24.847  0.00  0.00    -0.227 OA
ATOM     16  N   UNL     1      32.049 -13.306 -22.800  0.00  0.00    -0.295 N 
ATOM     17  C   UNL     1      33.010 -13.743 -23.677  0.00  0.00    +0.399 C 
ATOM     18  H   UNL     1      32.293 -13.084 -21.872  0.00  0.00    +0.148 HD
ATOM     19  H   UNL     1      31.116 -13.213 -23.099  0.00  0.00    +0.148 HD
ENDBRANCH  14  17
ENDBRANCH  13  14
ENDBRANCH   1  13
TORSDOF 7
ENDMDL
MODEL 8
REMARK VINA RESULT:      -7.2      7.040     10.256
REMARK  Name = 2724
REMARK  7 active torsions:
REMARK  status: ('A' for Active; 'I' for Inactive)
REMARK    1  A    between atoms: C_1  and  O_2
REMARK    2  A    between atoms: C_1  and  C_4
REMARK    3  A    between atoms: C_1  and  C_13
REMARK    4  A    between atoms: C_4  and  O_5
REMARK    5  A    between atoms: O_5  and  C_7
REMARK    6  A    between atoms: C_13  and  O_14
REMARK    7  A    between atoms: O_14  and  C_17
REMARK                            x       y       z     vdW  Elec       q    Type
REMARK                         _______ _______ _______ _____ _____    ______ ____
ROOT
ATOM      1  C   UNL     1      36.899 -23.604 -15.565  0.00  0.00    +0.198 C 
ENDROOT
BRANCH   1   2
ATOM      2  O   UNL     1      35.938 -24.658 -15.678  0.00  0.00    -0.378 OA
ATOM      3  H   UNL     1      35.173 -24.345 -16.184  0.00  0.00    +0.211 HD
ENDBRANCH   1   2
BRANCH   1   4
ATOM      4  C   UNL     1      36.414 -22.434 -16.411  0.00  0.00    +0.238 C 
BRANCH   4   5
ATOM      5  O   UNL     1      35.425 -22.901 -17.322  0.00  0.00    -0.473 OA
BRANCH   5   7
ATOM      6 CL   UNL     1      34.222 -19.443 -21.912  0.00  0.00    -0.082 Cl
ATOM      7  C   UNL     1      35.144 -22.094 -18.392  0.00  0.00    +0.139 C 
ATOM      8  C   UNL     1      33.830 -21.957 -18.826  0.00  0.00    +0.038 C 
ATOM      9  C   UNL     1      36.176 -21.420 -19.036  0.00  0.00    +0.038 C 
ATOM     10  C   UNL     1      33.544 -21.135 -19.917  0.00  0.00    +0.015 C 
ATOM     11  C   UNL     1      35.890 -20.598 -20.127  0.00  0.00    +0.015 C 
ATOM     12  C   UNL     1      34.575 -20.456 -20.567  0.00  0.00    +0.058 C 
ENDBRANCH   5   7
ENDBRANCH   4   5
ENDBRANCH   1   4
BRANCH   1  13
ATOM     13  C   UNL     1      37.029 -23.215 -14.097  0.00  0.00    +0.243 C 
BRANCH  13  14
ATOM     14  O   UNL     1      37.977 -24.060 -13.455  0.00  0.00    -0.432 OA
BRANCH  14  17
ATOM     15  O   UNL     1      37.760 -24.572 -11.221  0.00  0.00    -0.227 OA
ATOM     16  N   UNL     1      36.716 -25.826 -12.840  0.00  0.00    -0.295 N 
ATOM     17  C   UNL     1      37.509 -24.796 -12.401  0.00  0.00    +0.399 C 
ATOM     18  H   UNL     1      36.557 -25.948 -13.804  0.00  0.00    +0.148 HD
ATOM     19  H   UNL     1      36.307 -26.444 -12.192  0.00  0.00    +0.148 HD
ENDBRANCH  14  17
ENDBRANCH  13  14
ENDBRANCH   1  13
TORSDOF 7
ENDMDL
MODEL 9
REMARK VINA RESULT:      -7.1      1.959      2.485
REMARK  Name = 2724
REMARK  7 active torsions:
REMARK  status: ('A' for Active; 'I' for Inactive)
REMARK    1  A    between atoms: C_1  and  O_2
REMARK    2  A    between atoms: C_1  and  C_4
REMARK    3  A    between atoms: C_1  and  C_13
REMARK    4  A    between atoms: C_4  and  O_5
REMARK    5  A    between atoms: O_5  and  C_7
REMARK    6  A    between atoms: C_13  and  O_14
REMARK    7  A    between atoms: O_14  and  C_17
REMARK                            x       y       z     vdW  Elec       q    Type
REMARK                         _______ _______ _______ _____ _____    ______ ____
ROOT
ATOM      1  C   UNL     1      35.319 -18.154 -23.471  0.00  0.00    +0.198 C 
ENDROOT
BRANCH   1   2
ATOM      2  O   UNL     1      36.643 -17.984 -22.958  0.00  0.00    -0.378 OA
ATOM      3  H   UNL     1      37.223 -17.653 -23.660  0.00  0.00    +0.211 HD
ENDBRANCH   1   2
BRANCH   1   4
ATOM      4  C   UNL     1      34.581 -19.123 -22.556  0.00  0.00    +0.238 C 
BRANCH   4   5
ATOM      5  O   UNL     1      35.359 -19.334 -21.382  0.00  0.00    -0.473 OA
BRANCH   5   7
ATOM      6 CL   UNL     1      33.400 -23.387 -17.613  0.00  0.00    -0.082 Cl
ATOM      7  C   UNL     1      34.902 -20.279 -20.503  0.00  0.00    +0.139 C 
ATOM      8  C   UNL     1      35.811 -21.033 -19.769  0.00  0.00    +0.038 C 
ATOM      9  C   UNL     1      33.533 -20.476 -20.353  0.00  0.00    +0.038 C 
ATOM     10  C   UNL     1      35.345 -21.996 -18.873  0.00  0.00    +0.015 C 
ATOM     11  C   UNL     1      33.068 -21.438 -19.457  0.00  0.00    +0.015 C 
ATOM     12  C   UNL     1      33.974 -22.199 -18.718  0.00  0.00    +0.058 C 
ENDBRANCH   5   7
ENDBRANCH   4   5
ENDBRANCH   1   4
BRANCH   1  13
ATOM     13  C   UNL     1      34.631 -16.794 -23.512  0.00  0.00    +0.243 C 
BRANCH  13  14
ATOM     14  O   UNL     1      35.232 -15.920 -22.563  0.00  0.00    -0.432 OA
BRANCH  14  17
ATOM     15  O   UNL     1      34.915 -15.652 -20.298  0.00  0.00    -0.227 OA
ATOM     16  N   UNL     1      33.192 -15.352 -21.789  0.00  0.00    -0.295 N 
ATOM     17  C   UNL     1      34.489 -15.643 -21.448  0.00  0.00    +0.399 C 
ATOM     18  H   UNL     1      32.916 -15.363 -22.734  0.00  0.00    +0.148 HD
ATOM     19  H   UNL     1      32.536 -15.131 -21.089  0.00  0.00    +0.148 HD
ENDBRANCH  14  17
ENDBRANCH  13  14
ENDBRANCH   1  13
TORSDOF 7
ENDMDL
