MODEL 1
REMARK VINA RESULT:      -9.8      0.000      0.000
REMARK  Name = 5289278
REMARK  5 active torsions:
REMARK  status: ('A' for Active; 'I' for Inactive)
REMARK    1  A    between atoms: C_2  and  C_14
REMARK    2  A    between atoms: C_14  and  C_15
REMARK    3  A    between atoms: C_16  and  C_17
REMARK    4  A    between atoms: C_19  and  C_21
REMARK    5  A    between atoms: C_21  and  O_22
REMARK                            x       y       z     vdW  Elec       q    Type
REMARK                         _______ _______ _______ _____ _____    ______ ____
ROOT
ATOM      1  C   UNL     1      33.950 -15.076 -21.907  0.00  0.00    +0.015 C 
ATOM      2  C   UNL     1      35.072 -18.780 -21.648  0.00  0.00    +0.026 C 
ATOM      3  C   UNL     1      34.425 -16.499 -22.100  0.00  0.00    -0.049 C 
ATOM      4  C   UNL     1      34.787 -17.414 -20.966  0.00  0.00    +0.026 C 
ATOM      5  C   UNL     1      34.587 -17.093 -23.291  0.00  0.00    -0.034 C 
ATOM      6  C   UNL     1      34.004 -14.310 -23.260  0.00  0.00    +0.004 C 
ATOM      7  C   UNL     1      35.057 -18.455 -23.139  0.00  0.00    -0.027 C 
ATOM      8  C   UNL     1      34.295 -16.438 -24.602  0.00  0.00    +0.025 C 
ATOM      9  C   UNL     1      33.492 -15.143 -24.437  0.00  0.00    +0.005 C 
ATOM     10  C   UNL     1      34.837 -14.322 -20.898  0.00  0.00    +0.004 C 
ATOM     11  C   UNL     1      32.504 -15.095 -21.375  0.00  0.00    +0.004 C 
ATOM     12  C   UNL     1      36.423 -19.336 -21.174  0.00  0.00    +0.005 C 
ATOM     13  C   UNL     1      35.417 -19.278 -24.131  0.00  0.00    -0.005 C 
ENDROOT
BRANCH   2  14
ATOM     14  C   UNL     1      33.954 -19.781 -21.308  0.00  0.00    +0.030 C 
BRANCH  14  15
ATOM     15  C   UNL     1      34.153 -20.353 -19.941  0.00  0.00    -0.026 C 
ATOM     16  C   UNL     1      34.321 -21.666 -19.712  0.00  0.00    -0.009 C 
BRANCH  16  17
ATOM     17  C   UNL     1      34.499 -22.317 -18.410  0.00  0.00    -0.016 C 
ATOM     18  C   UNL     1      33.383 -23.208 -17.927  0.00  0.00    +0.031 C 
ATOM     19  C   UNL     1      35.632 -22.059 -17.726  0.00  0.00    +0.077 C 
BRANCH  19  21
ATOM     20  O   UNL     1      35.319 -22.600 -15.389  0.00  0.00    -0.245 OA
ATOM     21  C   UNL     1      35.993 -22.617 -16.404  0.00  0.00    +0.338 C 
BRANCH  21  22
ATOM     22  O   UNL     1      37.218 -23.189 -16.502  0.00  0.00    -0.477 OA
ATOM     23  H   UNL     1      37.294 -24.117 -16.601  0.00  0.00    +0.295 HD
ENDBRANCH  21  22
ENDBRANCH  19  21
ENDBRANCH  16  17
ENDBRANCH  14  15
ENDBRANCH   2  14
TORSDOF 5
ENDMDL
MODEL 2
REMARK VINA RESULT:      -9.1      1.597      2.364
REMARK  Name = 5289278
REMARK  5 active torsions:
REMARK  status: ('A' for Active; 'I' for Inactive)
REMARK    1  A    between atoms: C_2  and  C_14
REMARK    2  A    between atoms: C_14  and  C_15
REMARK    3  A    between atoms: C_16  and  C_17
REMARK    4  A    between atoms: C_19  and  C_21
REMARK    5  A    between atoms: C_21  and  O_22
REMARK                            x       y       z     vdW  Elec       q    Type
REMARK                         _______ _______ _______ _____ _____    ______ ____
ROOT
ATOM      1  C   UNL     1      33.487 -13.661 -23.848  0.00  0.00    +0.015 C 
ATOM      2  C   UNL     1      34.688 -17.148 -22.648  0.00  0.00    +0.026 C 
ATOM      3  C   UNL     1      33.950 -15.090 -23.669  0.00  0.00    -0.049 C 
ATOM      4  C   UNL     1      34.485 -15.633 -22.376  0.00  0.00    +0.026 C 
ATOM      5  C   UNL     1      33.946 -16.019 -24.636  0.00  0.00    -0.034 C 
ATOM      6  C   UNL     1      33.333 -13.339 -25.362  0.00  0.00    +0.004 C 
ATOM      7  C   UNL     1      34.453 -17.285 -24.149  0.00  0.00    -0.027 C 
ATOM      8  C   UNL     1      33.457 -15.779 -26.028  0.00  0.00    +0.025 C 
ATOM      9  C   UNL     1      32.668 -14.471 -26.148  0.00  0.00    +0.005 C 
ATOM     10  C   UNL     1      34.499 -12.666 -23.251  0.00  0.00    +0.004 C 
ATOM     11  C   UNL     1      32.134 -13.476 -23.135  0.00  0.00    +0.004 C 
ATOM     12  C   UNL     1      36.101 -17.576 -22.226  0.00  0.00    +0.005 C 
ATOM     13  C   UNL     1      34.677 -18.379 -24.888  0.00  0.00    -0.005 C 
ENDROOT
BRANCH   2  14
ATOM     14  C   UNL     1      33.646 -17.967 -21.866  0.00  0.00    +0.030 C 
BRANCH  14  15
ATOM     15  C   UNL     1      34.312 -19.020 -21.039  0.00  0.00    -0.026 C 
ATOM     16  C   UNL     1      33.671 -20.110 -20.583  0.00  0.00    -0.009 C 
BRANCH  16  17
ATOM     17  C   UNL     1      34.233 -21.178 -19.751  0.00  0.00    -0.016 C 
ATOM     18  C   UNL     1      35.727 -21.374 -19.797  0.00  0.00    +0.031 C 
ATOM     19  C   UNL     1      33.379 -21.924 -19.021  0.00  0.00    +0.077 C 
BRANCH  19  21
ATOM     20  O   UNL     1      34.007 -22.977 -16.936  0.00  0.00    -0.245 OA
ATOM     21  C   UNL     1      33.751 -23.041 -18.125  0.00  0.00    +0.338 C 
BRANCH  21  22
ATOM     22  O   UNL     1      33.740 -24.188 -18.847  0.00  0.00    -0.477 OA
ATOM     23  H   UNL     1      33.036 -24.798 -18.746  0.00  0.00    +0.295 HD
ENDBRANCH  21  22
ENDBRANCH  19  21
ENDBRANCH  16  17
ENDBRANCH  14  15
ENDBRANCH   2  14
TORSDOF 5
ENDMDL
MODEL 3
REMARK VINA RESULT:      -8.8      7.821     11.062
REMARK  Name = 5289278
REMARK  5 active torsions:
REMARK  status: ('A' for Active; 'I' for Inactive)
REMARK    1  A    between atoms: C_2  and  C_14
REMARK    2  A    between atoms: C_14  and  C_15
REMARK    3  A    between atoms: C_16  and  C_17
REMARK    4  A    between atoms: C_19  and  C_21
REMARK    5  A    between atoms: C_21  and  O_22
REMARK                            x       y       z     vdW  Elec       q    Type
REMARK                         _______ _______ _______ _____ _____    ______ ____
ROOT
ATOM      1  C   UNL     1      31.816  -4.244 -24.670  0.00  0.00    +0.015 C 
ATOM      2  C   UNL     1      32.530  -7.491 -22.672  0.00  0.00    +0.026 C 
ATOM      3  C   UNL     1      32.336  -5.528 -24.062  0.00  0.00    -0.049 C 
ATOM      4  C   UNL     1      31.779  -6.139 -22.810  0.00  0.00    +0.026 C 
ATOM      5  C   UNL     1      33.349  -6.251 -24.560  0.00  0.00    -0.034 C 
ATOM      6  C   UNL     1      32.821  -3.714 -25.732  0.00  0.00    +0.004 C 
ATOM      7  C   UNL     1      33.608  -7.422 -23.749  0.00  0.00    -0.027 C 
ATOM      8  C   UNL     1      34.095  -5.901 -25.808  0.00  0.00    +0.025 C 
ATOM      9  C   UNL     1      33.381  -4.822 -26.628  0.00  0.00    +0.005 C 
ATOM     10  C   UNL     1      31.635  -3.152 -23.599  0.00  0.00    +0.004 C 
ATOM     11  C   UNL     1      30.451  -4.516 -25.331  0.00  0.00    +0.004 C 
ATOM     12  C   UNL     1      33.110  -7.631 -21.257  0.00  0.00    +0.005 C 
ATOM     13  C   UNL     1      34.617  -8.286 -23.914  0.00  0.00    -0.005 C 
ENDROOT
BRANCH   2  14
ATOM     14  C   UNL     1      31.568  -8.659 -22.952  0.00  0.00    +0.030 C 
BRANCH  14  15
ATOM     15  C   UNL     1      31.784  -9.770 -21.975  0.00  0.00    -0.026 C 
ATOM     16  C   UNL     1      31.828 -11.064 -22.333  0.00  0.00    -0.009 C 
BRANCH  16  17
ATOM     17  C   UNL     1      32.012 -12.217 -21.447  0.00  0.00    -0.016 C 
ATOM     18  C   UNL     1      31.702 -12.019 -19.985  0.00  0.00    +0.031 C 
ATOM     19  C   UNL     1      32.465 -13.365 -21.991  0.00  0.00    +0.077 C 
BRANCH  19  21
ATOM     20  O   UNL     1      31.937 -15.557 -21.114  0.00  0.00    -0.245 OA
ATOM     21  C   UNL     1      32.714 -14.630 -21.265  0.00  0.00    +0.338 C 
BRANCH  21  22
ATOM     22  O   UNL     1      33.986 -14.611 -20.799  0.00  0.00    -0.477 OA
ATOM     23  H   UNL     1      34.175 -14.945 -19.944  0.00  0.00    +0.295 HD
ENDBRANCH  21  22
ENDBRANCH  19  21
ENDBRANCH  16  17
ENDBRANCH  14  15
ENDBRANCH   2  14
TORSDOF 5
ENDMDL
MODEL 4
REMARK VINA RESULT:      -8.8      7.800     10.136
REMARK  Name = 5289278
REMARK  5 active torsions:
REMARK  status: ('A' for Active; 'I' for Inactive)
REMARK    1  A    between atoms: C_2  and  C_14
REMARK    2  A    between atoms: C_14  and  C_15
REMARK    3  A    between atoms: C_16  and  C_17
REMARK    4  A    between atoms: C_19  and  C_21
REMARK    5  A    between atoms: C_21  and  O_22
REMARK                            x       y       z     vdW  Elec       q    Type
REMARK                         _______ _______ _______ _____ _____    ______ ____
ROOT
ATOM      1  C   UNL     1      36.331 -24.181 -13.382  0.00  0.00    +0.015 C 
ATOM      2  C   UNL     1      32.647 -24.027 -14.585  0.00  0.00    +0.026 C 
ATOM      3  C   UNL     1      35.014 -24.043 -14.112  0.00  0.00    -0.049 C 
ATOM      4  C   UNL     1      33.701 -24.504 -13.549  0.00  0.00    +0.026 C 
ATOM      5  C   UNL     1      34.872 -23.513 -15.335  0.00  0.00    -0.034 C 
ATOM      6  C   UNL     1      37.511 -23.940 -14.366  0.00  0.00    +0.004 C 
ATOM      7  C   UNL     1      33.487 -23.528 -15.757  0.00  0.00    -0.027 C 
ATOM      8  C   UNL     1      36.000 -22.955 -16.143  0.00  0.00    +0.025 C 
ATOM      9  C   UNL     1      37.270 -22.759 -15.309  0.00  0.00    +0.005 C 
ATOM     10  C   UNL     1      36.493 -25.589 -12.781  0.00  0.00    +0.004 C 
ATOM     11  C   UNL     1      36.385 -23.148 -12.240  0.00  0.00    +0.004 C 
ATOM     12  C   UNL     1      31.721 -25.191 -14.970  0.00  0.00    +0.005 C 
ATOM     13  C   UNL     1      33.028 -23.170 -16.963  0.00  0.00    -0.005 C 
ENDROOT
BRANCH   2  14
ATOM     14  C   UNL     1      31.813 -22.876 -13.997  0.00  0.00    +0.030 C 
BRANCH  14  15
ATOM     15  C   UNL     1      30.376 -23.009 -14.391  0.00  0.00    -0.026 C 
ATOM     16  C   UNL     1      29.954 -22.929 -15.664  0.00  0.00    -0.009 C 
BRANCH  16  17
ATOM     17  C   UNL     1      28.570 -23.024 -16.140  0.00  0.00    -0.016 C 
ATOM     18  C   UNL     1      28.169 -24.296 -16.844  0.00  0.00    +0.031 C 
ATOM     19  C   UNL     1      27.760 -21.965 -15.939  0.00  0.00    +0.077 C 
BRANCH  19  21
ATOM     20  O   UNL     1      25.907 -21.646 -17.461  0.00  0.00    -0.245 OA
ATOM     21  C   UNL     1      26.340 -21.870 -16.345  0.00  0.00    +0.338 C 
BRANCH  21  22
ATOM     22  O   UNL     1      25.569 -22.099 -15.254  0.00  0.00    -0.477 OA
ATOM     23  H   UNL     1      24.739 -22.523 -15.349  0.00  0.00    +0.295 HD
ENDBRANCH  21  22
ENDBRANCH  19  21
ENDBRANCH  16  17
ENDBRANCH  14  15
ENDBRANCH   2  14
TORSDOF 5
ENDMDL
MODEL 5
REMARK VINA RESULT:      -8.7      5.411      9.108
REMARK  Name = 5289278
REMARK  5 active torsions:
REMARK  status: ('A' for Active; 'I' for Inactive)
REMARK    1  A    between atoms: C_2  and  C_14
REMARK    2  A    between atoms: C_14  and  C_15
REMARK    3  A    between atoms: C_16  and  C_17
REMARK    4  A    between atoms: C_19  and  C_21
REMARK    5  A    between atoms: C_21  and  O_22
REMARK                            x       y       z     vdW  Elec       q    Type
REMARK                         _______ _______ _______ _____ _____    ______ ____
ROOT
ATOM      1  C   UNL     1      35.294 -19.068 -21.849  0.00  0.00    +0.015 C 
ATOM      2  C   UNL     1      34.035 -15.401 -21.765  0.00  0.00    +0.026 C 
ATOM      3  C   UNL     1      34.591 -17.746 -21.638  0.00  0.00    -0.049 C 
ATOM      4  C   UNL     1      35.165 -16.425 -22.061  0.00  0.00    +0.026 C 
ATOM      5  C   UNL     1      33.397 -17.603 -21.046  0.00  0.00    -0.034 C 
ATOM      6  C   UNL     1      34.610 -20.175 -20.996  0.00  0.00    +0.004 C 
ATOM      7  C   UNL     1      32.999 -16.212 -20.993  0.00  0.00    -0.027 C 
ATOM      8  C   UNL     1      32.575 -18.741 -20.531  0.00  0.00    +0.025 C 
ATOM      9  C   UNL     1      33.081 -20.097 -21.033  0.00  0.00    +0.005 C 
ATOM     10  C   UNL     1      36.773 -18.989 -21.428  0.00  0.00    +0.004 C 
ATOM     11  C   UNL     1      35.226 -19.443 -23.342  0.00  0.00    +0.004 C 
ATOM     12  C   UNL     1      34.591 -14.221 -20.954  0.00  0.00    +0.005 C 
ATOM     13  C   UNL     1      31.916 -15.726 -20.374  0.00  0.00    -0.005 C 
ENDROOT
BRANCH   2  14
ATOM     14  C   UNL     1      33.435 -14.883 -23.084  0.00  0.00    +0.030 C 
BRANCH  14  15
ATOM     15  C   UNL     1      33.479 -13.389 -23.135  0.00  0.00    -0.026 C 
ATOM     16  C   UNL     1      33.797 -12.702 -24.245  0.00  0.00    -0.009 C 
BRANCH  16  17
ATOM     17  C   UNL     1      33.887 -11.245 -24.384  0.00  0.00    -0.016 C 
ATOM     18  C   UNL     1      34.809 -10.710 -25.448  0.00  0.00    +0.031 C 
ATOM     19  C   UNL     1      33.160 -10.485 -23.539  0.00  0.00    +0.077 C 
BRANCH  19  21
ATOM     20  O   UNL     1      34.021  -8.247 -23.222  0.00  0.00    -0.245 OA
ATOM     21  C   UNL     1      33.116  -9.006 -23.521  0.00  0.00    +0.338 C 
BRANCH  21  22
ATOM     22  O   UNL     1      31.885  -8.611 -23.925  0.00  0.00    -0.477 OA
ATOM     23  H   UNL     1      31.439  -7.927 -23.466  0.00  0.00    +0.295 HD
ENDBRANCH  21  22
ENDBRANCH  19  21
ENDBRANCH  16  17
ENDBRANCH  14  15
ENDBRANCH   2  14
TORSDOF 5
ENDMDL
MODEL 6
REMARK VINA RESULT:      -8.5      6.611      9.138
REMARK  Name = 5289278
REMARK  5 active torsions:
REMARK  status: ('A' for Active; 'I' for Inactive)
REMARK    1  A    between atoms: C_2  and  C_14
REMARK    2  A    between atoms: C_14  and  C_15
REMARK    3  A    between atoms: C_16  and  C_17
REMARK    4  A    between atoms: C_19  and  C_21
REMARK    5  A    between atoms: C_21  and  O_22
REMARK                            x       y       z     vdW  Elec       q    Type
REMARK                         _______ _______ _______ _____ _____    ______ ____
ROOT
ATOM      1  C   UNL     1      30.821 -23.544 -13.909  0.00  0.00    +0.015 C 
ATOM      2  C   UNL     1      34.361 -23.600 -15.493  0.00  0.00    +0.026 C 
ATOM      3  C   UNL     1      32.064 -23.459 -14.767  0.00  0.00    -0.049 C 
ATOM      4  C   UNL     1      33.455 -23.634 -14.232  0.00  0.00    +0.026 C 
ATOM      5  C   UNL     1      32.065 -23.207 -16.084  0.00  0.00    -0.034 C 
ATOM      6  C   UNL     1      29.600 -22.974 -14.686  0.00  0.00    +0.004 C 
ATOM      7  C   UNL     1      33.413 -23.187 -16.614  0.00  0.00    -0.027 C 
ATOM      8  C   UNL     1      30.829 -23.000 -16.899  0.00  0.00    +0.025 C 
ATOM      9  C   UNL     1      29.562 -23.421 -16.149  0.00  0.00    +0.005 C 
ATOM     10  C   UNL     1      30.981 -22.732 -12.611  0.00  0.00    +0.004 C 
ATOM     11  C   UNL     1      30.564 -25.018 -13.540  0.00  0.00    +0.004 C 
ATOM     12  C   UNL     1      35.512 -22.604 -15.290  0.00  0.00    +0.005 C 
ATOM     13  C   UNL     1      33.762 -22.861 -17.865  0.00  0.00    -0.005 C 
ENDROOT
BRANCH   2  14
ATOM     14  C   UNL     1      34.935 -25.001 -15.767  0.00  0.00    +0.030 C 
BRANCH  14  15
ATOM     15  C   UNL     1      36.372 -25.074 -15.361  0.00  0.00    -0.026 C 
ATOM     16  C   UNL     1      36.781 -25.616 -14.202  0.00  0.00    -0.009 C 
BRANCH  16  17
ATOM     17  C   UNL     1      38.160 -25.711 -13.712  0.00  0.00    -0.016 C 
ATOM     18  C   UNL     1      38.366 -25.652 -12.219  0.00  0.00    +0.031 C 
ATOM     19  C   UNL     1      39.147 -25.822 -14.623  0.00  0.00    +0.077 C 
BRANCH  19  21
ATOM     20  O   UNL     1      41.191 -26.911 -13.923  0.00  0.00    -0.245 OA
ATOM     21  C   UNL     1      40.593 -25.929 -14.328  0.00  0.00    +0.338 C 
BRANCH  21  22
ATOM     22  O   UNL     1      41.175 -24.737 -14.607  0.00  0.00    -0.477 OA
ATOM     23  H   UNL     1      42.028 -24.544 -14.271  0.00  0.00    +0.295 HD
ENDBRANCH  21  22
ENDBRANCH  19  21
ENDBRANCH  16  17
ENDBRANCH  14  15
ENDBRANCH   2  14
TORSDOF 5
ENDMDL
MODEL 7
REMARK VINA RESULT:      -8.4      7.819     11.051
REMARK  Name = 5289278
REMARK  5 active torsions:
REMARK  status: ('A' for Active; 'I' for Inactive)
REMARK    1  A    between atoms: C_2  and  C_14
REMARK    2  A    between atoms: C_14  and  C_15
REMARK    3  A    between atoms: C_16  and  C_17
REMARK    4  A    between atoms: C_19  and  C_21
REMARK    5  A    between atoms: C_21  and  O_22
REMARK                            x       y       z     vdW  Elec       q    Type
REMARK                         _______ _______ _______ _____ _____    ______ ____
ROOT
ATOM      1  C   UNL     1      31.792  -4.456 -24.463  0.00  0.00    +0.015 C 
ATOM      2  C   UNL     1      32.519  -7.740 -22.533  0.00  0.00    +0.026 C 
ATOM      3  C   UNL     1      32.318  -5.749 -23.882  0.00  0.00    -0.049 C 
ATOM      4  C   UNL     1      31.760  -6.390 -22.645  0.00  0.00    +0.026 C 
ATOM      5  C   UNL     1      33.338  -6.454 -24.391  0.00  0.00    -0.034 C 
ATOM      6  C   UNL     1      32.798  -3.897 -25.510  0.00  0.00    +0.004 C 
ATOM      7  C   UNL     1      33.602  -7.640 -23.604  0.00  0.00    -0.027 C 
ATOM      8  C   UNL     1      34.087  -6.073 -25.628  0.00  0.00    +0.025 C 
ATOM      9  C   UNL     1      33.369  -4.981 -26.427  0.00  0.00    +0.005 C 
ATOM     10  C   UNL     1      31.600  -3.388 -23.371  0.00  0.00    +0.004 C 
ATOM     11  C   UNL     1      30.432  -4.723 -25.137  0.00  0.00    +0.004 C 
ATOM     12  C   UNL     1      33.095  -7.907 -21.119  0.00  0.00    +0.005 C 
ATOM     13  C   UNL     1      34.617  -8.495 -23.783  0.00  0.00    -0.005 C 
ENDROOT
BRANCH   2  14
ATOM     14  C   UNL     1      31.567  -8.908 -22.843  0.00  0.00    +0.030 C 
BRANCH  14  15
ATOM     15  C   UNL     1      32.310 -10.205 -22.871  0.00  0.00    -0.026 C 
ATOM     16  C   UNL     1      31.812 -11.348 -22.370  0.00  0.00    -0.009 C 
BRANCH  16  17
ATOM     17  C   UNL     1      32.473 -12.656 -22.333  0.00  0.00    -0.016 C 
ATOM     18  C   UNL     1      32.314 -13.473 -21.076  0.00  0.00    +0.031 C 
ATOM     19  C   UNL     1      33.194 -13.029 -23.410  0.00  0.00    +0.077 C 
BRANCH  19  21
ATOM     20  O   UNL     1      34.887 -14.683 -22.912  0.00  0.00    -0.245 OA
ATOM     21  C   UNL     1      33.930 -14.303 -23.563  0.00  0.00    +0.338 C 
BRANCH  21  22
ATOM     22  O   UNL     1      33.343 -15.018 -24.553  0.00  0.00    -0.477 OA
ATOM     23  H   UNL     1      33.366 -15.955 -24.531  0.00  0.00    +0.295 HD
ENDBRANCH  21  22
ENDBRANCH  19  21
ENDBRANCH  16  17
ENDBRANCH  14  15
ENDBRANCH   2  14
TORSDOF 5
ENDMDL
MODEL 8
REMARK VINA RESULT:      -8.3      6.517      9.798
REMARK  Name = 5289278
REMARK  5 active torsions:
REMARK  status: ('A' for Active; 'I' for Inactive)
REMARK    1  A    between atoms: C_2  and  C_14
REMARK    2  A    between atoms: C_14  and  C_15
REMARK    3  A    between atoms: C_16  and  C_17
REMARK    4  A    between atoms: C_19  and  C_21
REMARK    5  A    between atoms: C_21  and  O_22
REMARK                            x       y       z     vdW  Elec       q    Type
REMARK                         _______ _______ _______ _____ _____    ______ ____
ROOT
ATOM      1  C   UNL     1      32.358  -7.534 -22.725  0.00  0.00    +0.015 C 
ATOM      2  C   UNL     1      31.467 -11.050 -21.352  0.00  0.00    +0.026 C 
ATOM      3  C   UNL     1      31.984  -8.765 -21.929  0.00  0.00    -0.049 C 
ATOM      4  C   UNL     1      31.636 -10.084 -22.555  0.00  0.00    +0.026 C 
ATOM      5  C   UNL     1      31.907  -8.813 -20.592  0.00  0.00    -0.034 C 
ATOM      6  C   UNL     1      32.309  -6.276 -21.812  0.00  0.00    +0.004 C 
ATOM      7  C   UNL     1      31.520 -10.132 -20.135  0.00  0.00    -0.027 C 
ATOM      8  C   UNL     1      32.209  -7.658 -19.692  0.00  0.00    +0.025 C 
ATOM      9  C   UNL     1      32.920  -6.518 -20.429  0.00  0.00    +0.005 C 
ATOM     10  C   UNL     1      31.386  -7.309 -23.898  0.00  0.00    +0.004 C 
ATOM     11  C   UNL     1      33.780  -7.714 -23.291  0.00  0.00    +0.004 C 
ATOM     12  C   UNL     1      30.137 -11.809 -21.467  0.00  0.00    +0.005 C 
ATOM     13  C   UNL     1      31.253 -10.479 -18.870  0.00  0.00    -0.005 C 
ENDROOT
BRANCH   2  14
ATOM     14  C   UNL     1      32.632 -12.055 -21.315  0.00  0.00    +0.030 C 
BRANCH  14  15
ATOM     15  C   UNL     1      32.682 -12.856 -22.576  0.00  0.00    -0.026 C 
ATOM     16  C   UNL     1      33.576 -13.836 -22.788  0.00  0.00    -0.009 C 
BRANCH  16  17
ATOM     17  C   UNL     1      33.714 -14.656 -23.996  0.00  0.00    -0.016 C 
ATOM     18  C   UNL     1      34.580 -15.886 -23.898  0.00  0.00    +0.031 C 
ATOM     19  C   UNL     1      33.081 -14.245 -25.113  0.00  0.00    +0.077 C 
BRANCH  19  21
ATOM     20  O   UNL     1      32.656 -16.037 -26.681  0.00  0.00    -0.245 OA
ATOM     21  C   UNL     1      33.099 -14.932 -26.423  0.00  0.00    +0.338 C 
BRANCH  21  22
ATOM     22  O   UNL     1      33.682 -14.109 -27.328  0.00  0.00    -0.477 OA
ATOM     23  H   UNL     1      34.495 -14.352 -27.725  0.00  0.00    +0.295 HD
ENDBRANCH  21  22
ENDBRANCH  19  21
ENDBRANCH  16  17
ENDBRANCH  14  15
ENDBRANCH   2  14
TORSDOF 5
ENDMDL
MODEL 9
REMARK VINA RESULT:      -8.2      4.754      8.368
REMARK  Name = 5289278
REMARK  5 active torsions:
REMARK  status: ('A' for Active; 'I' for Inactive)
REMARK    1  A    between atoms: C_2  and  C_14
REMARK    2  A    between atoms: C_14  and  C_15
REMARK    3  A    between atoms: C_16  and  C_17
REMARK    4  A    between atoms: C_19  and  C_21
REMARK    5  A    between atoms: C_21  and  O_22
REMARK                            x       y       z     vdW  Elec       q    Type
REMARK                         _______ _______ _______ _____ _____    ______ ____
ROOT
ATOM      1  C   UNL     1      36.033 -21.369 -19.469  0.00  0.00    +0.015 C 
ATOM      2  C   UNL     1      34.969 -18.165 -21.379  0.00  0.00    +0.026 C 
ATOM      3  C   UNL     1      35.343 -20.199 -20.136  0.00  0.00    -0.049 C 
ATOM      4  C   UNL     1      36.073 -19.009 -20.686  0.00  0.00    +0.026 C 
ATOM      5  C   UNL     1      34.017 -20.088 -20.296  0.00  0.00    -0.034 C 
ATOM      6  C   UNL     1      34.991 -22.239 -18.711  0.00  0.00    +0.004 C 
ATOM      7  C   UNL     1      33.671 -18.852 -20.965  0.00  0.00    -0.027 C 
ATOM      8  C   UNL     1      33.029 -21.122 -19.860  0.00  0.00    +0.025 C 
ATOM      9  C   UNL     1      33.701 -22.454 -19.507  0.00  0.00    +0.005 C 
ATOM     10  C   UNL     1      37.085 -20.892 -18.451  0.00  0.00    +0.004 C 
ATOM     11  C   UNL     1      36.738 -22.217 -20.546  0.00  0.00    +0.004 C 
ATOM     12  C   UNL     1      35.046 -16.705 -20.909  0.00  0.00    +0.005 C 
ATOM     13  C   UNL     1      32.431 -18.393 -21.179  0.00  0.00    -0.005 C 
ENDROOT
BRANCH   2  14
ATOM     14  C   UNL     1      35.141 -18.224 -22.907  0.00  0.00    +0.030 C 
BRANCH  14  15
ATOM     15  C   UNL     1      34.982 -16.866 -23.511  0.00  0.00    -0.026 C 
ATOM     16  C   UNL     1      33.936 -16.525 -24.283  0.00  0.00    -0.009 C 
BRANCH  16  17
ATOM     17  C   UNL     1      33.707 -15.231 -24.934  0.00  0.00    -0.016 C 
ATOM     18  C   UNL     1      33.805 -13.999 -24.071  0.00  0.00    +0.031 C 
ATOM     19  C   UNL     1      33.404 -15.231 -26.248  0.00  0.00    +0.077 C 
BRANCH  19  21
ATOM     20  O   UNL     1      33.946 -13.404 -27.739  0.00  0.00    -0.245 OA
ATOM     21  C   UNL     1      33.140 -14.034 -27.077  0.00  0.00    +0.338 C 
BRANCH  21  22
ATOM     22  O   UNL     1      31.817 -13.748 -27.004  0.00  0.00    -0.477 OA
ATOM     23  H   UNL     1      31.389 -13.726 -26.172  0.00  0.00    +0.295 HD
ENDBRANCH  21  22
ENDBRANCH  19  21
ENDBRANCH  16  17
ENDBRANCH  14  15
ENDBRANCH   2  14
TORSDOF 5
ENDMDL
