MODEL 1
REMARK VINA RESULT:      -9.9      0.000      0.000
REMARK  Name = 5311221
REMARK  17 active torsions:
REMARK  status: ('A' for Active; 'I' for Inactive)
REMARK    1  A    between atoms: C_1  and  C_10
REMARK    2  A    between atoms: C_2  and  C_23
REMARK    3  A    between atoms: C_3  and  O_6
REMARK    4  A    between atoms: C_4  and  O_8
REMARK    5  A    between atoms: C_10  and  C_11
REMARK    6  A    between atoms: C_11  and  C_12
REMARK    7  A    between atoms: C_12  and  O_13
REMARK    8  A    between atoms: C_12  and  C_15
REMARK    9  A    between atoms: C_15  and  C_16
REMARK   10  A    between atoms: C_16  and  C_17
REMARK   11  A    between atoms: C_23  and  C_24
REMARK   12  A    between atoms: C_25  and  C_26
REMARK   13  A    between atoms: C_26  and  C_27
REMARK   14  A    between atoms: C_27  and  C_28
REMARK   15  A    between atoms: C_28  and  C_30
REMARK   16  A    between atoms: C_30  and  O_31
REMARK   17  A    between atoms: O_31  and  C_32
REMARK                            x       y       z     vdW  Elec       q    Type
REMARK                         _______ _______ _______ _____ _____    ______ ____
ROOT
ATOM      1  C   UNL     1      34.285 -15.177 -22.118  0.00  0.00    +0.030 C 
ATOM      2  C   UNL     1      32.943 -14.456 -22.303  0.00  0.00    +0.034 C 
ATOM      3  C   UNL     1      34.426 -15.994 -23.411  0.00  0.00    +0.113 C 
ATOM      4  C   UNL     1      33.004 -14.035 -23.777  0.00  0.00    +0.113 C 
ATOM      5  C   UNL     1      33.619 -15.244 -24.483  0.00  0.00    +0.058 C 
ENDROOT
BRANCH   3   6
ATOM      6  O   UNL     1      35.795 -16.089 -23.773  0.00  0.00    -0.384 OA
ATOM      7  H   UNL     1      36.239 -16.728 -23.193  0.00  0.00    +0.210 HD
ENDBRANCH   3   6
BRANCH   4   8
ATOM      8  O   UNL     1      33.866 -12.918 -23.972  0.00  0.00    -0.384 OA
ATOM      9  H   UNL     1      34.778 -13.174 -23.767  0.00  0.00    +0.210 HD
ENDBRANCH   4   8
BRANCH   1  10
ATOM     10  C   UNL     1      34.346 -16.053 -20.872  0.00  0.00    +0.005 C 
BRANCH  10  11
ATOM     11  C   UNL     1      33.736 -17.432 -21.131  0.00  0.00    +0.029 C 
BRANCH  11  12
ATOM     12  C   UNL     1      34.808 -18.525 -21.239  0.00  0.00    +0.111 C 
BRANCH  12  13
ATOM     13  O   UNL     1      35.933 -18.169 -20.439  0.00  0.00    -0.384 OA
ATOM     14  H   UNL     1      36.009 -17.203 -20.398  0.00  0.00    +0.210 HD
ENDBRANCH  12  13
BRANCH  12  15
ATOM     15  C   UNL     1      34.261 -19.884 -20.785  0.00  0.00    +0.034 C 
BRANCH  15  16
ATOM     16  C   UNL     1      35.382 -20.859 -20.409  0.00  0.00    +0.029 C 
BRANCH  16  17
ATOM     17  C   UNL     1      35.048 -21.637 -19.161  0.00  0.00    -0.022 C 
ATOM     18  C   UNL     1      33.764 -22.154 -18.986  0.00  0.00    -0.004 C 
ATOM     19  C   UNL     1      36.022 -21.840 -18.183  0.00  0.00    -0.004 C 
ATOM     20  C   UNL     1      33.455 -22.874 -17.831  0.00  0.00    -0.000 C 
ATOM     21  C   UNL     1      35.712 -22.560 -17.030  0.00  0.00    -0.000 C 
ATOM     22  C   UNL     1      34.428 -23.077 -16.854  0.00  0.00    -0.000 C 
ENDBRANCH  16  17
ENDBRANCH  15  16
ENDBRANCH  12  15
ENDBRANCH  11  12
ENDBRANCH  10  11
ENDBRANCH   1  10
BRANCH   2  23
ATOM     23  C   UNL     1      32.735 -13.307 -21.327  0.00  0.00    +0.028 C 
BRANCH  23  24
ATOM     24  C   UNL     1      31.601 -12.425 -21.761  0.00  0.00    -0.031 C 
ATOM     25  C   UNL     1      31.061 -11.469 -20.989  0.00  0.00    -0.031 C 
BRANCH  25  26
ATOM     26  C   UNL     1      31.527 -11.166 -19.594  0.00  0.00    +0.026 C 
BRANCH  26  27
ATOM     27  C   UNL     1      31.972  -9.710 -19.411  0.00  0.00    +0.016 C 
BRANCH  27  28
ATOM     28  C   UNL     1      32.210  -8.949 -20.717  0.00  0.00    +0.110 C 
BRANCH  28  30
ATOM     29  O   UNL     1      32.962  -7.056 -19.401  0.00  0.00    -0.250 OA
ATOM     30  C   UNL     1      32.637  -7.518 -20.487  0.00  0.00    +0.317 C 
BRANCH  30  31
ATOM     31  O   UNL     1      32.632  -6.845 -21.674  0.00  0.00    -0.452 OA
BRANCH  31  32
ATOM     32  C   UNL     1      32.870  -7.645 -22.837  0.00  0.00    +0.169 C 
ATOM     33  C   UNL     1      31.880  -7.256 -23.925  0.00  0.00    +0.047 C 
ATOM     34  C   UNL     1      34.311  -7.455 -23.288  0.00  0.00    +0.047 C 
ENDBRANCH  31  32
ENDBRANCH  30  31
ENDBRANCH  28  30
ENDBRANCH  27  28
ENDBRANCH  26  27
ENDBRANCH  25  26
ENDBRANCH  23  24
ENDBRANCH   2  23
TORSDOF 17
ENDMDL
MODEL 2
REMARK VINA RESULT:      -9.9      7.734     12.392
REMARK  Name = 5311221
REMARK  17 active torsions:
REMARK  status: ('A' for Active; 'I' for Inactive)
REMARK    1  A    between atoms: C_1  and  C_10
REMARK    2  A    between atoms: C_2  and  C_23
REMARK    3  A    between atoms: C_3  and  O_6
REMARK    4  A    between atoms: C_4  and  O_8
REMARK    5  A    between atoms: C_10  and  C_11
REMARK    6  A    between atoms: C_11  and  C_12
REMARK    7  A    between atoms: C_12  and  O_13
REMARK    8  A    between atoms: C_12  and  C_15
REMARK    9  A    between atoms: C_15  and  C_16
REMARK   10  A    between atoms: C_16  and  C_17
REMARK   11  A    between atoms: C_23  and  C_24
REMARK   12  A    between atoms: C_25  and  C_26
REMARK   13  A    between atoms: C_26  and  C_27
REMARK   14  A    between atoms: C_27  and  C_28
REMARK   15  A    between atoms: C_28  and  C_30
REMARK   16  A    between atoms: C_30  and  O_31
REMARK   17  A    between atoms: O_31  and  C_32
REMARK                            x       y       z     vdW  Elec       q    Type
REMARK                         _______ _______ _______ _____ _____    ______ ____
ROOT
ATOM      1  C   UNL     1      36.303 -24.371 -14.068  0.00  0.00    +0.030 C 
ATOM      2  C   UNL     1      35.070 -23.664 -13.489  0.00  0.00    +0.034 C 
ATOM      3  C   UNL     1      37.448 -23.864 -13.179  0.00  0.00    +0.113 C 
ATOM      4  C   UNL     1      35.316 -23.773 -11.979  0.00  0.00    +0.113 C 
ATOM      5  C   UNL     1      36.814 -23.502 -11.826  0.00  0.00    +0.058 C 
ENDROOT
BRANCH   3   6
ATOM      6  O   UNL     1      38.427 -24.881 -13.029  0.00  0.00    -0.384 OA
ATOM      7  H   UNL     1      38.091 -25.568 -12.433  0.00  0.00    +0.210 HD
ENDBRANCH   3   6
BRANCH   4   8
ATOM      8  O   UNL     1      35.048 -25.084 -11.493  0.00  0.00    -0.384 OA
ATOM      9  H   UNL     1      34.129 -25.135 -11.189  0.00  0.00    +0.210 HD
ENDBRANCH   4   8
BRANCH   1  10
ATOM     10  C   UNL     1      36.545 -24.076 -15.544  0.00  0.00    +0.005 C 
BRANCH  10  11
ATOM     11  C   UNL     1      37.377 -22.806 -15.728  0.00  0.00    +0.029 C 
BRANCH  11  12
ATOM     12  C   UNL     1      36.590 -21.701 -16.445  0.00  0.00    +0.111 C 
BRANCH  12  13
ATOM     13  O   UNL     1      37.478 -20.652 -16.823  0.00  0.00    -0.384 OA
ATOM     14  H   UNL     1      38.340 -20.788 -16.400  0.00  0.00    +0.210 HD
ENDBRANCH  12  13
BRANCH  12  15
ATOM     15  C   UNL     1      35.877 -22.246 -17.689  0.00  0.00    +0.034 C 
BRANCH  15  16
ATOM     16  C   UNL     1      36.398 -21.604 -18.979  0.00  0.00    +0.029 C 
BRANCH  16  17
ATOM     17  C   UNL     1      35.298 -20.899 -19.732  0.00  0.00    -0.022 C 
ATOM     18  C   UNL     1      33.965 -21.240 -19.502  0.00  0.00    -0.004 C 
ATOM     19  C   UNL     1      35.614 -19.903 -20.658  0.00  0.00    -0.004 C 
ATOM     20  C   UNL     1      32.948 -20.587 -20.198  0.00  0.00    -0.000 C 
ATOM     21  C   UNL     1      34.596 -19.250 -21.353  0.00  0.00    -0.000 C 
ATOM     22  C   UNL     1      33.263 -19.592 -21.123  0.00  0.00    -0.000 C 
ENDBRANCH  16  17
ENDBRANCH  15  16
ENDBRANCH  12  15
ENDBRANCH  11  12
ENDBRANCH  10  11
ENDBRANCH   1  10
BRANCH   2  23
ATOM     23  C   UNL     1      33.752 -24.266 -13.958  0.00  0.00    +0.028 C 
BRANCH  23  24
ATOM     24  C   UNL     1      32.970 -23.285 -14.780  0.00  0.00    -0.031 C 
ATOM     25  C   UNL     1      31.680 -23.450 -15.110  0.00  0.00    -0.031 C 
BRANCH  25  26
ATOM     26  C   UNL     1      30.861 -24.638 -14.696  0.00  0.00    +0.026 C 
BRANCH  26  27
ATOM     27  C   UNL     1      29.358 -24.446 -14.931  0.00  0.00    +0.016 C 
BRANCH  27  28
ATOM     28  C   UNL     1      28.934 -24.481 -16.400  0.00  0.00    +0.110 C 
BRANCH  28  30
ATOM     29  O   UNL     1      29.383 -22.235 -17.197  0.00  0.00    -0.250 OA
ATOM     30  C   UNL     1      28.573 -23.115 -16.935  0.00  0.00    +0.317 C 
BRANCH  30  31
ATOM     31  O   UNL     1      27.221 -23.035 -17.105  0.00  0.00    -0.452 OA
BRANCH  31  32
ATOM     32  C   UNL     1      26.655 -21.731 -16.941  0.00  0.00    +0.169 C 
ATOM     33  C   UNL     1      25.974 -21.314 -18.236  0.00  0.00    +0.047 C 
ATOM     34  C   UNL     1      25.682 -21.751 -15.771  0.00  0.00    +0.047 C 
ENDBRANCH  31  32
ENDBRANCH  30  31
ENDBRANCH  28  30
ENDBRANCH  27  28
ENDBRANCH  26  27
ENDBRANCH  25  26
ENDBRANCH  23  24
ENDBRANCH   2  23
TORSDOF 17
ENDMDL
MODEL 3
REMARK VINA RESULT:      -9.9      2.269     11.353
REMARK  Name = 5311221
REMARK  17 active torsions:
REMARK  status: ('A' for Active; 'I' for Inactive)
REMARK    1  A    between atoms: C_1  and  C_10
REMARK    2  A    between atoms: C_2  and  C_23
REMARK    3  A    between atoms: C_3  and  O_6
REMARK    4  A    between atoms: C_4  and  O_8
REMARK    5  A    between atoms: C_10  and  C_11
REMARK    6  A    between atoms: C_11  and  C_12
REMARK    7  A    between atoms: C_12  and  O_13
REMARK    8  A    between atoms: C_12  and  C_15
REMARK    9  A    between atoms: C_15  and  C_16
REMARK   10  A    between atoms: C_16  and  C_17
REMARK   11  A    between atoms: C_23  and  C_24
REMARK   12  A    between atoms: C_25  and  C_26
REMARK   13  A    between atoms: C_26  and  C_27
REMARK   14  A    between atoms: C_27  and  C_28
REMARK   15  A    between atoms: C_28  and  C_30
REMARK   16  A    between atoms: C_30  and  O_31
REMARK   17  A    between atoms: O_31  and  C_32
REMARK                            x       y       z     vdW  Elec       q    Type
REMARK                         _______ _______ _______ _____ _____    ______ ____
ROOT
ATOM      1  C   UNL     1      34.162 -16.312 -22.252  0.00  0.00    +0.030 C 
ATOM      2  C   UNL     1      35.176 -17.450 -22.075  0.00  0.00    +0.034 C 
ATOM      3  C   UNL     1      34.561 -15.692 -23.599  0.00  0.00    +0.113 C 
ATOM      4  C   UNL     1      35.248 -18.039 -23.490  0.00  0.00    +0.113 C 
ATOM      5  C   UNL     1      35.240 -16.812 -24.404  0.00  0.00    +0.058 C 
ENDROOT
BRANCH   3   6
ATOM      6  O   UNL     1      33.405 -15.209 -24.268  0.00  0.00    -0.384 OA
ATOM      7  H   UNL     1      33.393 -15.547 -25.177  0.00  0.00    +0.210 HD
ENDBRANCH   3   6
BRANCH   4   8
ATOM      8  O   UNL     1      34.103 -18.829 -23.793  0.00  0.00    -0.384 OA
ATOM      9  H   UNL     1      34.375 -19.613 -24.294  0.00  0.00    +0.210 HD
ENDBRANCH   4   8
BRANCH   1  10
ATOM     10  C   UNL     1      34.179 -15.292 -21.119  0.00  0.00    +0.005 C 
BRANCH  10  11
ATOM     11  C   UNL     1      32.776 -14.749 -20.838  0.00  0.00    +0.029 C 
BRANCH  11  12
ATOM     12  C   UNL     1      32.584 -13.333 -21.397  0.00  0.00    +0.111 C 
BRANCH  12  13
ATOM     13  O   UNL     1      31.846 -13.397 -22.615  0.00  0.00    -0.384 OA
ATOM     14  H   UNL     1      31.756 -12.505 -22.987  0.00  0.00    +0.210 HD
ENDBRANCH  12  13
BRANCH  12  15
ATOM     15  C   UNL     1      31.846 -12.437 -20.394  0.00  0.00    +0.034 C 
BRANCH  15  16
ATOM     16  C   UNL     1      30.974 -11.388 -21.092  0.00  0.00    +0.029 C 
BRANCH  16  17
ATOM     17  C   UNL     1      31.692 -10.070 -21.230  0.00  0.00    -0.022 C 
ATOM     18  C   UNL     1      31.918  -9.277 -20.105  0.00  0.00    -0.004 C 
ATOM     19  C   UNL     1      32.134  -9.644 -22.484  0.00  0.00    -0.004 C 
ATOM     20  C   UNL     1      32.583  -8.058 -20.233  0.00  0.00    -0.000 C 
ATOM     21  C   UNL     1      32.800  -8.425 -22.611  0.00  0.00    -0.000 C 
ATOM     22  C   UNL     1      33.024  -7.632 -21.485  0.00  0.00    -0.000 C 
ENDBRANCH  16  17
ENDBRANCH  15  16
ENDBRANCH  12  15
ENDBRANCH  11  12
ENDBRANCH  10  11
ENDBRANCH   1  10
BRANCH   2  23
ATOM     23  C   UNL     1      34.781 -18.449 -20.997  0.00  0.00    +0.028 C 
BRANCH  23  24
ATOM     24  C   UNL     1      35.819 -19.522 -20.845  0.00  0.00    -0.031 C 
ATOM     25  C   UNL     1      35.571 -20.730 -20.316  0.00  0.00    -0.031 C 
BRANCH  25  26
ATOM     26  C   UNL     1      34.224 -21.155 -19.808  0.00  0.00    +0.026 C 
BRANCH  26  27
ATOM     27  C   UNL     1      34.232 -22.551 -19.174  0.00  0.00    +0.016 C 
BRANCH  27  28
ATOM     28  C   UNL     1      33.239 -22.733 -18.024  0.00  0.00    +0.110 C 
BRANCH  28  30
ATOM     29  O   UNL     1      33.330 -23.294 -15.667  0.00  0.00    -0.250 OA
ATOM     30  C   UNL     1      33.910 -23.144 -16.734  0.00  0.00    +0.317 C 
BRANCH  30  31
ATOM     31  O   UNL     1      35.241 -23.346 -16.958  0.00  0.00    -0.452 OA
BRANCH  31  32
ATOM     32  C   UNL     1      36.126 -22.692 -16.044  0.00  0.00    +0.169 C 
ATOM     33  C   UNL     1      36.983 -23.735 -15.342  0.00  0.00    +0.047 C 
ATOM     34  C   UNL     1      36.973 -21.682 -16.804  0.00  0.00    +0.047 C 
ENDBRANCH  31  32
ENDBRANCH  30  31
ENDBRANCH  28  30
ENDBRANCH  27  28
ENDBRANCH  26  27
ENDBRANCH  25  26
ENDBRANCH  23  24
ENDBRANCH   2  23
TORSDOF 17
ENDMDL
MODEL 4
REMARK VINA RESULT:      -9.9      1.305      2.149
REMARK  Name = 5311221
REMARK  17 active torsions:
REMARK  status: ('A' for Active; 'I' for Inactive)
REMARK    1  A    between atoms: C_1  and  C_10
REMARK    2  A    between atoms: C_2  and  C_23
REMARK    3  A    between atoms: C_3  and  O_6
REMARK    4  A    between atoms: C_4  and  O_8
REMARK    5  A    between atoms: C_10  and  C_11
REMARK    6  A    between atoms: C_11  and  C_12
REMARK    7  A    between atoms: C_12  and  O_13
REMARK    8  A    between atoms: C_12  and  C_15
REMARK    9  A    between atoms: C_15  and  C_16
REMARK   10  A    between atoms: C_16  and  C_17
REMARK   11  A    between atoms: C_23  and  C_24
REMARK   12  A    between atoms: C_25  and  C_26
REMARK   13  A    between atoms: C_26  and  C_27
REMARK   14  A    between atoms: C_27  and  C_28
REMARK   15  A    between atoms: C_28  and  C_30
REMARK   16  A    between atoms: C_30  and  O_31
REMARK   17  A    between atoms: O_31  and  C_32
REMARK                            x       y       z     vdW  Elec       q    Type
REMARK                         _______ _______ _______ _____ _____    ______ ____
ROOT
ATOM      1  C   UNL     1      33.201 -13.713 -22.955  0.00  0.00    +0.030 C 
ATOM      2  C   UNL     1      32.489 -12.481 -23.531  0.00  0.00    +0.034 C 
ATOM      3  C   UNL     1      33.498 -14.560 -24.201  0.00  0.00    +0.113 C 
ATOM      4  C   UNL     1      33.316 -12.192 -24.791  0.00  0.00    +0.113 C 
ATOM      5  C   UNL     1      33.595 -13.576 -25.378  0.00  0.00    +0.058 C 
ENDROOT
BRANCH   3   6
ATOM      6  O   UNL     1      34.717 -15.266 -24.022  0.00  0.00    -0.384 OA
ATOM      7  H   UNL     1      34.547 -16.083 -23.528  0.00  0.00    +0.210 HD
ENDBRANCH   3   6
BRANCH   4   8
ATOM      8  O   UNL     1      34.563 -11.580 -24.477  0.00  0.00    -0.384 OA
ATOM      9  H   UNL     1      34.406 -10.774 -23.961  0.00  0.00    +0.210 HD
ENDBRANCH   4   8
BRANCH   1  10
ATOM     10  C   UNL     1      32.376 -14.473 -21.923  0.00  0.00    +0.005 C 
BRANCH  10  11
ATOM     11  C   UNL     1      33.204 -14.797 -20.678  0.00  0.00    +0.029 C 
BRANCH  11  12
ATOM     12  C   UNL     1      34.251 -15.885 -20.951  0.00  0.00    +0.111 C 
BRANCH  12  13
ATOM     13  O   UNL     1      35.109 -16.014 -19.821  0.00  0.00    -0.384 OA
ATOM     14  H   UNL     1      36.007 -15.737 -20.062  0.00  0.00    +0.210 HD
ENDBRANCH  12  13
BRANCH  12  15
ATOM     15  C   UNL     1      33.583 -17.234 -21.248  0.00  0.00    +0.034 C 
BRANCH  15  16
ATOM     16  C   UNL     1      34.583 -18.267 -21.778  0.00  0.00    +0.029 C 
BRANCH  16  17
ATOM     17  C   UNL     1      34.600 -19.512 -20.928  0.00  0.00    -0.022 C 
ATOM     18  C   UNL     1      33.399 -20.091 -20.515  0.00  0.00    -0.004 C 
ATOM     19  C   UNL     1      35.816 -20.087 -20.555  0.00  0.00    -0.004 C 
ATOM     20  C   UNL     1      33.415 -21.243 -19.729  0.00  0.00    -0.000 C 
ATOM     21  C   UNL     1      35.830 -21.239 -19.770  0.00  0.00    -0.000 C 
ATOM     22  C   UNL     1      34.629 -21.817 -19.357  0.00  0.00    -0.000 C 
ENDBRANCH  16  17
ENDBRANCH  15  16
ENDBRANCH  12  15
ENDBRANCH  11  12
ENDBRANCH  10  11
ENDBRANCH   1  10
BRANCH   2  23
ATOM     23  C   UNL     1      32.406 -11.318 -22.552  0.00  0.00    +0.028 C 
BRANCH  23  24
ATOM     24  C   UNL     1      31.002 -11.123 -22.060  0.00  0.00    -0.031 C 
ATOM     25  C   UNL     1      30.655 -11.151 -20.764  0.00  0.00    -0.031 C 
BRANCH  25  26
ATOM     26  C   UNL     1      31.631 -11.383 -19.647  0.00  0.00    +0.026 C 
BRANCH  26  27
ATOM     27  C   UNL     1      32.185 -10.082 -19.053  0.00  0.00    +0.016 C 
BRANCH  27  28
ATOM     28  C   UNL     1      31.565  -8.806 -19.624  0.00  0.00    +0.110 C 
BRANCH  28  30
ATOM     29  O   UNL     1      33.000  -6.852 -19.560  0.00  0.00    -0.250 OA
ATOM     30  C   UNL     1      32.600  -7.843 -20.158  0.00  0.00    +0.317 C 
BRANCH  30  31
ATOM     31  O   UNL     1      33.032  -8.270 -21.380  0.00  0.00    -0.452 OA
BRANCH  31  32
ATOM     32  C   UNL     1      33.192  -7.247 -22.368  0.00  0.00    +0.169 C 
ATOM     33  C   UNL     1      34.402  -7.570 -23.232  0.00  0.00    +0.047 C 
ATOM     34  C   UNL     1      31.918  -7.146 -23.194  0.00  0.00    +0.047 C 
ENDBRANCH  31  32
ENDBRANCH  30  31
ENDBRANCH  28  30
ENDBRANCH  27  28
ENDBRANCH  26  27
ENDBRANCH  25  26
ENDBRANCH  23  24
ENDBRANCH   2  23
TORSDOF 17
ENDMDL
MODEL 5
REMARK VINA RESULT:      -9.9      2.206     11.508
REMARK  Name = 5311221
REMARK  17 active torsions:
REMARK  status: ('A' for Active; 'I' for Inactive)
REMARK    1  A    between atoms: C_1  and  C_10
REMARK    2  A    between atoms: C_2  and  C_23
REMARK    3  A    between atoms: C_3  and  O_6
REMARK    4  A    between atoms: C_4  and  O_8
REMARK    5  A    between atoms: C_10  and  C_11
REMARK    6  A    between atoms: C_11  and  C_12
REMARK    7  A    between atoms: C_12  and  O_13
REMARK    8  A    between atoms: C_12  and  C_15
REMARK    9  A    between atoms: C_15  and  C_16
REMARK   10  A    between atoms: C_16  and  C_17
REMARK   11  A    between atoms: C_23  and  C_24
REMARK   12  A    between atoms: C_25  and  C_26
REMARK   13  A    between atoms: C_26  and  C_27
REMARK   14  A    between atoms: C_27  and  C_28
REMARK   15  A    between atoms: C_28  and  C_30
REMARK   16  A    between atoms: C_30  and  O_31
REMARK   17  A    between atoms: O_31  and  C_32
REMARK                            x       y       z     vdW  Elec       q    Type
REMARK                         _______ _______ _______ _____ _____    ______ ____
ROOT
ATOM      1  C   UNL     1      33.296 -13.700 -22.373  0.00  0.00    +0.030 C 
ATOM      2  C   UNL     1      33.527 -15.199 -22.613  0.00  0.00    +0.034 C 
ATOM      3  C   UNL     1      32.252 -13.682 -21.246  0.00  0.00    +0.113 C 
ATOM      4  C   UNL     1      33.557 -15.752 -21.182  0.00  0.00    +0.113 C 
ATOM      5  C   UNL     1      32.438 -14.994 -20.467  0.00  0.00    +0.058 C 
ENDROOT
BRANCH   3   6
ATOM      6  O   UNL     1      32.467 -12.555 -20.411  0.00  0.00    -0.384 OA
ATOM      7  H   UNL     1      31.755 -11.911 -20.548  0.00  0.00    +0.210 HD
ENDBRANCH   3   6
BRANCH   4   8
ATOM      8  O   UNL     1      34.787 -15.457 -20.527  0.00  0.00    -0.384 OA
ATOM      9  H   UNL     1      34.908 -14.496 -20.486  0.00  0.00    +0.210 HD
ENDBRANCH   4   8
BRANCH   1  10
ATOM     10  C   UNL     1      32.823 -12.945 -23.610  0.00  0.00    +0.005 C 
BRANCH  10  11
ATOM     11  C   UNL     1      33.872 -11.937 -24.082  0.00  0.00    +0.029 C 
BRANCH  11  12
ATOM     12  C   UNL     1      33.366 -10.492 -23.983  0.00  0.00    +0.111 C 
BRANCH  12  13
ATOM     13  O   UNL     1      32.694 -10.306 -22.740  0.00  0.00    -0.384 OA
ATOM     14  H   UNL     1      31.955 -10.932 -22.674  0.00  0.00    +0.210 HD
ENDBRANCH  12  13
BRANCH  12  15
ATOM     15  C   UNL     1      34.523  -9.491 -24.097  0.00  0.00    +0.034 C 
BRANCH  15  16
ATOM     16  C   UNL     1      34.265  -8.217 -23.284  0.00  0.00    +0.029 C 
BRANCH  16  17
ATOM     17  C   UNL     1      33.740  -7.101 -24.151  0.00  0.00    -0.022 C 
ATOM     18  C   UNL     1      32.461  -6.590 -23.931  0.00  0.00    -0.004 C 
ATOM     19  C   UNL     1      34.534  -6.579 -25.173  0.00  0.00    -0.004 C 
ATOM     20  C   UNL     1      31.975  -5.557 -24.733  0.00  0.00    -0.000 C 
ATOM     21  C   UNL     1      34.047  -5.545 -25.974  0.00  0.00    -0.000 C 
ATOM     22  C   UNL     1      32.768  -5.034 -25.753  0.00  0.00    -0.000 C 
ENDBRANCH  16  17
ENDBRANCH  15  16
ENDBRANCH  12  15
ENDBRANCH  11  12
ENDBRANCH  10  11
ENDBRANCH   1  10
BRANCH   2  23
ATOM     23  C   UNL     1      34.777 -15.494 -23.430  0.00  0.00    +0.028 C 
BRANCH  23  24
ATOM     24  C   UNL     1      34.437 -16.208 -24.704  0.00  0.00    -0.031 C 
ATOM     25  C   UNL     1      34.735 -17.494 -24.942  0.00  0.00    -0.031 C 
BRANCH  25  26
ATOM     26  C   UNL     1      35.447 -18.378 -23.958  0.00  0.00    +0.026 C 
BRANCH  26  27
ATOM     27  C   UNL     1      34.552 -19.481 -23.381  0.00  0.00    +0.016 C 
BRANCH  27  28
ATOM     28  C   UNL     1      34.147 -19.273 -21.921  0.00  0.00    +0.110 C 
BRANCH  28  30
ATOM     29  O   UNL     1      35.883 -18.371 -20.489  0.00  0.00    -0.250 OA
ATOM     30  C   UNL     1      35.322 -19.345 -20.974  0.00  0.00    +0.317 C 
BRANCH  30  31
ATOM     31  O   UNL     1      35.629 -20.652 -20.728  0.00  0.00    -0.452 OA
BRANCH  31  32
ATOM     32  C   UNL     1      35.278 -21.133 -19.427  0.00  0.00    +0.169 C 
ATOM     33  C   UNL     1      34.322 -22.308 -19.568  0.00  0.00    +0.047 C 
ATOM     34  C   UNL     1      36.545 -21.521 -18.678  0.00  0.00    +0.047 C 
ENDBRANCH  31  32
ENDBRANCH  30  31
ENDBRANCH  28  30
ENDBRANCH  27  28
ENDBRANCH  26  27
ENDBRANCH  25  26
ENDBRANCH  23  24
ENDBRANCH   2  23
TORSDOF 17
ENDMDL
MODEL 6
REMARK VINA RESULT:      -9.9      1.459      2.502
REMARK  Name = 5311221
REMARK  17 active torsions:
REMARK  status: ('A' for Active; 'I' for Inactive)
REMARK    1  A    between atoms: C_1  and  C_10
REMARK    2  A    between atoms: C_2  and  C_23
REMARK    3  A    between atoms: C_3  and  O_6
REMARK    4  A    between atoms: C_4  and  O_8
REMARK    5  A    between atoms: C_10  and  C_11
REMARK    6  A    between atoms: C_11  and  C_12
REMARK    7  A    between atoms: C_12  and  O_13
REMARK    8  A    between atoms: C_12  and  C_15
REMARK    9  A    between atoms: C_15  and  C_16
REMARK   10  A    between atoms: C_16  and  C_17
REMARK   11  A    between atoms: C_23  and  C_24
REMARK   12  A    between atoms: C_25  and  C_26
REMARK   13  A    between atoms: C_26  and  C_27
REMARK   14  A    between atoms: C_27  and  C_28
REMARK   15  A    between atoms: C_28  and  C_30
REMARK   16  A    between atoms: C_30  and  O_31
REMARK   17  A    between atoms: O_31  and  C_32
REMARK                            x       y       z     vdW  Elec       q    Type
REMARK                         _______ _______ _______ _____ _____    ______ ____
ROOT
ATOM      1  C   UNL     1      33.898 -15.348 -24.662  0.00  0.00    +0.030 C 
ATOM      2  C   UNL     1      33.359 -14.520 -23.487  0.00  0.00    +0.034 C 
ATOM      3  C   UNL     1      33.015 -14.905 -25.838  0.00  0.00    +0.113 C 
ATOM      4  C   UNL     1      33.133 -13.149 -24.137  0.00  0.00    +0.113 C 
ATOM      5  C   UNL     1      32.542 -13.480 -25.508  0.00  0.00    +0.058 C 
ENDROOT
BRANCH   3   6
ATOM      6  O   UNL     1      33.768 -14.930 -27.041  0.00  0.00    -0.384 OA
ATOM      7  H   UNL     1      34.705 -15.066 -26.832  0.00  0.00    +0.210 HD
ENDBRANCH   3   6
BRANCH   4   8
ATOM      8  O   UNL     1      34.358 -12.450 -24.336  0.00  0.00    -0.384 OA
ATOM      9  H   UNL     1      34.176 -11.587 -24.738  0.00  0.00    +0.210 HD
ENDBRANCH   4   8
BRANCH   1  10
ATOM     10  C   UNL     1      33.840 -16.854 -24.431  0.00  0.00    +0.005 C 
BRANCH  10  11
ATOM     11  C   UNL     1      35.197 -17.509 -24.693  0.00  0.00    +0.029 C 
BRANCH  11  12
ATOM     12  C   UNL     1      35.572 -18.515 -23.597  0.00  0.00    +0.111 C 
BRANCH  12  13
ATOM     13  O   UNL     1      36.422 -17.885 -22.642  0.00  0.00    -0.384 OA
ATOM     14  H   UNL     1      36.555 -18.477 -21.886  0.00  0.00    +0.210 HD
ENDBRANCH  12  13
BRANCH  12  15
ATOM     15  C   UNL     1      34.322 -19.059 -22.894  0.00  0.00    +0.034 C 
BRANCH  15  16
ATOM     16  C   UNL     1      34.311 -18.725 -21.398  0.00  0.00    +0.029 C 
BRANCH  16  17
ATOM     17  C   UNL     1      34.411 -19.968 -20.550  0.00  0.00    -0.022 C 
ATOM     18  C   UNL     1      33.254 -20.573 -20.059  0.00  0.00    -0.004 C 
ATOM     19  C   UNL     1      35.662 -20.514 -20.258  0.00  0.00    -0.004 C 
ATOM     20  C   UNL     1      33.347 -21.722 -19.275  0.00  0.00    -0.000 C 
ATOM     21  C   UNL     1      35.754 -21.665 -19.475  0.00  0.00    -0.000 C 
ATOM     22  C   UNL     1      34.595 -22.269 -18.983  0.00  0.00    -0.000 C 
ENDBRANCH  16  17
ENDBRANCH  15  16
ENDBRANCH  12  15
ENDBRANCH  11  12
ENDBRANCH  10  11
ENDBRANCH   1  10
BRANCH   2  23
ATOM     23  C   UNL     1      34.291 -14.501 -22.283  0.00  0.00    +0.028 C 
BRANCH  23  24
ATOM     24  C   UNL     1      33.589 -14.978 -21.046  0.00  0.00    -0.031 C 
ATOM     25  C   UNL     1      32.605 -14.299 -20.437  0.00  0.00    -0.031 C 
BRANCH  25  26
ATOM     26  C   UNL     1      32.087 -12.975 -20.921  0.00  0.00    +0.026 C 
BRANCH  26  27
ATOM     27  C   UNL     1      31.885 -11.958 -19.790  0.00  0.00    +0.016 C 
BRANCH  27  28
ATOM     28  C   UNL     1      31.060 -10.730 -20.179  0.00  0.00    +0.110 C 
BRANCH  28  30
ATOM     29  O   UNL     1      32.272  -8.761 -19.447  0.00  0.00    -0.250 OA
ATOM     30  C   UNL     1      31.908  -9.492 -20.359  0.00  0.00    +0.317 C 
BRANCH  30  31
ATOM     31  O   UNL     1      32.221  -9.343 -21.679  0.00  0.00    -0.452 OA
BRANCH  31  32
ATOM     32  C   UNL     1      32.221  -7.996 -22.164  0.00  0.00    +0.169 C 
ATOM     33  C   UNL     1      33.628  -7.622 -22.605  0.00  0.00    +0.047 C 
ATOM     34  C   UNL     1      31.219  -7.876 -23.303  0.00  0.00    +0.047 C 
ENDBRANCH  31  32
ENDBRANCH  30  31
ENDBRANCH  28  30
ENDBRANCH  27  28
ENDBRANCH  26  27
ENDBRANCH  25  26
ENDBRANCH  23  24
ENDBRANCH   2  23
TORSDOF 17
ENDMDL
MODEL 7
REMARK VINA RESULT:      -9.9      2.397      3.515
REMARK  Name = 5311221
REMARK  17 active torsions:
REMARK  status: ('A' for Active; 'I' for Inactive)
REMARK    1  A    between atoms: C_1  and  C_10
REMARK    2  A    between atoms: C_2  and  C_23
REMARK    3  A    between atoms: C_3  and  O_6
REMARK    4  A    between atoms: C_4  and  O_8
REMARK    5  A    between atoms: C_10  and  C_11
REMARK    6  A    between atoms: C_11  and  C_12
REMARK    7  A    between atoms: C_12  and  O_13
REMARK    8  A    between atoms: C_12  and  C_15
REMARK    9  A    between atoms: C_15  and  C_16
REMARK   10  A    between atoms: C_16  and  C_17
REMARK   11  A    between atoms: C_23  and  C_24
REMARK   12  A    between atoms: C_25  and  C_26
REMARK   13  A    between atoms: C_26  and  C_27
REMARK   14  A    between atoms: C_27  and  C_28
REMARK   15  A    between atoms: C_28  and  C_30
REMARK   16  A    between atoms: C_30  and  O_31
REMARK   17  A    between atoms: O_31  and  C_32
REMARK                            x       y       z     vdW  Elec       q    Type
REMARK                         _______ _______ _______ _____ _____    ______ ____
ROOT
ATOM      1  C   UNL     1      34.195 -14.274 -24.748  0.00  0.00    +0.030 C 
ATOM      2  C   UNL     1      33.262 -13.158 -25.238  0.00  0.00    +0.034 C 
ATOM      3  C   UNL     1      33.569 -15.543 -25.346  0.00  0.00    +0.113 C 
ATOM      4  C   UNL     1      32.991 -13.579 -26.688  0.00  0.00    +0.113 C 
ATOM      5  C   UNL     1      32.814 -15.096 -26.608  0.00  0.00    +0.058 C 
ENDROOT
BRANCH   3   6
ATOM      6  O   UNL     1      34.589 -16.478 -25.663  0.00  0.00    -0.384 OA
ATOM      7  H   UNL     1      34.402 -17.322 -25.223  0.00  0.00    +0.210 HD
ENDBRANCH   3   6
BRANCH   4   8
ATOM      8  O   UNL     1      34.102 -13.304 -27.535  0.00  0.00    -0.384 OA
ATOM      9  H   UNL     1      34.174 -13.997 -28.209  0.00  0.00    +0.210 HD
ENDBRANCH   4   8
BRANCH   1  10
ATOM     10  C   UNL     1      34.319 -14.351 -23.231  0.00  0.00    +0.005 C 
BRANCH  10  11
ATOM     11  C   UNL     1      33.903 -15.727 -22.708  0.00  0.00    +0.029 C 
BRANCH  11  12
ATOM     12  C   UNL     1      35.081 -16.485 -22.081  0.00  0.00    +0.111 C 
BRANCH  12  13
ATOM     13  O   UNL     1      35.053 -16.322 -20.665  0.00  0.00    -0.384 OA
ATOM     14  H   UNL     1      34.886 -15.391 -20.449  0.00  0.00    +0.210 HD
ENDBRANCH  12  13
BRANCH  12  15
ATOM     15  C   UNL     1      35.027 -17.978 -22.429  0.00  0.00    +0.034 C 
BRANCH  15  16
ATOM     16  C   UNL     1      35.921 -18.816 -21.509  0.00  0.00    +0.029 C 
BRANCH  16  17
ATOM     17  C   UNL     1      35.124 -19.841 -20.743  0.00  0.00    -0.022 C 
ATOM     18  C   UNL     1      35.780 -20.846 -20.032  0.00  0.00    -0.004 C 
ATOM     19  C   UNL     1      33.729 -19.784 -20.744  0.00  0.00    -0.004 C 
ATOM     20  C   UNL     1      35.042 -21.794 -19.323  0.00  0.00    -0.000 C 
ATOM     21  C   UNL     1      32.992 -20.731 -20.034  0.00  0.00    -0.000 C 
ATOM     22  C   UNL     1      33.649 -21.737 -19.323  0.00  0.00    -0.000 C 
ENDBRANCH  16  17
ENDBRANCH  15  16
ENDBRANCH  12  15
ENDBRANCH  11  12
ENDBRANCH  10  11
ENDBRANCH   1  10
BRANCH   2  23
ATOM     23  C   UNL     1      33.855 -11.764 -25.087  0.00  0.00    +0.028 C 
BRANCH  23  24
ATOM     24  C   UNL     1      33.222 -11.026 -23.945  0.00  0.00    -0.031 C 
ATOM     25  C   UNL     1      33.627  -9.819 -23.520  0.00  0.00    -0.031 C 
BRANCH  25  26
ATOM     26  C   UNL     1      34.766  -9.060 -24.137  0.00  0.00    +0.026 C 
BRANCH  26  27
ATOM     27  C   UNL     1      34.791  -7.581 -23.735  0.00  0.00    +0.016 C 
BRANCH  27  28
ATOM     28  C   UNL     1      34.513  -6.605 -24.880  0.00  0.00    +0.110 C 
BRANCH  28  30
ATOM     29  O   UNL     1      32.559  -5.460 -25.744  0.00  0.00    -0.250 OA
ATOM     30  C   UNL     1      33.132  -5.997 -24.806  0.00  0.00    +0.317 C 
BRANCH  30  31
ATOM     31  O   UNL     1      32.626  -6.169 -23.550  0.00  0.00    -0.452 OA
BRANCH  31  32
ATOM     32  C   UNL     1      31.198  -6.217 -23.462  0.00  0.00    +0.169 C 
ATOM     33  C   UNL     1      30.730  -7.647 -23.685  0.00  0.00    +0.047 C 
ATOM     34  C   UNL     1      30.763  -5.683 -22.106  0.00  0.00    +0.047 C 
ENDBRANCH  31  32
ENDBRANCH  30  31
ENDBRANCH  28  30
ENDBRANCH  27  28
ENDBRANCH  26  27
ENDBRANCH  25  26
ENDBRANCH  23  24
ENDBRANCH   2  23
TORSDOF 17
ENDMDL
MODEL 8
REMARK VINA RESULT:      -9.8      2.147     11.127
REMARK  Name = 5311221
REMARK  17 active torsions:
REMARK  status: ('A' for Active; 'I' for Inactive)
REMARK    1  A    between atoms: C_1  and  C_10
REMARK    2  A    between atoms: C_2  and  C_23
REMARK    3  A    between atoms: C_3  and  O_6
REMARK    4  A    between atoms: C_4  and  O_8
REMARK    5  A    between atoms: C_10  and  C_11
REMARK    6  A    between atoms: C_11  and  C_12
REMARK    7  A    between atoms: C_12  and  O_13
REMARK    8  A    between atoms: C_12  and  C_15
REMARK    9  A    between atoms: C_15  and  C_16
REMARK   10  A    between atoms: C_16  and  C_17
REMARK   11  A    between atoms: C_23  and  C_24
REMARK   12  A    between atoms: C_25  and  C_26
REMARK   13  A    between atoms: C_26  and  C_27
REMARK   14  A    between atoms: C_27  and  C_28
REMARK   15  A    between atoms: C_28  and  C_30
REMARK   16  A    between atoms: C_30  and  O_31
REMARK   17  A    between atoms: O_31  and  C_32
REMARK                            x       y       z     vdW  Elec       q    Type
REMARK                         _______ _______ _______ _____ _____    ______ ____
ROOT
ATOM      1  C   UNL     1      33.284 -13.914 -22.464  0.00  0.00    +0.030 C 
ATOM      2  C   UNL     1      33.657 -15.402 -22.519  0.00  0.00    +0.034 C 
ATOM      3  C   UNL     1      32.249 -13.853 -21.331  0.00  0.00    +0.113 C 
ATOM      4  C   UNL     1      33.746 -15.766 -21.031  0.00  0.00    +0.113 C 
ATOM      5  C   UNL     1      32.563 -15.033 -20.398  0.00  0.00    +0.058 C 
ENDROOT
BRANCH   3   6
ATOM      6  O   UNL     1      32.358 -12.615 -20.647  0.00  0.00    -0.384 OA
ATOM      7  H   UNL     1      31.571 -12.479 -20.097  0.00  0.00    +0.210 HD
ENDBRANCH   3   6
BRANCH   4   8
ATOM      8  O   UNL     1      34.945 -15.276 -20.438  0.00  0.00    -0.384 OA
ATOM      9  H   UNL     1      34.877 -15.340 -19.474  0.00  0.00    +0.210 HD
ENDBRANCH   4   8
BRANCH   1  10
ATOM     10  C   UNL     1      32.736 -13.369 -23.778  0.00  0.00    +0.005 C 
BRANCH  10  11
ATOM     11  C   UNL     1      33.721 -12.398 -24.432  0.00  0.00    +0.029 C 
BRANCH  11  12
ATOM     12  C   UNL     1      33.853 -11.091 -23.639  0.00  0.00    +0.111 C 
BRANCH  12  13
ATOM     13  O   UNL     1      35.078 -10.448 -23.980  0.00  0.00    -0.384 OA
ATOM     14  H   UNL     1      34.924  -9.497 -24.096  0.00  0.00    +0.210 HD
ENDBRANCH  12  13
BRANCH  12  15
ATOM     15  C   UNL     1      32.678 -10.147 -23.928  0.00  0.00    +0.034 C 
BRANCH  15  16
ATOM     16  C   UNL     1      31.897  -9.794 -22.657  0.00  0.00    +0.029 C 
BRANCH  16  17
ATOM     17  C   UNL     1      31.744  -8.303 -22.495  0.00  0.00    -0.022 C 
ATOM     18  C   UNL     1      31.174  -7.545 -23.518  0.00  0.00    -0.004 C 
ATOM     19  C   UNL     1      32.172  -7.681 -21.321  0.00  0.00    -0.004 C 
ATOM     20  C   UNL     1      31.032  -6.166 -23.368  0.00  0.00    -0.000 C 
ATOM     21  C   UNL     1      32.029  -6.302 -21.171  0.00  0.00    -0.000 C 
ATOM     22  C   UNL     1      31.459  -5.544 -22.195  0.00  0.00    -0.000 C 
ENDBRANCH  16  17
ENDBRANCH  15  16
ENDBRANCH  12  15
ENDBRANCH  11  12
ENDBRANCH  10  11
ENDBRANCH   1  10
BRANCH   2  23
ATOM     23  C   UNL     1      34.926 -15.679 -23.313  0.00  0.00    +0.028 C 
BRANCH  23  24
ATOM     24  C   UNL     1      34.638 -16.519 -24.522  0.00  0.00    -0.031 C 
ATOM     25  C   UNL     1      34.886 -17.835 -24.592  0.00  0.00    -0.031 C 
BRANCH  25  26
ATOM     26  C   UNL     1      35.484 -18.630 -23.467  0.00  0.00    +0.026 C 
BRANCH  26  27
ATOM     27  C   UNL     1      34.433 -19.347 -22.611  0.00  0.00    +0.016 C 
BRANCH  27  28
ATOM     28  C   UNL     1      34.640 -19.210 -21.101  0.00  0.00    +0.110 C 
BRANCH  28  30
ATOM     29  O   UNL     1      36.974 -19.269 -20.448  0.00  0.00    -0.250 OA
ATOM     30  C   UNL     1      35.918 -19.861 -20.627  0.00  0.00    +0.317 C 
BRANCH  30  31
ATOM     31  O   UNL     1      35.697 -21.189 -20.403  0.00  0.00    -0.452 OA
BRANCH  31  32
ATOM     32  C   UNL     1      35.119 -21.513 -19.135  0.00  0.00    +0.169 C 
ATOM     33  C   UNL     1      34.142 -22.666 -19.308  0.00  0.00    +0.047 C 
ATOM     34  C   UNL     1      36.230 -21.855 -18.153  0.00  0.00    +0.047 C 
ENDBRANCH  31  32
ENDBRANCH  30  31
ENDBRANCH  28  30
ENDBRANCH  27  28
ENDBRANCH  26  27
ENDBRANCH  25  26
ENDBRANCH  23  24
ENDBRANCH   2  23
TORSDOF 17
ENDMDL
MODEL 9
REMARK VINA RESULT:      -9.8      7.498     12.453
REMARK  Name = 5311221
REMARK  17 active torsions:
REMARK  status: ('A' for Active; 'I' for Inactive)
REMARK    1  A    between atoms: C_1  and  C_10
REMARK    2  A    between atoms: C_2  and  C_23
REMARK    3  A    between atoms: C_3  and  O_6
REMARK    4  A    between atoms: C_4  and  O_8
REMARK    5  A    between atoms: C_10  and  C_11
REMARK    6  A    between atoms: C_11  and  C_12
REMARK    7  A    between atoms: C_12  and  O_13
REMARK    8  A    between atoms: C_12  and  C_15
REMARK    9  A    between atoms: C_15  and  C_16
REMARK   10  A    between atoms: C_16  and  C_17
REMARK   11  A    between atoms: C_23  and  C_24
REMARK   12  A    between atoms: C_25  and  C_26
REMARK   13  A    between atoms: C_26  and  C_27
REMARK   14  A    between atoms: C_27  and  C_28
REMARK   15  A    between atoms: C_28  and  C_30
REMARK   16  A    between atoms: C_30  and  O_31
REMARK   17  A    between atoms: O_31  and  C_32
REMARK                            x       y       z     vdW  Elec       q    Type
REMARK                         _______ _______ _______ _____ _____    ______ ____
ROOT
ATOM      1  C   UNL     1      37.549 -24.584 -15.294  0.00  0.00    +0.030 C 
ATOM      2  C   UNL     1      36.345 -25.292 -14.656  0.00  0.00    +0.034 C 
ATOM      3  C   UNL     1      38.752 -25.312 -14.675  0.00  0.00    +0.113 C 
ATOM      4  C   UNL     1      36.780 -26.763 -14.693  0.00  0.00    +0.113 C 
ATOM      5  C   UNL     1      38.261 -26.722 -14.311  0.00  0.00    +0.058 C 
ENDROOT
BRANCH   3   6
ATOM      6  O   UNL     1      39.815 -25.366 -15.614  0.00  0.00    -0.384 OA
ATOM      7  H   UNL     1      40.526 -25.925 -15.265  0.00  0.00    +0.210 HD
ENDBRANCH   3   6
BRANCH   4   8
ATOM      8  O   UNL     1      36.672 -27.313 -16.002  0.00  0.00    -0.384 OA
ATOM      9  H   UNL     1      36.961 -26.656 -16.654  0.00  0.00    +0.210 HD
ENDBRANCH   4   8
BRANCH   1  10
ATOM     10  C   UNL     1      37.587 -23.082 -15.035  0.00  0.00    +0.005 C 
BRANCH  10  11
ATOM     11  C   UNL     1      37.993 -22.312 -16.293  0.00  0.00    +0.029 C 
BRANCH  11  12
ATOM     12  C   UNL     1      36.876 -21.383 -16.784  0.00  0.00    +0.111 C 
BRANCH  12  13
ATOM     13  O   UNL     1      37.446 -20.182 -17.301  0.00  0.00    -0.384 OA
ATOM     14  H   UNL     1      37.532 -20.253 -18.265  0.00  0.00    +0.210 HD
ENDBRANCH  12  13
BRANCH  12  15
ATOM     15  C   UNL     1      36.030 -22.060 -17.870  0.00  0.00    +0.034 C 
BRANCH  15  16
ATOM     16  C   UNL     1      36.393 -21.566 -19.275  0.00  0.00    +0.029 C 
BRANCH  16  17
ATOM     17  C   UNL     1      35.241 -20.840 -19.923  0.00  0.00    -0.022 C 
ATOM     18  C   UNL     1      33.931 -21.249 -19.676  0.00  0.00    -0.004 C 
ATOM     19  C   UNL     1      35.486 -19.758 -20.770  0.00  0.00    -0.004 C 
ATOM     20  C   UNL     1      32.866 -20.578 -20.277  0.00  0.00    -0.000 C 
ATOM     21  C   UNL     1      34.421 -19.086 -21.369  0.00  0.00    -0.000 C 
ATOM     22  C   UNL     1      33.110 -19.497 -21.122  0.00  0.00    -0.000 C 
ENDBRANCH  16  17
ENDBRANCH  15  16
ENDBRANCH  12  15
ENDBRANCH  11  12
ENDBRANCH  10  11
ENDBRANCH   1  10
BRANCH   2  23
ATOM     23  C   UNL     1      35.030 -25.006 -15.366  0.00  0.00    +0.028 C 
BRANCH  23  24
ATOM     24  C   UNL     1      34.153 -24.107 -14.544  0.00  0.00    -0.031 C 
ATOM     25  C   UNL     1      33.209 -23.308 -15.063  0.00  0.00    -0.031 C 
BRANCH  25  26
ATOM     26  C   UNL     1      32.914 -23.216 -16.532  0.00  0.00    +0.026 C 
BRANCH  26  27
ATOM     27  C   UNL     1      31.424 -23.012 -16.836  0.00  0.00    +0.016 C 
BRANCH  27  28
ATOM     28  C   UNL     1      30.519 -23.004 -15.602  0.00  0.00    +0.110 C 
BRANCH  28  30
ATOM     29  O   UNL     1      29.347 -25.002 -14.884  0.00  0.00    -0.250 OA
ATOM     30  C   UNL     1      29.442 -24.062 -15.663  0.00  0.00    +0.317 C 
BRANCH  30  31
ATOM     31  O   UNL     1      28.590 -23.786 -16.692  0.00  0.00    -0.452 OA
BRANCH  31  32
ATOM     32  C   UNL     1      28.001 -22.481 -16.672  0.00  0.00    +0.169 C 
ATOM     33  C   UNL     1      27.077 -22.329 -17.871  0.00  0.00    +0.047 C 
ATOM     34  C   UNL     1      27.258 -22.289 -15.357  0.00  0.00    +0.047 C 
ENDBRANCH  31  32
ENDBRANCH  30  31
ENDBRANCH  28  30
ENDBRANCH  27  28
ENDBRANCH  26  27
ENDBRANCH  25  26
ENDBRANCH  23  24
ENDBRANCH   2  23
TORSDOF 17
ENDMDL
