MODEL 1
REMARK VINA RESULT:      -6.3      0.000      0.000
REMARK  Name = 65955
REMARK  0 active torsions:
REMARK  status: ('A' for Active; 'I' for Inactive)
REMARK                            x       y       z     vdW  Elec       q    Type
REMARK                         _______ _______ _______ _____ _____    ______ ____
ROOT
ATOM      1  O   UNL     1      34.991 -16.291 -20.661  0.00  0.00    -0.275 OA
ATOM      2  O   UNL     1      34.098 -16.265 -25.942  0.00  0.00    -0.273 OA
ATOM      3  N   UNL     1      35.326 -17.130 -22.830  0.00  0.00    -0.256 N 
ATOM      4  N   UNL     1      34.711 -18.161 -24.714  0.00  0.00    -0.289 N 
ATOM      5  C   UNL     1      35.359 -18.406 -23.472  0.00  0.00    +0.152 C 
ATOM      6  C   UNL     1      34.654 -19.304 -22.478  0.00  0.00    +0.050 C 
ATOM      7  C   UNL     1      35.046 -18.680 -21.133  0.00  0.00    +0.089 C 
ATOM      8  C   UNL     1      35.061 -16.026 -23.721  0.00  0.00    +0.180 C 
ATOM      9  C   UNL     1      35.115 -17.203 -21.462  0.00  0.00    +0.227 C 
ATOM     10  C   UNL     1      34.546 -16.790 -24.932  0.00  0.00    +0.244 C 
ATOM     11  H   UNL     1      34.418 -18.863 -25.338  0.00  0.00    +0.151 HD
ENDROOT
TORSDOF 0
ENDMDL
MODEL 2
REMARK VINA RESULT:      -6.1      1.586      2.449
REMARK  Name = 65955
REMARK  0 active torsions:
REMARK  status: ('A' for Active; 'I' for Inactive)
REMARK                            x       y       z     vdW  Elec       q    Type
REMARK                         _______ _______ _______ _____ _____    ______ ____
ROOT
ATOM      1  O   UNL     1      35.568 -17.723 -20.633  0.00  0.00    -0.275 OA
ATOM      2  O   UNL     1      34.908 -16.773 -25.864  0.00  0.00    -0.273 OA
ATOM      3  N   UNL     1      34.378 -16.824 -22.449  0.00  0.00    -0.256 N 
ATOM      4  N   UNL     1      34.055 -15.419 -24.156  0.00  0.00    -0.289 N 
ATOM      5  C   UNL     1      33.736 -15.591 -22.781  0.00  0.00    +0.152 C 
ATOM      6  C   UNL     1      34.341 -14.618 -21.793  0.00  0.00    +0.050 C 
ATOM      7  C   UNL     1      34.575 -15.500 -20.560  0.00  0.00    +0.089 C 
ATOM      8  C   UNL     1      34.743 -17.626 -23.592  0.00  0.00    +0.180 C 
ATOM      9  C   UNL     1      34.923 -16.840 -21.175  0.00  0.00    +0.227 C 
ATOM     10  C   UNL     1      34.608 -16.585 -24.693  0.00  0.00    +0.244 C 
ATOM     11  H   UNL     1      33.907 -14.589 -24.663  0.00  0.00    +0.151 HD
ENDROOT
TORSDOF 0
ENDMDL
MODEL 3
REMARK VINA RESULT:      -6.0     12.853     13.239
REMARK  Name = 65955
REMARK  0 active torsions:
REMARK  status: ('A' for Active; 'I' for Inactive)
REMARK                            x       y       z     vdW  Elec       q    Type
REMARK                         _______ _______ _______ _____ _____    ______ ____
ROOT
ATOM      1  O   UNL     1      39.075 -23.043 -11.668  0.00  0.00    -0.275 OA
ATOM      2  O   UNL     1      38.121 -27.122 -15.007  0.00  0.00    -0.273 OA
ATOM      3  N   UNL     1      37.864 -24.943 -12.337  0.00  0.00    -0.256 N 
ATOM      4  N   UNL     1      36.494 -26.099 -13.670  0.00  0.00    -0.289 N 
ATOM      5  C   UNL     1      36.494 -25.323 -12.478  0.00  0.00    +0.152 C 
ATOM      6  C   UNL     1      35.775 -23.991 -12.509  0.00  0.00    +0.050 C 
ATOM      7  C   UNL     1      36.641 -23.126 -11.585  0.00  0.00    +0.089 C 
ATOM      8  C   UNL     1      38.781 -25.734 -13.121  0.00  0.00    +0.180 C 
ATOM      9  C   UNL     1      38.035 -23.657 -11.848  0.00  0.00    +0.227 C 
ATOM     10  C   UNL     1      37.798 -26.403 -14.070  0.00  0.00    +0.244 C 
ATOM     11  H   UNL     1      35.684 -26.385 -14.149  0.00  0.00    +0.151 HD
ENDROOT
TORSDOF 0
ENDMDL
MODEL 4
REMARK VINA RESULT:      -6.0      1.994      2.507
REMARK  Name = 65955
REMARK  0 active torsions:
REMARK  status: ('A' for Active; 'I' for Inactive)
REMARK                            x       y       z     vdW  Elec       q    Type
REMARK                         _______ _______ _______ _____ _____    ______ ____
ROOT
ATOM      1  O   UNL     1      32.088 -14.271 -22.146  0.00  0.00    -0.275 OA
ATOM      2  O   UNL     1      34.606 -17.128 -25.914  0.00  0.00    -0.273 OA
ATOM      3  N   UNL     1      34.008 -15.272 -23.061  0.00  0.00    -0.256 N 
ATOM      4  N   UNL     1      35.288 -16.995 -23.679  0.00  0.00    -0.289 N 
ATOM      5  C   UNL     1      35.092 -16.084 -22.605  0.00  0.00    +0.152 C 
ATOM      6  C   UNL     1      34.570 -16.641 -21.299  0.00  0.00    +0.050 C 
ATOM      7  C   UNL     1      33.688 -15.499 -20.779  0.00  0.00    +0.089 C 
ATOM      8  C   UNL     1      33.769 -15.348 -24.482  0.00  0.00    +0.180 C 
ATOM      9  C   UNL     1      33.123 -14.912 -22.056  0.00  0.00    +0.227 C 
ATOM     10  C   UNL     1      34.574 -16.596 -24.812  0.00  0.00    +0.244 C 
ATOM     11  H   UNL     1      35.853 -17.799 -23.631  0.00  0.00    +0.151 HD
ENDROOT
TORSDOF 0
ENDMDL
MODEL 5
REMARK VINA RESULT:      -5.9     11.769     12.503
REMARK  Name = 65955
REMARK  0 active torsions:
REMARK  status: ('A' for Active; 'I' for Inactive)
REMARK                            x       y       z     vdW  Elec       q    Type
REMARK                         _______ _______ _______ _____ _____    ______ ____
ROOT
ATOM      1  O   UNL     1      38.325 -23.117 -11.623  0.00  0.00    -0.275 OA
ATOM      2  O   UNL     1      40.437 -25.996 -15.616  0.00  0.00    -0.273 OA
ATOM      3  N   UNL     1      38.232 -24.837 -13.221  0.00  0.00    -0.256 N 
ATOM      4  N   UNL     1      38.142 -25.666 -15.294  0.00  0.00    -0.289 N 
ATOM      5  C   UNL     1      37.306 -25.318 -14.198  0.00  0.00    +0.152 C 
ATOM      6  C   UNL     1      36.364 -24.147 -14.377  0.00  0.00    +0.050 C 
ATOM      7  C   UNL     1      36.341 -23.523 -12.976  0.00  0.00    +0.089 C 
ATOM      8  C   UNL     1      39.602 -25.215 -13.469  0.00  0.00    +0.180 C 
ATOM      9  C   UNL     1      37.753 -23.765 -12.485  0.00  0.00    +0.227 C 
ATOM     10  C   UNL     1      39.489 -25.662 -14.919  0.00  0.00    +0.244 C 
ATOM     11  H   UNL     1      37.817 -25.881 -16.197  0.00  0.00    +0.151 HD
ENDROOT
TORSDOF 0
ENDMDL
MODEL 6
REMARK VINA RESULT:      -5.9      2.955      4.073
REMARK  Name = 65955
REMARK  0 active torsions:
REMARK  status: ('A' for Active; 'I' for Inactive)
REMARK                            x       y       z     vdW  Elec       q    Type
REMARK                         _______ _______ _______ _____ _____    ______ ____
ROOT
ATOM      1  O   UNL     1      36.462 -21.476 -19.170  0.00  0.00    -0.275 OA
ATOM      2  O   UNL     1      35.277 -16.747 -21.389  0.00  0.00    -0.273 OA
ATOM      3  N   UNL     1      35.254 -20.127 -20.667  0.00  0.00    -0.256 N 
ATOM      4  N   UNL     1      33.782 -18.540 -21.219  0.00  0.00    -0.289 N 
ATOM      5  C   UNL     1      33.892 -19.949 -21.061  0.00  0.00    +0.152 C 
ATOM      6  C   UNL     1      33.125 -20.590 -19.925  0.00  0.00    +0.050 C 
ATOM      7  C   UNL     1      34.061 -21.726 -19.492  0.00  0.00    +0.089 C 
ATOM      8  C   UNL     1      36.102 -18.991 -20.941  0.00  0.00    +0.180 C 
ATOM      9  C   UNL     1      35.433 -21.129 -19.726  0.00  0.00    +0.227 C 
ATOM     10  C   UNL     1      35.040 -17.932 -21.197  0.00  0.00    +0.244 C 
ATOM     11  H   UNL     1      32.932 -18.057 -21.329  0.00  0.00    +0.151 HD
ENDROOT
TORSDOF 0
ENDMDL
MODEL 7
REMARK VINA RESULT:      -5.9      1.676      2.127
REMARK  Name = 65955
REMARK  0 active torsions:
REMARK  status: ('A' for Active; 'I' for Inactive)
REMARK                            x       y       z     vdW  Elec       q    Type
REMARK                         _______ _______ _______ _____ _____    ______ ____
ROOT
ATOM      1  O   UNL     1      35.380 -17.409 -21.614  0.00  0.00    -0.275 OA
ATOM      2  O   UNL     1      32.776 -13.963 -24.783  0.00  0.00    -0.273 OA
ATOM      3  N   UNL     1      34.966 -16.407 -23.699  0.00  0.00    -0.256 N 
ATOM      4  N   UNL     1      33.752 -15.960 -25.520  0.00  0.00    -0.289 N 
ATOM      5  C   UNL     1      34.775 -16.829 -25.051  0.00  0.00    +0.152 C 
ATOM      6  C   UNL     1      34.436 -18.296 -24.903  0.00  0.00    +0.050 C 
ATOM      7  C   UNL     1      35.259 -18.704 -23.674  0.00  0.00    +0.089 C 
ATOM      8  C   UNL     1      34.426 -15.102 -23.405  0.00  0.00    +0.180 C 
ATOM      9  C   UNL     1      35.223 -17.451 -22.824  0.00  0.00    +0.227 C 
ATOM     10  C   UNL     1      33.532 -14.912 -24.622  0.00  0.00    +0.244 C 
ATOM     11  H   UNL     1      33.262 -16.080 -26.365  0.00  0.00    +0.151 HD
ENDROOT
TORSDOF 0
ENDMDL
MODEL 8
REMARK VINA RESULT:      -5.8      1.431      3.967
REMARK  Name = 65955
REMARK  0 active torsions:
REMARK  status: ('A' for Active; 'I' for Inactive)
REMARK                            x       y       z     vdW  Elec       q    Type
REMARK                         _______ _______ _______ _____ _____    ______ ____
ROOT
ATOM      1  O   UNL     1      34.562 -17.323 -25.633  0.00  0.00    -0.275 OA
ATOM      2  O   UNL     1      35.520 -18.790 -20.571  0.00  0.00    -0.273 OA
ATOM      3  N   UNL     1      35.193 -16.858 -23.418  0.00  0.00    -0.256 N 
ATOM      4  N   UNL     1      34.847 -16.644 -21.222  0.00  0.00    -0.289 N 
ATOM      5  C   UNL     1      34.893 -15.880 -22.420  0.00  0.00    +0.152 C 
ATOM      6  C   UNL     1      33.597 -15.276 -22.917  0.00  0.00    +0.050 C 
ATOM      7  C   UNL     1      33.758 -15.356 -24.441  0.00  0.00    +0.089 C 
ATOM      8  C   UNL     1      35.720 -18.095 -22.894  0.00  0.00    +0.180 C 
ATOM      9  C   UNL     1      34.543 -16.639 -24.622  0.00  0.00    +0.227 C 
ATOM     10  C   UNL     1      35.353 -17.930 -21.426  0.00  0.00    +0.244 C 
ATOM     11  H   UNL     1      34.505 -16.311 -20.361  0.00  0.00    +0.151 HD
ENDROOT
TORSDOF 0
ENDMDL
MODEL 9
REMARK VINA RESULT:      -5.8     11.486     12.584
REMARK  Name = 65955
REMARK  0 active torsions:
REMARK  status: ('A' for Active; 'I' for Inactive)
REMARK                            x       y       z     vdW  Elec       q    Type
REMARK                         _______ _______ _______ _____ _____    ______ ____
ROOT
ATOM      1  O   UNL     1      36.508 -25.546 -11.586  0.00  0.00    -0.275 OA
ATOM      2  O   UNL     1      40.870 -24.959 -14.639  0.00  0.00    -0.273 OA
ATOM      3  N   UNL     1      37.604 -25.528 -13.664  0.00  0.00    -0.256 N 
ATOM      4  N   UNL     1      38.680 -24.572 -15.372  0.00  0.00    -0.289 N 
ATOM      5  C   UNL     1      37.381 -24.985 -14.968  0.00  0.00    +0.152 C 
ATOM      6  C   UNL     1      36.350 -23.908 -14.714  0.00  0.00    +0.050 C 
ATOM      7  C   UNL     1      35.533 -24.497 -13.556  0.00  0.00    +0.089 C 
ATOM      8  C   UNL     1      38.984 -25.841 -13.381  0.00  0.00    +0.180 C 
ATOM      9  C   UNL     1      36.580 -25.259 -12.770  0.00  0.00    +0.227 C 
ATOM     10  C   UNL     1      39.658 -25.074 -14.509  0.00  0.00    +0.244 C 
ATOM     11  H   UNL     1      38.867 -24.008 -16.156  0.00  0.00    +0.151 HD
ENDROOT
TORSDOF 0
ENDMDL
