MODEL 1
REMARK VINA RESULT:      -3.2      0.000      0.000
REMARK  Name = 119034
REMARK  6 active torsions:
REMARK  status: ('A' for Active; 'I' for Inactive)
REMARK    1  A    between atoms: C_9  and  C_37
REMARK    2  A    between atoms: C_14  and  C_34
REMARK    3  A    between atoms: C_17  and  O_29
REMARK    4  A    between atoms: C_19  and  O_31
REMARK    5  A    between atoms: C_34  and  O_35
REMARK    6  A    between atoms: C_37  and  O_38
REMARK                            x       y       z     vdW  Elec       q    Type
REMARK                         _______ _______ _______ _____ _____    ______ ____
ROOT
ATOM      1  C   UNL     1      32.180  -5.518 -24.824  0.00  0.00    +0.003 C 
ATOM      2  C   UNL     1      33.315  -5.834 -25.871  0.00  0.00    +0.005 C 
ATOM      3  C   UNL     1      33.637  -4.743 -26.992  0.00  0.00    +0.003 C 
ATOM      4  C   UNL     1      31.764  -6.922 -24.081  0.00  0.00    +0.015 C 
ATOM      5  C   UNL     1      32.282  -4.242 -27.597  0.00  0.00    +0.005 C 
ATOM      6  C   UNL     1      30.965  -4.869 -25.539  0.00  0.00    +0.000 C 
ATOM      7  C   UNL     1      33.029  -7.646 -23.561  0.00  0.00    -0.049 C 
ATOM      8  C   UNL     1      31.331  -3.734 -26.494  0.00  0.00    +0.000 C 
ATOM      9  C   UNL     1      32.397  -3.281 -28.845  0.00  0.00    +0.054 C 
ATOM     10  C   UNL     1      32.922  -8.682 -22.428  0.00  0.00    +0.028 C 
ATOM     11  C   UNL     1      34.561  -6.385 -25.145  0.00  0.00    +0.025 C 
ATOM     12  C   UNL     1      34.486  -5.439 -28.119  0.00  0.00    +0.032 C 
ATOM     13  C   UNL     1      30.754  -6.639 -22.925  0.00  0.00    +0.004 C 
ATOM     14  C   UNL     1      31.978  -8.176 -21.305  0.00  0.00    +0.093 C 
ATOM     15  C   UNL     1      32.684  -4.495 -23.756  0.00  0.00    +0.000 C 
ATOM     16  C   UNL     1      30.616  -7.761 -21.889  0.00  0.00    +0.011 C 
ATOM     17  C   UNL     1      33.599  -3.684 -29.770  0.00  0.00    +0.139 C 
ATOM     18  C   UNL     1      34.252  -7.364 -24.054  0.00  0.00    -0.035 C 
ATOM     19  C   UNL     1      34.074  -5.122 -29.564  0.00  0.00    +0.137 C 
ATOM     20  C   UNL     1      34.491  -3.568 -26.452  0.00  0.00    +0.000 C 
ATOM     21  C   UNL     1      31.057  -7.902 -25.063  0.00  0.00    +0.004 C 
ATOM     22  C   UNL     1      32.581 -10.136 -22.910  0.00  0.00    +0.004 C 
ATOM     23  C   UNL     1      31.810  -9.220 -20.186  0.00  0.00    +0.011 C 
ATOM     24  C   UNL     1      32.493 -11.113 -21.706  0.00  0.00    +0.000 C 
ATOM     25  C   UNL     1      32.458  -1.786 -28.456  0.00  0.00    +0.005 C 
ATOM     26  C   UNL     1      31.461 -10.610 -20.691  0.00  0.00    +0.001 C 
ATOM     27  C   UNL     1      33.592 -10.635 -23.957  0.00  0.00    +0.000 C 
ATOM     28  C   UNL     1      32.123 -12.543 -22.116  0.00  0.00    +0.000 C 
ENDROOT
BRANCH  17  29
ATOM     29  O   UNL     1      34.733  -2.836 -29.606  0.00  0.00    -0.382 OA
ATOM     30  H   UNL     1      35.532  -3.379 -29.504  0.00  0.00    +0.210 HD
ENDBRANCH  17  29
BRANCH  19  31
ATOM     31  O   UNL     1      33.051  -6.021 -29.987  0.00  0.00    -0.382 OA
ATOM     32  H   UNL     1      32.871  -5.886 -30.930  0.00  0.00    +0.210 HD
ENDBRANCH  19  31
BRANCH  14  34
ATOM     33  O   UNL     1      32.353  -5.812 -20.865  0.00  0.00    -0.250 OA
ATOM     34  C   UNL     1      32.604  -6.981 -20.612  0.00  0.00    +0.313 C 
BRANCH  34  35
ATOM     35  O   UNL     1      33.489  -7.384 -19.667  0.00  0.00    -0.480 OA
ATOM     36  H   UNL     1      34.210  -7.933 -19.906  0.00  0.00    +0.295 HD
ENDBRANCH  34  35
ENDBRANCH  14  34
BRANCH   9  37
ATOM     37  C   UNL     1      31.095  -3.440 -29.686  0.00  0.00    +0.139 C 
BRANCH  37  38
ATOM     38  O   UNL     1      30.466  -2.183 -29.730  0.00  0.00    -0.382 OA
ATOM     39  H   UNL     1      31.133  -1.485 -29.638  0.00  0.00    +0.210 HD
ENDBRANCH  37  38
ENDBRANCH   9  37
TORSDOF 6
ENDMDL
MODEL 2
REMARK VINA RESULT:      -2.6      1.092      1.303
REMARK  Name = 119034
REMARK  6 active torsions:
REMARK  status: ('A' for Active; 'I' for Inactive)
REMARK    1  A    between atoms: C_9  and  C_37
REMARK    2  A    between atoms: C_14  and  C_34
REMARK    3  A    between atoms: C_17  and  O_29
REMARK    4  A    between atoms: C_19  and  O_31
REMARK    5  A    between atoms: C_34  and  O_35
REMARK    6  A    between atoms: C_37  and  O_38
REMARK                            x       y       z     vdW  Elec       q    Type
REMARK                         _______ _______ _______ _____ _____    ______ ____
ROOT
ATOM      1  C   UNL     1      32.049  -6.285 -24.373  0.00  0.00    +0.003 C 
ATOM      2  C   UNL     1      33.249  -6.212 -25.392  0.00  0.00    +0.005 C 
ATOM      3  C   UNL     1      33.472  -4.856 -26.206  0.00  0.00    +0.003 C 
ATOM      4  C   UNL     1      31.785  -7.863 -24.006  0.00  0.00    +0.015 C 
ATOM      5  C   UNL     1      32.087  -4.380 -26.762  0.00  0.00    +0.005 C 
ATOM      6  C   UNL     1      30.788  -5.625 -24.993  0.00  0.00    +0.000 C 
ATOM      7  C   UNL     1      33.111  -8.544 -23.590  0.00  0.00    -0.049 C 
ATOM      8  C   UNL     1      31.043  -4.261 -25.633  0.00  0.00    +0.000 C 
ATOM      9  C   UNL     1      32.125  -3.142 -27.742  0.00  0.00    +0.054 C 
ATOM     10  C   UNL     1      33.094  -9.826 -22.739  0.00  0.00    +0.028 C 
ATOM     11  C   UNL     1      34.528  -6.777 -24.738  0.00  0.00    +0.025 C 
ATOM     12  C   UNL     1      34.439  -5.163 -27.409  0.00  0.00    +0.032 C 
ATOM     13  C   UNL     1      30.708  -7.979 -22.882  0.00  0.00    +0.004 C 
ATOM     14  C   UNL     1      32.057  -9.711 -21.591  0.00  0.00    +0.093 C 
ATOM     15  C   UNL     1      32.385  -5.497 -23.067  0.00  0.00    +0.000 C 
ATOM     16  C   UNL     1      30.674  -9.324 -22.146  0.00  0.00    +0.011 C 
ATOM     17  C   UNL     1      33.399  -3.176 -28.658  0.00  0.00    +0.139 C 
ATOM     18  C   UNL     1      34.306  -8.017 -23.926  0.00  0.00    -0.035 C 
ATOM     19  C   UNL     1      34.041  -4.559 -28.763  0.00  0.00    +0.137 C 
ATOM     20  C   UNL     1      34.155  -3.756 -25.355  0.00  0.00    +0.000 C 
ATOM     21  C   UNL     1      31.238  -8.653 -25.232  0.00  0.00    +0.004 C 
ATOM     22  C   UNL     1      32.952 -11.151 -23.567  0.00  0.00    +0.004 C 
ATOM     23  C   UNL     1      31.981 -11.004 -20.759  0.00  0.00    +0.011 C 
ATOM     24  C   UNL     1      32.944 -12.391 -22.631  0.00  0.00    +0.000 C 
ATOM     25  C   UNL     1      31.987  -1.786 -27.012  0.00  0.00    +0.005 C 
ATOM     26  C   UNL     1      31.824 -12.264 -21.594  0.00  0.00    +0.001 C 
ATOM     27  C   UNL     1      34.052 -11.269 -24.635  0.00  0.00    +0.000 C 
ATOM     28  C   UNL     1      32.768 -13.714 -23.386  0.00  0.00    +0.000 C 
ENDROOT
BRANCH  17  29
ATOM     29  O   UNL     1      34.413  -2.270 -28.230  0.00  0.00    -0.382 OA
ATOM     30  H   UNL     1      35.196  -2.368 -28.796  0.00  0.00    +0.210 HD
ENDBRANCH  17  29
BRANCH  19  31
ATOM     31  O   UNL     1      33.152  -5.440 -29.447  0.00  0.00    -0.382 OA
ATOM     32  H   UNL     1      32.386  -4.940 -29.770  0.00  0.00    +0.210 HD
ENDBRANCH  19  31
BRANCH  14  34
ATOM     33  O   UNL     1      33.320  -7.773 -20.834  0.00  0.00    -0.250 OA
ATOM     34  C   UNL     1      32.505  -8.654 -20.601  0.00  0.00    +0.313 C 
BRANCH  34  35
ATOM     35  O   UNL     1      31.879  -8.816 -19.409  0.00  0.00    -0.480 OA
ATOM     36  H   UNL     1      31.531  -8.072 -18.959  0.00  0.00    +0.295 HD
ENDBRANCH  34  35
ENDBRANCH  14  34
BRANCH   9  37
ATOM     37  C   UNL     1      30.883  -3.241 -28.677  0.00  0.00    +0.139 C 
BRANCH  37  38
ATOM     38  O   UNL     1      31.330  -3.037 -29.994  0.00  0.00    -0.382 OA
ATOM     39  H   UNL     1      31.638  -3.878 -30.365  0.00  0.00    +0.210 HD
ENDBRANCH  37  38
ENDBRANCH   9  37
TORSDOF 6
ENDMDL
