MODEL 1
REMARK VINA RESULT:     -11.5      0.000      0.000
REMARK  Name = 5327066
REMARK  6 active torsions:
REMARK  status: ('A' for Active; 'I' for Inactive)
REMARK    1  A    between atoms: C_2  and  C_6
REMARK    2  A    between atoms: C_2  and  C_20
REMARK    3  A    between atoms: C_3  and  O_9
REMARK    4  A    between atoms: O_9  and  C_11
REMARK    5  A    between atoms: N_18  and  C_24
REMARK    6  A    between atoms: C_21  and  N_30
REMARK                            x       y       z     vdW  Elec       q    Type
REMARK                         _______ _______ _______ _____ _____    ______ ____
ROOT
ATOM      1  O   UNL     1      33.826 -23.781 -19.754  0.00  0.00    -0.286 OA
ATOM      2  C   UNL     1      34.148 -22.847 -19.003  0.00  0.00    +0.200 C 
ENDROOT
BRANCH   2   6
ATOM      3  C   UNL     1      34.564 -23.074 -15.293  0.00  0.00    +0.138 C 
ATOM      4  C   UNL     1      34.869 -22.974 -16.645  0.00  0.00    +0.040 C 
ATOM      5  C   UNL     1      33.243 -23.153 -14.868  0.00  0.00    +0.037 C 
ATOM      6  C   UNL     1      33.838 -22.952 -17.585  0.00  0.00    +0.042 C 
ATOM      7  C   UNL     1      32.213 -23.131 -15.808  0.00  0.00    +0.003 C 
ATOM      8  C   UNL     1      32.510 -23.031 -17.167  0.00  0.00    +0.003 C 
BRANCH   3   9
ATOM      9  O   UNL     1      35.576 -23.095 -14.369  0.00  0.00    -0.479 OA
BRANCH   9  11
ATOM     10  N   UNL     1      38.215 -24.183 -12.211  0.00  0.00    +0.384 N 
ATOM     11  C   UNL     1      35.539 -24.141 -13.400  0.00  0.00    +0.162 C 
ATOM     12  C   UNL     1      35.826 -23.570 -12.011  0.00  0.00    +0.020 C 
ATOM     13  C   UNL     1      36.583 -25.192 -13.773  0.00  0.00    +0.020 C 
ATOM     14  C   UNL     1      37.279 -23.107 -11.880  0.00  0.00    -0.078 C 
ATOM     15  C   UNL     1      38.008 -24.671 -13.574  0.00  0.00    -0.078 C 
ATOM     16  H   UNL     1      38.077 -24.954 -11.557  0.00  0.00    -0.085 HD
ATOM     17  H   UNL     1      39.163 -23.814 -12.143  0.00  0.00    -0.085 HD
ENDBRANCH   9  11
ENDBRANCH   3   9
ENDBRANCH   2   6
BRANCH   2  20
ATOM     18  N   UNL     1      35.217 -19.803 -20.555  0.00  0.00    -0.177 N 
ATOM     19  N   UNL     1      36.406 -20.140 -20.030  0.00  0.00    -0.171 NA
ATOM     20  C   UNL     1      34.821 -21.649 -19.546  0.00  0.00    +0.088 C 
ATOM     21  C   UNL     1      34.221 -20.695 -20.283  0.00  0.00    +0.122 C 
ATOM     22  C   UNL     1      36.145 -21.291 -19.404  0.00  0.00    +0.124 C 
BRANCH  18  24
ATOM     23  F   UNL     1      34.768 -15.159 -23.490  0.00  0.00    -0.204 F 
ATOM     24  C   UNL     1      35.103 -18.626 -21.298  0.00  0.00    +0.075 C 
ATOM     25  C   UNL     1      34.880 -17.422 -20.644  0.00  0.00    +0.019 C 
ATOM     26  C   UNL     1      35.215 -18.678 -22.681  0.00  0.00    +0.019 C 
ATOM     27  C   UNL     1      34.766 -16.248 -21.387  0.00  0.00    +0.031 C 
ATOM     28  C   UNL     1      35.101 -17.502 -23.424  0.00  0.00    +0.031 C 
ATOM     29  C   UNL     1      34.877 -16.287 -22.777  0.00  0.00    +0.140 C 
ENDBRANCH  18  24
BRANCH  21  30
ATOM     30  N   UNL     1      32.957 -20.521 -20.730  0.00  0.00    -0.344 N 
ATOM     31  H   UNL     1      32.603 -21.099 -21.445  0.00  0.00    +0.144 HD
ATOM     32  H   UNL     1      32.390 -19.816 -20.341  0.00  0.00    +0.144 HD
ENDBRANCH  21  30
ENDBRANCH   2  20
TORSDOF 6
ENDMDL
MODEL 2
REMARK VINA RESULT:     -11.4      2.332      3.563
REMARK  Name = 5327066
REMARK  6 active torsions:
REMARK  status: ('A' for Active; 'I' for Inactive)
REMARK    1  A    between atoms: C_2  and  C_6
REMARK    2  A    between atoms: C_2  and  C_20
REMARK    3  A    between atoms: C_3  and  O_9
REMARK    4  A    between atoms: O_9  and  C_11
REMARK    5  A    between atoms: N_18  and  C_24
REMARK    6  A    between atoms: C_21  and  N_30
REMARK                            x       y       z     vdW  Elec       q    Type
REMARK                         _______ _______ _______ _____ _____    ______ ____
ROOT
ATOM      1  O   UNL     1      34.115 -23.203 -19.925  0.00  0.00    -0.286 OA
ATOM      2  C   UNL     1      34.702 -22.366 -19.223  0.00  0.00    +0.200 C 
ENDROOT
BRANCH   2   6
ATOM      3  C   UNL     1      33.879 -23.422 -15.731  0.00  0.00    +0.138 C 
ATOM      4  C   UNL     1      33.760 -23.191 -17.096  0.00  0.00    +0.040 C 
ATOM      5  C   UNL     1      35.044 -23.080 -15.054  0.00  0.00    +0.037 C 
ATOM      6  C   UNL     1      34.819 -22.611 -17.794  0.00  0.00    +0.042 C 
ATOM      7  C   UNL     1      36.104 -22.501 -15.751  0.00  0.00    +0.003 C 
ATOM      8  C   UNL     1      35.991 -22.266 -17.121  0.00  0.00    +0.003 C 
BRANCH   3   9
ATOM      9  O   UNL     1      32.839 -23.993 -15.046  0.00  0.00    -0.479 OA
BRANCH   9  11
ATOM     10  N   UNL     1      29.537 -25.106 -14.232  0.00  0.00    +0.384 N 
ATOM     11  C   UNL     1      31.662 -23.202 -14.891  0.00  0.00    +0.162 C 
ATOM     12  C   UNL     1      31.115 -23.359 -13.471  0.00  0.00    +0.020 C 
ATOM     13  C   UNL     1      30.626 -23.659 -15.917  0.00  0.00    +0.020 C 
ATOM     14  C   UNL     1      30.552 -24.763 -13.236  0.00  0.00    -0.078 C 
ATOM     15  C   UNL     1      30.079 -25.049 -15.590  0.00  0.00    -0.078 C 
ATOM     16  H   UNL     1      28.762 -24.446 -14.156  0.00  0.00    -0.085 HD
ATOM     17  H   UNL     1      29.221 -26.059 -14.052  0.00  0.00    -0.085 HD
ENDBRANCH   9  11
ENDBRANCH   3   9
ENDBRANCH   2   6
BRANCH   2  20
ATOM     18  N   UNL     1      35.457 -19.278 -20.872  0.00  0.00    -0.177 N 
ATOM     19  N   UNL     1      36.709 -19.556 -20.472  0.00  0.00    -0.171 NA
ATOM     20  C   UNL     1      35.257 -21.138 -19.830  0.00  0.00    +0.088 C 
ATOM     21  C   UNL     1      34.539 -20.216 -20.501  0.00  0.00    +0.122 C 
ATOM     22  C   UNL     1      36.570 -20.716 -19.825  0.00  0.00    +0.124 C 
BRANCH  18  24
ATOM     23  F   UNL     1      34.488 -14.670 -23.736  0.00  0.00    -0.204 F 
ATOM     24  C   UNL     1      35.211 -18.111 -21.598  0.00  0.00    +0.075 C 
ATOM     25  C   UNL     1      35.269 -18.142 -22.984  0.00  0.00    +0.019 C 
ATOM     26  C   UNL     1      34.913 -16.936 -20.922  0.00  0.00    +0.019 C 
ATOM     27  C   UNL     1      35.024 -16.976 -23.709  0.00  0.00    +0.031 C 
ATOM     28  C   UNL     1      34.668 -15.769 -21.647  0.00  0.00    +0.031 C 
ATOM     29  C   UNL     1      34.723 -15.790 -23.040  0.00  0.00    +0.140 C 
ENDBRANCH  18  24
BRANCH  21  30
ATOM     30  N   UNL     1      33.228 -20.105 -20.815  0.00  0.00    -0.344 N 
ATOM     31  H   UNL     1      32.595 -19.733 -20.159  0.00  0.00    +0.144 HD
ATOM     32  H   UNL     1      32.908 -20.395 -21.699  0.00  0.00    +0.144 HD
ENDBRANCH  21  30
ENDBRANCH   2  20
TORSDOF 6
ENDMDL
MODEL 3
REMARK VINA RESULT:     -10.8      1.137      1.971
REMARK  Name = 5327066
REMARK  6 active torsions:
REMARK  status: ('A' for Active; 'I' for Inactive)
REMARK    1  A    between atoms: C_2  and  C_6
REMARK    2  A    between atoms: C_2  and  C_20
REMARK    3  A    between atoms: C_3  and  O_9
REMARK    4  A    between atoms: O_9  and  C_11
REMARK    5  A    between atoms: N_18  and  C_24
REMARK    6  A    between atoms: C_21  and  N_30
REMARK                            x       y       z     vdW  Elec       q    Type
REMARK                         _______ _______ _______ _____ _____    ______ ____
ROOT
ATOM      1  O   UNL     1      36.711 -22.018 -19.867  0.00  0.00    -0.286 OA
ATOM      2  C   UNL     1      35.626 -21.621 -19.417  0.00  0.00    +0.200 C 
ENDROOT
BRANCH   2   6
ATOM      3  C   UNL     1      35.385 -22.926 -15.920  0.00  0.00    +0.138 C 
ATOM      4  C   UNL     1      35.894 -22.330 -17.068  0.00  0.00    +0.040 C 
ATOM      5  C   UNL     1      34.092 -23.436 -15.901  0.00  0.00    +0.037 C 
ATOM      6  C   UNL     1      35.100 -22.243 -18.211  0.00  0.00    +0.042 C 
ATOM      7  C   UNL     1      33.298 -23.349 -17.044  0.00  0.00    +0.003 C 
ATOM      8  C   UNL     1      33.802 -22.753 -18.199  0.00  0.00    +0.003 C 
BRANCH   3   9
ATOM      9  O   UNL     1      36.164 -23.011 -14.797  0.00  0.00    -0.479 OA
BRANCH   9  11
ATOM     10  N   UNL     1      38.222 -24.295 -12.166  0.00  0.00    +0.384 N 
ATOM     11  C   UNL     1      35.861 -24.063 -13.882  0.00  0.00    +0.162 C 
ATOM     12  C   UNL     1      35.887 -23.528 -12.450  0.00  0.00    +0.020 C 
ATOM     13  C   UNL     1      36.893 -25.176 -14.058  0.00  0.00    +0.020 C 
ATOM     14  C   UNL     1      37.307 -23.164 -12.010  0.00  0.00    -0.078 C 
ATOM     15  C   UNL     1      38.274 -24.753 -13.555  0.00  0.00    -0.078 C 
ATOM     16  H   UNL     1      37.904 -25.063 -11.575  0.00  0.00    -0.085 HD
ATOM     17  H   UNL     1      39.157 -23.991 -11.893  0.00  0.00    -0.085 HD
ENDBRANCH   9  11
ENDBRANCH   3   9
ENDBRANCH   2   6
BRANCH   2  20
ATOM     18  N   UNL     1      34.376 -18.748 -21.152  0.00  0.00    -0.177 N 
ATOM     19  N   UNL     1      33.192 -19.358 -20.978  0.00  0.00    -0.171 NA
ATOM     20  C   UNL     1      34.879 -20.547 -20.104  0.00  0.00    +0.088 C 
ATOM     21  C   UNL     1      35.433 -19.440 -20.635  0.00  0.00    +0.122 C 
ATOM     22  C   UNL     1      33.519 -20.476 -20.325  0.00  0.00    +0.124 C 
BRANCH  18  24
ATOM     23  F   UNL     1      34.573 -13.900 -23.766  0.00  0.00    -0.204 F 
ATOM     24  C   UNL     1      34.426 -17.520 -21.814  0.00  0.00    +0.075 C 
ATOM     25  C   UNL     1      34.669 -17.489 -23.181  0.00  0.00    +0.019 C 
ATOM     26  C   UNL     1      34.231 -16.348 -21.096  0.00  0.00    +0.019 C 
ATOM     27  C   UNL     1      34.720 -16.262 -23.841  0.00  0.00    +0.031 C 
ATOM     28  C   UNL     1      34.281 -15.121 -21.758  0.00  0.00    +0.031 C 
ATOM     29  C   UNL     1      34.525 -15.078 -23.131  0.00  0.00    +0.140 C 
ENDBRANCH  18  24
BRANCH  21  30
ATOM     30  N   UNL     1      36.702 -18.980 -20.715  0.00  0.00    -0.344 N 
ATOM     31  H   UNL     1      36.970 -18.183 -20.204  0.00  0.00    +0.144 HD
ATOM     32  H   UNL     1      37.357 -19.443 -21.285  0.00  0.00    +0.144 HD
ENDBRANCH  21  30
ENDBRANCH   2  20
TORSDOF 6
ENDMDL
MODEL 4
REMARK VINA RESULT:     -10.6      6.780     12.608
REMARK  Name = 5327066
REMARK  6 active torsions:
REMARK  status: ('A' for Active; 'I' for Inactive)
REMARK    1  A    between atoms: C_2  and  C_6
REMARK    2  A    between atoms: C_2  and  C_20
REMARK    3  A    between atoms: C_3  and  O_9
REMARK    4  A    between atoms: O_9  and  C_11
REMARK    5  A    between atoms: N_18  and  C_24
REMARK    6  A    between atoms: C_21  and  N_30
REMARK                            x       y       z     vdW  Elec       q    Type
REMARK                         _______ _______ _______ _____ _____    ______ ____
ROOT
ATOM      1  O   UNL     1      34.065 -14.290 -24.594  0.00  0.00    -0.286 OA
ATOM      2  C   UNL     1      33.804 -14.086 -23.399  0.00  0.00    +0.200 C 
ENDROOT
BRANCH   2   6
ATOM      3  C   UNL     1      32.770 -10.493 -23.294  0.00  0.00    +0.138 C 
ATOM      4  C   UNL     1      33.444 -11.657 -23.646  0.00  0.00    +0.040 C 
ATOM      5  C   UNL     1      31.761 -10.521 -22.338  0.00  0.00    +0.037 C 
ATOM      6  C   UNL     1      33.103 -12.864 -23.035  0.00  0.00    +0.042 C 
ATOM      7  C   UNL     1      31.420 -11.727 -21.729  0.00  0.00    +0.003 C 
ATOM      8  C   UNL     1      32.091 -12.899 -22.077  0.00  0.00    +0.003 C 
BRANCH   3   9
ATOM      9  O   UNL     1      33.105  -9.307 -23.893  0.00  0.00    -0.479 OA
BRANCH   9  11
ATOM     10  N   UNL     1      33.227  -5.833 -24.740  0.00  0.00    +0.384 N 
ATOM     11  C   UNL     1      33.376  -8.205 -23.030  0.00  0.00    +0.162 C 
ATOM     12  C   UNL     1      32.177  -7.256 -23.010  0.00  0.00    +0.020 C 
ATOM     13  C   UNL     1      34.624  -7.482 -23.535  0.00  0.00    +0.020 C 
ATOM     14  C   UNL     1      32.005  -6.536 -24.350  0.00  0.00    -0.078 C 
ATOM     15  C   UNL     1      34.360  -6.752 -24.854  0.00  0.00    -0.078 C 
ATOM     16  H   UNL     1      33.442  -5.126 -24.037  0.00  0.00    -0.085 HD
ATOM     17  H   UNL     1      33.071  -5.402 -25.652  0.00  0.00    -0.085 HD
ENDBRANCH   9  11
ENDBRANCH   3   9
ENDBRANCH   2   6
BRANCH   2  20
ATOM     18  N   UNL     1      34.740 -16.876 -21.359  0.00  0.00    -0.177 N 
ATOM     19  N   UNL     1      34.831 -15.939 -20.400  0.00  0.00    -0.171 NA
ATOM     20  C   UNL     1      34.210 -15.063 -22.367  0.00  0.00    +0.088 C 
ATOM     21  C   UNL     1      34.365 -16.385 -22.575  0.00  0.00    +0.122 C 
ATOM     22  C   UNL     1      34.499 -14.815 -21.042  0.00  0.00    +0.124 C 
BRANCH  18  24
ATOM     23  F   UNL     1      35.857 -22.130 -20.125  0.00  0.00    -0.204 F 
ATOM     24  C   UNL     1      35.023 -18.207 -21.047  0.00  0.00    +0.075 C 
ATOM     25  C   UNL     1      33.979 -19.092 -20.816  0.00  0.00    +0.019 C 
ATOM     26  C   UNL     1      36.344 -18.625 -20.971  0.00  0.00    +0.019 C 
ATOM     27  C   UNL     1      34.262 -20.421 -20.503  0.00  0.00    +0.031 C 
ATOM     28  C   UNL     1      36.627 -19.955 -20.659  0.00  0.00    +0.031 C 
ATOM     29  C   UNL     1      35.586 -20.853 -20.425  0.00  0.00    +0.140 C 
ENDBRANCH  18  24
BRANCH  21  30
ATOM     30  N   UNL     1      34.222 -17.180 -23.659  0.00  0.00    -0.344 N 
ATOM     31  H   UNL     1      34.805 -17.055 -24.442  0.00  0.00    +0.144 HD
ATOM     32  H   UNL     1      33.535 -17.885 -23.664  0.00  0.00    +0.144 HD
ENDBRANCH  21  30
ENDBRANCH   2  20
TORSDOF 6
ENDMDL
MODEL 5
REMARK VINA RESULT:     -10.4      6.877     12.682
REMARK  Name = 5327066
REMARK  6 active torsions:
REMARK  status: ('A' for Active; 'I' for Inactive)
REMARK    1  A    between atoms: C_2  and  C_6
REMARK    2  A    between atoms: C_2  and  C_20
REMARK    3  A    between atoms: C_3  and  O_9
REMARK    4  A    between atoms: O_9  and  C_11
REMARK    5  A    between atoms: N_18  and  C_24
REMARK    6  A    between atoms: C_21  and  N_30
REMARK                            x       y       z     vdW  Elec       q    Type
REMARK                         _______ _______ _______ _____ _____    ______ ____
ROOT
ATOM      1  O   UNL     1      32.622 -13.973 -25.531  0.00  0.00    -0.286 OA
ATOM      2  C   UNL     1      33.314 -13.546 -24.594  0.00  0.00    +0.200 C 
ENDROOT
BRANCH   2   6
ATOM      3  C   UNL     1      33.906  -9.948 -23.759  0.00  0.00    +0.138 C 
ATOM      4  C   UNL     1      33.428 -11.251 -23.690  0.00  0.00    +0.040 C 
ATOM      5  C   UNL     1      34.760  -9.560 -24.784  0.00  0.00    +0.037 C 
ATOM      6  C   UNL     1      33.810 -12.179 -24.659  0.00  0.00    +0.042 C 
ATOM      7  C   UNL     1      35.143 -10.488 -25.753  0.00  0.00    +0.003 C 
ATOM      8  C   UNL     1      34.667 -11.797 -25.691  0.00  0.00    +0.003 C 
BRANCH   3   9
ATOM      9  O   UNL     1      33.531  -9.037 -22.807  0.00  0.00    -0.479 OA
BRANCH   9  11
ATOM     10  N   UNL     1      31.719  -6.424 -21.165  0.00  0.00    +0.384 N 
ATOM     11  C   UNL     1      32.154  -9.027 -22.434  0.00  0.00    +0.162 C 
ATOM     12  C   UNL     1      31.434  -7.880 -23.145  0.00  0.00    +0.020 C 
ATOM     13  C   UNL     1      32.058  -8.862 -20.918  0.00  0.00    +0.020 C 
ATOM     14  C   UNL     1      31.885  -6.517 -22.616  0.00  0.00    -0.078 C 
ATOM     15  C   UNL     1      32.482  -7.461 -20.473  0.00  0.00    -0.078 C 
ATOM     16  H   UNL     1      30.730  -6.531 -20.937  0.00  0.00    -0.085 HD
ATOM     17  H   UNL     1      32.065  -5.514 -20.861  0.00  0.00    -0.085 HD
ENDBRANCH   9  11
ENDBRANCH   3   9
ENDBRANCH   2   6
BRANCH   2  20
ATOM     18  N   UNL     1      34.207 -16.093 -22.241  0.00  0.00    -0.177 N 
ATOM     19  N   UNL     1      33.960 -15.125 -21.343  0.00  0.00    -0.171 NA
ATOM     20  C   UNL     1      33.637 -14.416 -23.444  0.00  0.00    +0.088 C 
ATOM     21  C   UNL     1      34.024 -15.703 -23.536  0.00  0.00    +0.122 C 
ATOM     22  C   UNL     1      33.607 -14.087 -22.105  0.00  0.00    +0.124 C 
BRANCH  18  24
ATOM     23  F   UNL     1      35.802 -21.071 -20.494  0.00  0.00    -0.204 F 
ATOM     24  C   UNL     1      34.611 -17.354 -21.798  0.00  0.00    +0.075 C 
ATOM     25  C   UNL     1      35.962 -17.671 -21.778  0.00  0.00    +0.019 C 
ATOM     26  C   UNL     1      33.655 -18.272 -21.386  0.00  0.00    +0.019 C 
ATOM     27  C   UNL     1      36.365 -18.931 -21.336  0.00  0.00    +0.031 C 
ATOM     28  C   UNL     1      34.059 -19.532 -20.944  0.00  0.00    +0.031 C 
ATOM     29  C   UNL     1      35.414 -19.861 -20.919  0.00  0.00    +0.140 C 
ENDBRANCH  18  24
BRANCH  21  30
ATOM     30  N   UNL     1      34.225 -16.543 -24.576  0.00  0.00    -0.344 N 
ATOM     31  H   UNL     1      33.943 -16.281 -25.482  0.00  0.00    +0.144 HD
ATOM     32  H   UNL     1      34.654 -17.416 -24.427  0.00  0.00    +0.144 HD
ENDBRANCH  21  30
ENDBRANCH   2  20
TORSDOF 6
ENDMDL
MODEL 6
REMARK VINA RESULT:     -10.2      4.292     10.490
REMARK  Name = 5327066
REMARK  6 active torsions:
REMARK  status: ('A' for Active; 'I' for Inactive)
REMARK    1  A    between atoms: C_2  and  C_6
REMARK    2  A    between atoms: C_2  and  C_20
REMARK    3  A    between atoms: C_3  and  O_9
REMARK    4  A    between atoms: O_9  and  C_11
REMARK    5  A    between atoms: N_18  and  C_24
REMARK    6  A    between atoms: C_21  and  N_30
REMARK                            x       y       z     vdW  Elec       q    Type
REMARK                         _______ _______ _______ _____ _____    ______ ____
ROOT
ATOM      1  O   UNL     1      34.681 -19.445 -23.320  0.00  0.00    -0.286 OA
ATOM      2  C   UNL     1      34.900 -18.939 -22.209  0.00  0.00    +0.200 C 
ENDROOT
BRANCH   2   6
ATOM      3  C   UNL     1      34.519 -15.310 -23.029  0.00  0.00    +0.138 C 
ATOM      4  C   UNL     1      34.658 -16.684 -23.184  0.00  0.00    +0.040 C 
ATOM      5  C   UNL     1      34.475 -14.741 -21.761  0.00  0.00    +0.037 C 
ATOM      6  C   UNL     1      34.755 -17.500 -22.056  0.00  0.00    +0.042 C 
ATOM      7  C   UNL     1      34.571 -15.556 -20.634  0.00  0.00    +0.003 C 
ATOM      8  C   UNL     1      34.711 -16.935 -20.781  0.00  0.00    +0.003 C 
BRANCH   3   9
ATOM      9  O   UNL     1      34.423 -14.509 -24.136  0.00  0.00    -0.479 OA
BRANCH   9  11
ATOM     10  N   UNL     1      33.559 -12.203 -26.733  0.00  0.00    +0.384 N 
ATOM     11  C   UNL     1      33.153 -13.910 -24.389  0.00  0.00    +0.162 C 
ATOM     12  C   UNL     1      32.663 -14.304 -25.782  0.00  0.00    +0.020 C 
ATOM     13  C   UNL     1      33.297 -12.393 -24.280  0.00  0.00    +0.020 C 
ATOM     14  C   UNL     1      33.509 -13.658 -26.882  0.00  0.00    -0.078 C 
ATOM     15  C   UNL     1      34.117 -11.817 -25.436  0.00  0.00    -0.078 C 
ATOM     16  H   UNL     1      32.613 -11.829 -26.812  0.00  0.00    -0.085 HD
ATOM     17  H   UNL     1      34.161 -11.827 -27.465  0.00  0.00    -0.085 HD
ENDBRANCH   9  11
ENDBRANCH   3   9
ENDBRANCH   2   6
BRANCH   2  20
ATOM     18  N   UNL     1      35.293 -21.098 -19.379  0.00  0.00    -0.177 N 
ATOM     19  N   UNL     1      36.598 -20.838 -19.565  0.00  0.00    -0.171 NA
ATOM     20  C   UNL     1      35.315 -19.785 -21.071  0.00  0.00    +0.088 C 
ATOM     21  C   UNL     1      34.475 -20.477 -20.277  0.00  0.00    +0.122 C 
ATOM     22  C   UNL     1      36.597 -20.020 -20.621  0.00  0.00    +0.124 C 
BRANCH  18  24
ATOM     23  F   UNL     1      33.749 -24.422 -15.262  0.00  0.00    -0.204 F 
ATOM     24  C   UNL     1      34.902 -21.940 -18.337  0.00  0.00    +0.075 C 
ATOM     25  C   UNL     1      33.660 -22.558 -18.385  0.00  0.00    +0.019 C 
ATOM     26  C   UNL     1      35.761 -22.147 -17.266  0.00  0.00    +0.019 C 
ATOM     27  C   UNL     1      33.269 -23.398 -17.343  0.00  0.00    +0.031 C 
ATOM     28  C   UNL     1      35.371 -22.988 -16.224  0.00  0.00    +0.031 C 
ATOM     29  C   UNL     1      34.124 -23.614 -16.263  0.00  0.00    +0.140 C 
ENDBRANCH  18  24
BRANCH  21  30
ATOM     30  N   UNL     1      33.131 -20.622 -20.246  0.00  0.00    -0.344 N 
ATOM     31  H   UNL     1      32.665 -20.711 -19.383  0.00  0.00    +0.144 HD
ATOM     32  H   UNL     1      32.618 -20.637 -21.086  0.00  0.00    +0.144 HD
ENDBRANCH  21  30
ENDBRANCH   2  20
TORSDOF 6
ENDMDL
MODEL 7
REMARK VINA RESULT:     -10.2      6.953     10.836
REMARK  Name = 5327066
REMARK  6 active torsions:
REMARK  status: ('A' for Active; 'I' for Inactive)
REMARK    1  A    between atoms: C_2  and  C_6
REMARK    2  A    between atoms: C_2  and  C_20
REMARK    3  A    between atoms: C_3  and  O_9
REMARK    4  A    between atoms: O_9  and  C_11
REMARK    5  A    between atoms: N_18  and  C_24
REMARK    6  A    between atoms: C_21  and  N_30
REMARK                            x       y       z     vdW  Elec       q    Type
REMARK                         _______ _______ _______ _____ _____    ______ ____
ROOT
ATOM      1  O   UNL     1      31.863 -13.476 -21.689  0.00  0.00    -0.286 OA
ATOM      2  C   UNL     1      32.619 -13.204 -22.634  0.00  0.00    +0.200 C 
ENDROOT
BRANCH   2   6
ATOM      3  C   UNL     1      34.840 -16.150 -23.257  0.00  0.00    +0.138 C 
ATOM      4  C   UNL     1      34.185 -15.113 -22.602  0.00  0.00    +0.040 C 
ATOM      5  C   UNL     1      34.629 -16.376 -24.612  0.00  0.00    +0.037 C 
ATOM      6  C   UNL     1      33.308 -14.292 -23.312  0.00  0.00    +0.042 C 
ATOM      7  C   UNL     1      33.752 -15.556 -25.321  0.00  0.00    +0.003 C 
ATOM      8  C   UNL     1      33.092 -14.514 -24.672  0.00  0.00    +0.003 C 
BRANCH   3   9
ATOM      9  O   UNL     1      35.700 -16.956 -22.560  0.00  0.00    -0.479 OA
BRANCH   9  11
ATOM     10  N   UNL     1      35.447 -19.857 -20.480  0.00  0.00    +0.384 N 
ATOM     11  C   UNL     1      35.761 -18.325 -22.956  0.00  0.00    +0.162 C 
ATOM     12  C   UNL     1      34.454 -19.028 -22.589  0.00  0.00    +0.020 C 
ATOM     13  C   UNL     1      36.943 -18.987 -22.249  0.00  0.00    +0.020 C 
ATOM     14  C   UNL     1      34.297 -19.174 -21.074  0.00  0.00    -0.078 C 
ATOM     15  C   UNL     1      36.693 -19.137 -20.747  0.00  0.00    -0.078 C 
ATOM     16  H   UNL     1      35.515 -20.795 -20.874  0.00  0.00    -0.085 HD
ATOM     17  H   UNL     1      35.310 -19.896 -19.470  0.00  0.00    -0.085 HD
ENDBRANCH   9  11
ENDBRANCH   3   9
ENDBRANCH   2   6
BRANCH   2  20
ATOM     18  N   UNL     1      32.638  -9.678 -23.253  0.00  0.00    -0.177 N 
ATOM     19  N   UNL     1      33.655  -9.990 -24.074  0.00  0.00    -0.171 NA
ATOM     20  C   UNL     1      32.823 -11.801 -23.049  0.00  0.00    +0.088 C 
ATOM     21  C   UNL     1      32.102 -10.753 -22.606  0.00  0.00    +0.122 C 
ATOM     22  C   UNL     1      33.759 -11.314 -23.937  0.00  0.00    +0.124 C 
BRANCH  18  24
ATOM     23  F   UNL     1      31.047  -4.421 -22.787  0.00  0.00    -0.204 F 
ATOM     24  C   UNL     1      32.235  -8.346 -23.135  0.00  0.00    +0.075 C 
ATOM     25  C   UNL     1      31.368  -7.808 -24.076  0.00  0.00    +0.019 C 
ATOM     26  C   UNL     1      32.707  -7.580 -22.078  0.00  0.00    +0.019 C 
ATOM     27  C   UNL     1      30.966  -6.478 -23.959  0.00  0.00    +0.031 C 
ATOM     28  C   UNL     1      32.305  -6.250 -21.960  0.00  0.00    +0.031 C 
ATOM     29  C   UNL     1      31.434  -5.699 -22.901  0.00  0.00    +0.140 C 
ENDBRANCH  18  24
BRANCH  21  30
ATOM     30  N   UNL     1      31.072 -10.631 -21.740  0.00  0.00    -0.344 N 
ATOM     31  H   UNL     1      30.380  -9.947 -21.891  0.00  0.00    +0.144 HD
ATOM     32  H   UNL     1      31.012 -11.227 -20.959  0.00  0.00    +0.144 HD
ENDBRANCH  21  30
ENDBRANCH   2  20
TORSDOF 6
ENDMDL
MODEL 8
REMARK VINA RESULT:     -10.2      6.760     10.328
REMARK  Name = 5327066
REMARK  6 active torsions:
REMARK  status: ('A' for Active; 'I' for Inactive)
REMARK    1  A    between atoms: C_2  and  C_6
REMARK    2  A    between atoms: C_2  and  C_20
REMARK    3  A    between atoms: C_3  and  O_9
REMARK    4  A    between atoms: O_9  and  C_11
REMARK    5  A    between atoms: N_18  and  C_24
REMARK    6  A    between atoms: C_21  and  N_30
REMARK                            x       y       z     vdW  Elec       q    Type
REMARK                         _______ _______ _______ _____ _____    ______ ____
ROOT
ATOM      1  O   UNL     1      32.901 -13.967 -24.819  0.00  0.00    -0.286 OA
ATOM      2  C   UNL     1      33.127 -13.401 -23.738  0.00  0.00    +0.200 C 
ENDROOT
BRANCH   2   6
ATOM      3  C   UNL     1      34.402 -15.918 -21.283  0.00  0.00    +0.138 C 
ATOM      4  C   UNL     1      34.287 -15.146 -22.433  0.00  0.00    +0.040 C 
ATOM      5  C   UNL     1      33.499 -15.770 -20.237  0.00  0.00    +0.037 C 
ATOM      6  C   UNL     1      33.255 -14.213 -22.538  0.00  0.00    +0.042 C 
ATOM      7  C   UNL     1      32.468 -14.837 -20.341  0.00  0.00    +0.003 C 
ATOM      8  C   UNL     1      32.345 -14.059 -21.492  0.00  0.00    +0.003 C 
BRANCH   3   9
ATOM      9  O   UNL     1      35.416 -16.834 -21.179  0.00  0.00    -0.479 OA
BRANCH   9  11
ATOM     10  N   UNL     1      35.654 -20.374 -20.715  0.00  0.00    +0.384 N 
ATOM     11  C   UNL     1      35.472 -17.846 -22.182  0.00  0.00    +0.162 C 
ATOM     12  C   UNL     1      34.280 -18.792 -22.031  0.00  0.00    +0.020 C 
ATOM     13  C   UNL     1      36.786 -18.612 -22.033  0.00  0.00    +0.020 C 
ATOM     14  C   UNL     1      34.389 -19.639 -20.760  0.00  0.00    -0.078 C 
ATOM     15  C   UNL     1      36.801 -19.468 -20.765  0.00  0.00    -0.078 C 
ATOM     16  H   UNL     1      35.696 -21.009 -21.513  0.00  0.00    -0.085 HD
ATOM     17  H   UNL     1      35.692 -20.892 -19.837  0.00  0.00    -0.085 HD
ENDBRANCH   9  11
ENDBRANCH   3   9
ENDBRANCH   2   6
BRANCH   2  20
ATOM     18  N   UNL     1      32.884  -9.860 -23.266  0.00  0.00    -0.177 N 
ATOM     19  N   UNL     1      34.038  -9.851 -23.954  0.00  0.00    -0.171 NA
ATOM     20  C   UNL     1      33.249 -11.930 -23.675  0.00  0.00    +0.088 C 
ATOM     21  C   UNL     1      32.369 -11.108 -23.071  0.00  0.00    +0.122 C 
ATOM     22  C   UNL     1      34.254 -11.145 -24.202  0.00  0.00    +0.124 C 
BRANCH  18  24
ATOM     23  F   UNL     1      30.723  -5.093 -21.537  0.00  0.00    -0.204 F 
ATOM     24  C   UNL     1      32.337  -8.653 -22.828  0.00  0.00    +0.075 C 
ATOM     25  C   UNL     1      31.446  -7.970 -23.644  0.00  0.00    +0.019 C 
ATOM     26  C   UNL     1      32.692  -8.153 -21.582  0.00  0.00    +0.019 C 
ATOM     27  C   UNL     1      30.900  -6.763 -23.207  0.00  0.00    +0.031 C 
ATOM     28  C   UNL     1      32.145  -6.946 -21.145  0.00  0.00    +0.031 C 
ATOM     29  C   UNL     1      31.249  -6.252 -21.957  0.00  0.00    +0.140 C 
ENDBRANCH  18  24
BRANCH  21  30
ATOM     30  N   UNL     1      31.213 -11.312 -22.400  0.00  0.00    -0.344 N 
ATOM     31  H   UNL     1      31.233 -11.678 -21.486  0.00  0.00    +0.144 HD
ATOM     32  H   UNL     1      30.352 -11.095 -22.824  0.00  0.00    +0.144 HD
ENDBRANCH  21  30
ENDBRANCH   2  20
TORSDOF 6
ENDMDL
MODEL 9
REMARK VINA RESULT:     -10.1      1.321      2.570
REMARK  Name = 5327066
REMARK  6 active torsions:
REMARK  status: ('A' for Active; 'I' for Inactive)
REMARK    1  A    between atoms: C_2  and  C_6
REMARK    2  A    between atoms: C_2  and  C_20
REMARK    3  A    between atoms: C_3  and  O_9
REMARK    4  A    between atoms: O_9  and  C_11
REMARK    5  A    between atoms: N_18  and  C_24
REMARK    6  A    between atoms: C_21  and  N_30
REMARK                            x       y       z     vdW  Elec       q    Type
REMARK                         _______ _______ _______ _____ _____    ______ ____
ROOT
ATOM      1  O   UNL     1      33.911 -23.659 -18.929  0.00  0.00    -0.286 OA
ATOM      2  C   UNL     1      34.382 -22.529 -18.731  0.00  0.00    +0.200 C 
ENDROOT
BRANCH   2   6
ATOM      3  C   UNL     1      36.060 -22.717 -15.393  0.00  0.00    +0.138 C 
ATOM      4  C   UNL     1      35.118 -22.885 -16.402  0.00  0.00    +0.040 C 
ATOM      5  C   UNL     1      37.242 -22.028 -15.636  0.00  0.00    +0.037 C 
ATOM      6  C   UNL     1      35.362 -22.357 -17.670  0.00  0.00    +0.042 C 
ATOM      7  C   UNL     1      37.487 -21.501 -16.904  0.00  0.00    +0.003 C 
ATOM      8  C   UNL     1      36.547 -21.665 -17.921  0.00  0.00    +0.003 C 
BRANCH   3   9
ATOM      9  O   UNL     1      35.820 -23.235 -14.148  0.00  0.00    -0.479 OA
BRANCH   9  11
ATOM     10  N   UNL     1      36.647 -25.979 -12.005  0.00  0.00    +0.384 N 
ATOM     11  C   UNL     1      36.942 -23.358 -13.276  0.00  0.00    +0.162 C 
ATOM     12  C   UNL     1      37.786 -24.565 -13.685  0.00  0.00    +0.020 C 
ATOM     13  C   UNL     1      36.434 -23.519 -11.844  0.00  0.00    +0.020 C 
ATOM     14  C   UNL     1      37.059 -25.883 -13.406  0.00  0.00    -0.078 C 
ATOM     15  C   UNL     1      35.761 -24.876 -11.632  0.00  0.00    -0.078 C 
ATOM     16  H   UNL     1      37.477 -25.954 -11.413  0.00  0.00    -0.085 HD
ATOM     17  H   UNL     1      36.139 -26.855 -11.881  0.00  0.00    -0.085 HD
ENDBRANCH   9  11
ENDBRANCH   3   9
ENDBRANCH   2   6
BRANCH   2  20
ATOM     18  N   UNL     1      33.912 -19.718 -20.899  0.00  0.00    -0.177 N 
ATOM     19  N   UNL     1      32.639 -19.810 -20.479  0.00  0.00    -0.171 NA
ATOM     20  C   UNL     1      33.941 -21.380 -19.550  0.00  0.00    +0.088 C 
ATOM     21  C   UNL     1      34.740 -20.658 -20.358  0.00  0.00    +0.122 C 
ATOM     22  C   UNL     1      32.671 -20.849 -19.640  0.00  0.00    +0.124 C 
BRANCH  18  24
ATOM     23  F   UNL     1      35.302 -15.775 -24.490  0.00  0.00    -0.204 F 
ATOM     24  C   UNL     1      34.263 -18.719 -21.809  0.00  0.00    +0.075 C 
ATOM     25  C   UNL     1      34.502 -19.055 -23.135  0.00  0.00    +0.019 C 
ATOM     26  C   UNL     1      34.370 -17.405 -21.374  0.00  0.00    +0.019 C 
ATOM     27  C   UNL     1      34.855 -18.057 -24.043  0.00  0.00    +0.031 C 
ATOM     28  C   UNL     1      34.722 -16.407 -22.283  0.00  0.00    +0.031 C 
ATOM     29  C   UNL     1      34.964 -16.733 -23.617  0.00  0.00    +0.140 C 
ENDBRANCH  18  24
BRANCH  21  30
ATOM     30  N   UNL     1      36.055 -20.719 -20.665  0.00  0.00    -0.344 N 
ATOM     31  H   UNL     1      36.452 -20.051 -21.270  0.00  0.00    +0.144 HD
ATOM     32  H   UNL     1      36.617 -21.432 -20.283  0.00  0.00    +0.144 HD
ENDBRANCH  21  30
ENDBRANCH   2  20
TORSDOF 6
ENDMDL
