MODEL 1
REMARK VINA RESULT:     -10.3      0.000      0.000
REMARK  Name = 5289026
REMARK  4 active torsions:
REMARK  status: ('A' for Active; 'I' for Inactive)
REMARK    1  A    between atoms: C_8  and  C_28
REMARK    2  A    between atoms: C_9  and  O_23
REMARK    3  A    between atoms: C_19  and  O_25
REMARK    4  A    between atoms: C_28  and  O_29
REMARK                            x       y       z     vdW  Elec       q    Type
REMARK                         _______ _______ _______ _____ _____    ______ ____
ROOT
ATOM      1  O   UNL     1      34.352 -15.811 -26.267  0.00  0.00    -0.291 OA
ATOM      2  O   UNL     1      32.616 -11.726 -24.094  0.00  0.00    -0.286 OA
ATOM      3  O   UNL     1      32.541 -14.253 -19.388  0.00  0.00    -0.287 OA
ATOM      4  C   UNL     1      33.899 -16.409 -22.737  0.00  0.00    +0.011 C 
ATOM      5  C   UNL     1      33.891 -15.728 -23.962  0.00  0.00    +0.069 C 
ATOM      6  C   UNL     1      33.040 -13.712 -22.911  0.00  0.00    +0.076 C 
ATOM      7  C   UNL     1      33.022 -14.371 -21.686  0.00  0.00    +0.045 C 
ATOM      8  C   UNL     1      34.357 -17.817 -22.648  0.00  0.00    +0.068 C 
ATOM      9  C   UNL     1      33.472 -14.390 -24.052  0.00  0.00    +0.139 C 
ATOM     10  C   UNL     1      34.670 -17.882 -25.134  0.00  0.00    +0.091 C 
ATOM     11  C   UNL     1      34.721 -18.494 -23.759  0.00  0.00    -0.030 C 
ATOM     12  C   UNL     1      33.444 -15.708 -21.604  0.00  0.00    +0.004 C 
ATOM     13  C   UNL     1      34.312 -16.417 -25.199  0.00  0.00    +0.180 C 
ATOM     14  C   UNL     1      32.599 -12.306 -23.015  0.00  0.00    +0.202 C 
ATOM     15  C   UNL     1      32.558 -13.675 -20.467  0.00  0.00    +0.196 C 
ATOM     16  C   UNL     1      32.136 -11.607 -21.798  0.00  0.00    +0.076 C 
ATOM     17  C   UNL     1      32.116 -12.268 -20.569  0.00  0.00    +0.045 C 
ATOM     18  C   UNL     1      35.242 -19.914 -23.791  0.00  0.00    +0.027 C 
ATOM     19  C   UNL     1      31.715 -10.276 -21.882  0.00  0.00    +0.137 C 
ATOM     20  C   UNL     1      31.674 -11.598 -19.422  0.00  0.00    +0.003 C 
ATOM     21  C   UNL     1      31.276  -9.610 -20.738  0.00  0.00    +0.037 C 
ATOM     22  C   UNL     1      31.256 -10.269 -19.510  0.00  0.00    +0.003 C 
ENDROOT
BRANCH   9  23
ATOM     23  O   UNL     1      33.477 -13.752 -25.260  0.00  0.00    -0.505 OA
ATOM     24  H   UNL     1      32.891 -13.038 -25.415  0.00  0.00    +0.292 HD
ENDBRANCH   9  23
BRANCH  19  25
ATOM     25  O   UNL     1      31.707  -9.569 -23.049  0.00  0.00    -0.505 OA
ATOM     26  H   UNL     1      31.133  -9.820 -23.745  0.00  0.00    +0.292 HD
ENDBRANCH  19  25
BRANCH   8  28
ATOM     27  O   UNL     1      35.423 -18.466 -20.650  0.00  0.00    -0.245 OA
ATOM     28  C   UNL     1      34.430 -18.522 -21.354  0.00  0.00    +0.341 C 
BRANCH  28  29
ATOM     29  O   UNL     1      33.263 -19.165 -21.155  0.00  0.00    -0.441 OA
ATOM     30  C   UNL     1      33.352 -20.373 -20.394  0.00  0.00    +0.256 C 
ENDBRANCH  28  29
ENDBRANCH   8  28
TORSDOF 4
ENDMDL
MODEL 2
REMARK VINA RESULT:      -9.8     10.759     12.610
REMARK  Name = 5289026
REMARK  4 active torsions:
REMARK  status: ('A' for Active; 'I' for Inactive)
REMARK    1  A    between atoms: C_8  and  C_28
REMARK    2  A    between atoms: C_9  and  O_23
REMARK    3  A    between atoms: C_19  and  O_25
REMARK    4  A    between atoms: C_28  and  O_29
REMARK                            x       y       z     vdW  Elec       q    Type
REMARK                         _______ _______ _______ _____ _____    ______ ____
ROOT
ATOM      1  O   UNL     1      37.190 -22.506 -17.075  0.00  0.00    -0.291 OA
ATOM      2  O   UNL     1      32.256 -22.481 -17.352  0.00  0.00    -0.286 OA
ATOM      3  O   UNL     1      31.981 -25.349 -12.854  0.00  0.00    -0.287 OA
ATOM      4  C   UNL     1      35.805 -24.306 -14.271  0.00  0.00    +0.011 C 
ATOM      5  C   UNL     1      35.848 -23.568 -15.462  0.00  0.00    +0.069 C 
ATOM      6  C   UNL     1      33.425 -23.545 -15.614  0.00  0.00    +0.076 C 
ATOM      7  C   UNL     1      33.355 -24.291 -14.442  0.00  0.00    +0.045 C 
ATOM      8  C   UNL     1      37.051 -24.695 -13.567  0.00  0.00    +0.068 C 
ATOM      9  C   UNL     1      34.671 -23.185 -16.128  0.00  0.00    +0.139 C 
ATOM     10  C   UNL     1      38.418 -23.683 -15.407  0.00  0.00    +0.091 C 
ATOM     11  C   UNL     1      38.259 -24.397 -14.091  0.00  0.00    -0.030 C 
ATOM     12  C   UNL     1      34.536 -24.670 -13.781  0.00  0.00    +0.004 C 
ATOM     13  C   UNL     1      37.147 -23.192 -16.057  0.00  0.00    +0.180 C 
ATOM     14  C   UNL     1      32.194 -23.138 -16.321  0.00  0.00    +0.202 C 
ATOM     15  C   UNL     1      32.046 -24.693 -13.886  0.00  0.00    +0.196 C 
ATOM     16  C   UNL     1      30.883 -23.537 -15.767  0.00  0.00    +0.076 C 
ATOM     17  C   UNL     1      30.812 -24.287 -14.592  0.00  0.00    +0.045 C 
ATOM     18  C   UNL     1      39.595 -24.704 -13.450  0.00  0.00    +0.027 C 
ATOM     19  C   UNL     1      29.708 -23.160 -16.427  0.00  0.00    +0.137 C 
ATOM     20  C   UNL     1      29.566 -24.661 -14.076  0.00  0.00    +0.003 C 
ATOM     21  C   UNL     1      28.468 -23.533 -15.910  0.00  0.00    +0.037 C 
ATOM     22  C   UNL     1      28.397 -24.282 -14.737  0.00  0.00    +0.003 C 
ENDROOT
BRANCH   9  23
ATOM     23  O   UNL     1      34.746 -22.465 -17.287  0.00  0.00    -0.505 OA
ATOM     24  H   UNL     1      34.008 -21.967 -17.578  0.00  0.00    +0.292 HD
ENDBRANCH   9  23
BRANCH  19  25
ATOM     25  O   UNL     1      29.703 -22.428 -17.578  0.00  0.00    -0.505 OA
ATOM     26  H   UNL     1      29.055 -22.592 -18.234  0.00  0.00    +0.292 HD
ENDBRANCH  19  25
BRANCH   8  28
ATOM     27  O   UNL     1      36.939 -26.630 -12.228  0.00  0.00    -0.245 OA
ATOM     28  C   UNL     1      37.014 -25.415 -12.280  0.00  0.00    +0.341 C 
BRANCH  28  29
ATOM     29  O   UNL     1      37.082 -24.510 -11.285  0.00  0.00    -0.441 OA
ATOM     30  C   UNL     1      35.860 -24.284 -10.577  0.00  0.00    +0.256 C 
ENDBRANCH  28  29
ENDBRANCH   8  28
TORSDOF 4
ENDMDL
MODEL 3
REMARK VINA RESULT:      -9.6      0.754      1.044
REMARK  Name = 5289026
REMARK  4 active torsions:
REMARK  status: ('A' for Active; 'I' for Inactive)
REMARK    1  A    between atoms: C_8  and  C_28
REMARK    2  A    between atoms: C_9  and  O_23
REMARK    3  A    between atoms: C_19  and  O_25
REMARK    4  A    between atoms: C_28  and  O_29
REMARK                            x       y       z     vdW  Elec       q    Type
REMARK                         _______ _______ _______ _____ _____    ______ ____
ROOT
ATOM      1  O   UNL     1      33.958 -15.146 -26.510  0.00  0.00    -0.291 OA
ATOM      2  O   UNL     1      32.329 -11.307 -23.860  0.00  0.00    -0.286 OA
ATOM      3  O   UNL     1      32.654 -14.235 -19.404  0.00  0.00    -0.287 OA
ATOM      4  C   UNL     1      33.786 -16.060 -23.024  0.00  0.00    +0.011 C 
ATOM      5  C   UNL     1      33.674 -15.275 -24.179  0.00  0.00    +0.069 C 
ATOM      6  C   UNL     1      32.873 -13.378 -22.893  0.00  0.00    +0.076 C 
ATOM      7  C   UNL     1      32.959 -14.142 -21.733  0.00  0.00    +0.045 C 
ATOM      8  C   UNL     1      34.271 -17.460 -23.095  0.00  0.00    +0.068 C 
ATOM      9  C   UNL     1      33.227 -13.944 -24.119  0.00  0.00    +0.139 C 
ATOM     10  C   UNL     1      34.394 -17.301 -25.592  0.00  0.00    +0.091 C 
ATOM     11  C   UNL     1      34.560 -18.029 -24.285  0.00  0.00    -0.030 C 
ATOM     12  C   UNL     1      33.408 -15.471 -21.802  0.00  0.00    +0.004 C 
ATOM     13  C   UNL     1      34.009 -15.844 -25.501  0.00  0.00    +0.180 C 
ATOM     14  C   UNL     1      32.404 -11.978 -22.839  0.00  0.00    +0.202 C 
ATOM     15  C   UNL     1      32.579 -13.565 -20.427  0.00  0.00    +0.196 C 
ATOM     16  C   UNL     1      32.024 -11.399 -21.534  0.00  0.00    +0.076 C 
ATOM     17  C   UNL     1      32.108 -12.165 -20.370  0.00  0.00    +0.045 C 
ATOM     18  C   UNL     1      35.100 -19.429 -24.482  0.00  0.00    +0.027 C 
ATOM     19  C   UNL     1      31.576 -10.075 -21.468  0.00  0.00    +0.137 C 
ATOM     20  C   UNL     1      31.745 -11.607 -19.138  0.00  0.00    +0.003 C 
ATOM     21  C   UNL     1      31.216  -9.522 -20.239  0.00  0.00    +0.037 C 
ATOM     22  C   UNL     1      31.300 -10.286 -19.077  0.00  0.00    +0.003 C 
ENDROOT
BRANCH   9  23
ATOM     23  O   UNL     1      33.129 -13.203 -25.263  0.00  0.00    -0.505 OA
ATOM     24  H   UNL     1      33.897 -13.016 -25.766  0.00  0.00    +0.292 HD
ENDBRANCH   9  23
BRANCH  19  25
ATOM     25  O   UNL     1      31.469  -9.270 -22.563  0.00  0.00    -0.505 OA
ATOM     26  H   UNL     1      32.092  -9.339 -23.259  0.00  0.00    +0.292 HD
ENDBRANCH  19  25
BRANCH   8  28
ATOM     27  O   UNL     1      33.621 -19.089 -21.521  0.00  0.00    -0.245 OA
ATOM     28  C   UNL     1      34.454 -18.273 -21.877  0.00  0.00    +0.341 C 
BRANCH  28  29
ATOM     29  O   UNL     1      35.633 -17.942 -21.318  0.00  0.00    -0.441 OA
ATOM     30  C   UNL     1      36.485 -19.042 -20.986  0.00  0.00    +0.256 C 
ENDBRANCH  28  29
ENDBRANCH   8  28
TORSDOF 4
ENDMDL
MODEL 4
REMARK VINA RESULT:      -9.2      6.745     11.032
REMARK  Name = 5289026
REMARK  4 active torsions:
REMARK  status: ('A' for Active; 'I' for Inactive)
REMARK    1  A    between atoms: C_8  and  C_28
REMARK    2  A    between atoms: C_9  and  O_23
REMARK    3  A    between atoms: C_19  and  O_25
REMARK    4  A    between atoms: C_28  and  O_29
REMARK                            x       y       z     vdW  Elec       q    Type
REMARK                         _______ _______ _______ _____ _____    ______ ____
ROOT
ATOM      1  O   UNL     1      32.116 -24.518 -14.560  0.00  0.00    -0.291 OA
ATOM      2  O   UNL     1      32.342 -22.015 -18.815  0.00  0.00    -0.286 OA
ATOM      3  O   UNL     1      37.590 -21.295 -18.122  0.00  0.00    -0.287 OA
ATOM      4  C   UNL     1      35.513 -23.465 -15.173  0.00  0.00    +0.011 C 
ATOM      5  C   UNL     1      34.134 -23.623 -15.372  0.00  0.00    +0.069 C 
ATOM      6  C   UNL     1      34.227 -22.397 -17.465  0.00  0.00    +0.076 C 
ATOM      7  C   UNL     1      35.594 -22.211 -17.283  0.00  0.00    +0.045 C 
ATOM      8  C   UNL     1      36.184 -24.032 -13.978  0.00  0.00    +0.068 C 
ATOM      9  C   UNL     1      33.494 -23.100 -16.508  0.00  0.00    +0.139 C 
ATOM     10  C   UNL     1      33.973 -24.814 -13.097  0.00  0.00    +0.091 C 
ATOM     11  C   UNL     1      35.469 -24.663 -13.022  0.00  0.00    -0.030 C 
ATOM     12  C   UNL     1      36.227 -22.738 -16.145  0.00  0.00    +0.004 C 
ATOM     13  C   UNL     1      33.316 -24.335 -14.369  0.00  0.00    +0.180 C 
ATOM     14  C   UNL     1      33.545 -21.850 -18.656  0.00  0.00    +0.202 C 
ATOM     15  C   UNL     1      36.387 -21.460 -18.279  0.00  0.00    +0.196 C 
ATOM     16  C   UNL     1      34.336 -21.099 -19.653  0.00  0.00    +0.076 C 
ATOM     17  C   UNL     1      35.707 -20.911 -19.471  0.00  0.00    +0.045 C 
ATOM     18  C   UNL     1      36.042 -25.316 -11.783  0.00  0.00    +0.027 C 
ATOM     19  C   UNL     1      33.703 -20.575 -20.785  0.00  0.00    +0.137 C 
ATOM     20  C   UNL     1      36.446 -20.197 -20.422  0.00  0.00    +0.003 C 
ATOM     21  C   UNL     1      34.442 -19.865 -21.731  0.00  0.00    +0.037 C 
ATOM     22  C   UNL     1      35.811 -19.676 -21.550  0.00  0.00    +0.003 C 
ENDROOT
BRANCH   9  23
ATOM     23  O   UNL     1      32.149 -23.272 -16.673  0.00  0.00    -0.505 OA
ATOM     24  H   UNL     1      31.752 -24.094 -16.462  0.00  0.00    +0.292 HD
ENDBRANCH   9  23
BRANCH  19  25
ATOM     25  O   UNL     1      32.368 -20.720 -21.027  0.00  0.00    -0.505 OA
ATOM     26  H   UNL     1      32.076 -21.262 -21.733  0.00  0.00    +0.292 HD
ENDBRANCH  19  25
BRANCH   8  28
ATOM     27  O   UNL     1      38.139 -23.061 -13.092  0.00  0.00    -0.245 OA
ATOM     28  C   UNL     1      37.644 -23.926 -13.793  0.00  0.00    +0.341 C 
BRANCH  28  29
ATOM     29  O   UNL     1      38.234 -24.908 -14.500  0.00  0.00    -0.441 OA
ATOM     30  C   UNL     1      39.521 -25.316 -14.027  0.00  0.00    +0.256 C 
ENDBRANCH  28  29
ENDBRANCH   8  28
TORSDOF 4
ENDMDL
MODEL 5
REMARK VINA RESULT:      -8.8      6.275     10.000
REMARK  Name = 5289026
REMARK  4 active torsions:
REMARK  status: ('A' for Active; 'I' for Inactive)
REMARK    1  A    between atoms: C_8  and  C_28
REMARK    2  A    between atoms: C_9  and  O_23
REMARK    3  A    between atoms: C_19  and  O_25
REMARK    4  A    between atoms: C_28  and  O_29
REMARK                            x       y       z     vdW  Elec       q    Type
REMARK                         _______ _______ _______ _____ _____    ______ ____
ROOT
ATOM      1  O   UNL     1      36.409 -23.845 -15.023  0.00  0.00    -0.291 OA
ATOM      2  O   UNL     1      37.330 -21.019 -18.970  0.00  0.00    -0.286 OA
ATOM      3  O   UNL     1      32.111 -20.884 -20.101  0.00  0.00    -0.287 OA
ATOM      4  C   UNL     1      33.313 -23.048 -16.698  0.00  0.00    +0.011 C 
ATOM      5  C   UNL     1      34.690 -23.081 -16.435  0.00  0.00    +0.069 C 
ATOM      6  C   UNL     1      35.161 -21.693 -18.370  0.00  0.00    +0.076 C 
ATOM      7  C   UNL     1      33.801 -21.658 -18.662  0.00  0.00    +0.045 C 
ATOM      8  C   UNL     1      32.349 -23.751 -15.817  0.00  0.00    +0.068 C 
ATOM      9  C   UNL     1      35.608 -22.407 -17.257  0.00  0.00    +0.139 C 
ATOM     10  C   UNL     1      34.244 -24.660 -14.453  0.00  0.00    +0.091 C 
ATOM     11  C   UNL     1      32.783 -24.490 -14.773  0.00  0.00    -0.030 C 
ATOM     12  C   UNL     1      32.889 -22.333 -17.834  0.00  0.00    +0.004 C 
ATOM     13  C   UNL     1      35.209 -23.851 -15.285  0.00  0.00    +0.180 C 
ATOM     14  C   UNL     1      36.134 -20.988 -19.229  0.00  0.00    +0.202 C 
ATOM     15  C   UNL     1      33.307 -20.916 -19.841  0.00  0.00    +0.196 C 
ATOM     16  C   UNL     1      35.643 -20.245 -20.408  0.00  0.00    +0.076 C 
ATOM     17  C   UNL     1      34.279 -20.211 -20.704  0.00  0.00    +0.045 C 
ATOM     18  C   UNL     1      31.899 -25.216 -13.783  0.00  0.00    +0.027 C 
ATOM     19  C   UNL     1      36.553 -19.574 -21.232  0.00  0.00    +0.137 C 
ATOM     20  C   UNL     1      33.824 -19.505 -21.824  0.00  0.00    +0.003 C 
ATOM     21  C   UNL     1      36.097 -18.870 -22.347  0.00  0.00    +0.037 C 
ATOM     22  C   UNL     1      34.735 -18.836 -22.642  0.00  0.00    +0.003 C 
ENDROOT
BRANCH   9  23
ATOM     23  O   UNL     1      36.944 -22.458 -16.974  0.00  0.00    -0.505 OA
ATOM     24  H   UNL     1      37.360 -21.734 -16.550  0.00  0.00    +0.292 HD
ENDBRANCH   9  23
BRANCH  19  25
ATOM     25  O   UNL     1      37.898 -19.565 -21.004  0.00  0.00    -0.505 OA
ATOM     26  H   UNL     1      38.471 -20.050 -21.564  0.00  0.00    +0.292 HD
ENDBRANCH  19  25
BRANCH   8  28
ATOM     27  O   UNL     1      30.294 -24.532 -16.663  0.00  0.00    -0.245 OA
ATOM     28  C   UNL     1      30.894 -23.668 -16.048  0.00  0.00    +0.341 C 
BRANCH  28  29
ATOM     29  O   UNL     1      30.437 -22.538 -15.475  0.00  0.00    -0.441 OA
ATOM     30  C   UNL     1      29.017 -22.464 -15.315  0.00  0.00    +0.256 C 
ENDBRANCH  28  29
ENDBRANCH   8  28
TORSDOF 4
ENDMDL
MODEL 6
REMARK VINA RESULT:      -8.8      7.039     12.022
REMARK  Name = 5289026
REMARK  4 active torsions:
REMARK  status: ('A' for Active; 'I' for Inactive)
REMARK    1  A    between atoms: C_8  and  C_28
REMARK    2  A    between atoms: C_9  and  O_23
REMARK    3  A    between atoms: C_19  and  O_25
REMARK    4  A    between atoms: C_28  and  O_29
REMARK                            x       y       z     vdW  Elec       q    Type
REMARK                         _______ _______ _______ _____ _____    ______ ____
ROOT
ATOM      1  O   UNL     1      31.570 -22.328 -17.617  0.00  0.00    -0.291 OA
ATOM      2  O   UNL     1      33.844 -24.278 -13.686  0.00  0.00    -0.286 OA
ATOM      3  O   UNL     1      38.590 -23.103 -15.839  0.00  0.00    -0.287 OA
ATOM      4  C   UNL     1      35.146 -22.039 -18.012  0.00  0.00    +0.011 C 
ATOM      5  C   UNL     1      33.914 -22.375 -17.432  0.00  0.00    +0.069 C 
ATOM      6  C   UNL     1      35.015 -23.336 -15.493  0.00  0.00    +0.076 C 
ATOM      7  C   UNL     1      36.250 -23.029 -16.055  0.00  0.00    +0.045 C 
ATOM      8  C   UNL     1      35.210 -21.353 -19.326  0.00  0.00    +0.068 C 
ATOM      9  C   UNL     1      33.845 -23.013 -16.182  0.00  0.00    +0.139 C 
ATOM     10  C   UNL     1      32.716 -21.485 -19.527  0.00  0.00    +0.091 C 
ATOM     11  C   UNL     1      34.082 -21.090 -20.021  0.00  0.00    -0.030 C 
ATOM     12  C   UNL     1      36.311 -22.390 -17.305  0.00  0.00    +0.004 C 
ATOM     13  C   UNL     1      32.653 -22.078 -18.141  0.00  0.00    +0.180 C 
ATOM     14  C   UNL     1      34.931 -24.008 -14.180  0.00  0.00    +0.202 C 
ATOM     15  C   UNL     1      37.501 -23.372 -15.348  0.00  0.00    +0.196 C 
ATOM     16  C   UNL     1      36.181 -24.352 -13.470  0.00  0.00    +0.076 C 
ATOM     17  C   UNL     1      37.421 -24.045 -14.034  0.00  0.00    +0.045 C 
ATOM     18  C   UNL     1      34.017 -20.363 -21.346  0.00  0.00    +0.027 C 
ATOM     19  C   UNL     1      36.118 -24.989 -12.226  0.00  0.00    +0.137 C 
ATOM     20  C   UNL     1      38.599 -24.376 -13.353  0.00  0.00    +0.003 C 
ATOM     21  C   UNL     1      37.293 -25.316 -11.550  0.00  0.00    +0.037 C 
ATOM     22  C   UNL     1      38.531 -25.010 -12.112  0.00  0.00    +0.003 C 
ENDROOT
BRANCH   9  23
ATOM     23  O   UNL     1      32.629 -23.327 -15.642  0.00  0.00    -0.505 OA
ATOM     24  H   UNL     1      32.156 -22.686 -15.150  0.00  0.00    +0.292 HD
ENDBRANCH   9  23
BRANCH  19  25
ATOM     25  O   UNL     1      34.943 -25.319 -11.617  0.00  0.00    -0.505 OA
ATOM     26  H   UNL     1      34.808 -26.189 -11.299  0.00  0.00    +0.292 HD
ENDBRANCH  19  25
BRANCH   8  28
ATOM     27  O   UNL     1      37.280 -21.748 -20.380  0.00  0.00    -0.245 OA
ATOM     28  C   UNL     1      36.498 -20.938 -19.914  0.00  0.00    +0.341 C 
BRANCH  28  29
ATOM     29  O   UNL     1      36.591 -19.597 -19.829  0.00  0.00    -0.441 OA
ATOM     30  C   UNL     1      37.052 -18.939 -21.012  0.00  0.00    +0.256 C 
ENDBRANCH  28  29
ENDBRANCH   8  28
TORSDOF 4
ENDMDL
MODEL 7
REMARK VINA RESULT:      -8.3      1.722      7.603
REMARK  Name = 5289026
REMARK  4 active torsions:
REMARK  status: ('A' for Active; 'I' for Inactive)
REMARK    1  A    between atoms: C_8  and  C_28
REMARK    2  A    between atoms: C_9  and  O_23
REMARK    3  A    between atoms: C_19  and  O_25
REMARK    4  A    between atoms: C_28  and  O_29
REMARK                            x       y       z     vdW  Elec       q    Type
REMARK                         _______ _______ _______ _____ _____    ______ ____
ROOT
ATOM      1  O   UNL     1      31.556 -12.077 -20.140  0.00  0.00    -0.291 OA
ATOM      2  O   UNL     1      32.979 -16.806 -20.316  0.00  0.00    -0.286 OA
ATOM      3  O   UNL     1      35.131 -15.989 -25.136  0.00  0.00    -0.287 OA
ATOM      4  C   UNL     1      33.293 -12.712 -23.239  0.00  0.00    +0.011 C 
ATOM      5  C   UNL     1      32.721 -12.959 -21.983  0.00  0.00    +0.069 C 
ATOM      6  C   UNL     1      33.413 -15.285 -22.052  0.00  0.00    +0.076 C 
ATOM      7  C   UNL     1      33.974 -15.070 -23.307  0.00  0.00    +0.045 C 
ATOM      8  C   UNL     1      33.236 -11.363 -23.853  0.00  0.00    +0.068 C 
ATOM      9  C   UNL     1      32.783 -14.231 -21.389  0.00  0.00    +0.139 C 
ATOM     10  C   UNL     1      31.857 -10.536 -21.931  0.00  0.00    +0.091 C 
ATOM     11  C   UNL     1      32.577 -10.355 -23.241  0.00  0.00    -0.030 C 
ATOM     12  C   UNL     1      33.909 -13.795 -23.894  0.00  0.00    +0.004 C 
ATOM     13  C   UNL     1      32.018 -11.879 -21.261  0.00  0.00    +0.180 C 
ATOM     14  C   UNL     1      33.472 -16.619 -21.420  0.00  0.00    +0.202 C 
ATOM     15  C   UNL     1      34.636 -16.175 -24.031  0.00  0.00    +0.196 C 
ATOM     16  C   UNL     1      34.135 -17.725 -22.141  0.00  0.00    +0.076 C 
ATOM     17  C   UNL     1      34.697 -17.511 -23.401  0.00  0.00    +0.045 C 
ATOM     18  C   UNL     1      32.483  -8.932 -23.746  0.00  0.00    +0.027 C 
ATOM     19  C   UNL     1      34.197 -18.994 -21.555  0.00  0.00    +0.137 C 
ATOM     20  C   UNL     1      35.321 -18.566 -24.076  0.00  0.00    +0.003 C 
ATOM     21  C   UNL     1      34.821 -20.043 -22.230  0.00  0.00    +0.037 C 
ATOM     22  C   UNL     1      35.382 -19.830 -23.488  0.00  0.00    +0.003 C 
ENDROOT
BRANCH   9  23
ATOM     23  O   UNL     1      32.217 -14.440 -20.164  0.00  0.00    -0.505 OA
ATOM     24  H   UNL     1      32.381 -13.840 -19.463  0.00  0.00    +0.292 HD
ENDBRANCH   9  23
BRANCH  19  25
ATOM     25  O   UNL     1      33.670 -19.275 -20.329  0.00  0.00    -0.505 OA
ATOM     26  H   UNL     1      32.859 -19.739 -20.263  0.00  0.00    +0.292 HD
ENDBRANCH  19  25
BRANCH   8  28
ATOM     27  O   UNL     1      33.415 -11.457 -26.201  0.00  0.00    -0.245 OA
ATOM     28  C   UNL     1      33.890 -11.077 -25.145  0.00  0.00    +0.341 C 
BRANCH  28  29
ATOM     29  O   UNL     1      35.011 -10.370 -24.905  0.00  0.00    -0.441 OA
ATOM     30  C   UNL     1      35.842 -10.134 -26.045  0.00  0.00    +0.256 C 
ENDBRANCH  28  29
ENDBRANCH   8  28
TORSDOF 4
ENDMDL
MODEL 8
REMARK VINA RESULT:      -8.2      1.422      7.943
REMARK  Name = 5289026
REMARK  4 active torsions:
REMARK  status: ('A' for Active; 'I' for Inactive)
REMARK    1  A    between atoms: C_8  and  C_28
REMARK    2  A    between atoms: C_9  and  O_23
REMARK    3  A    between atoms: C_19  and  O_25
REMARK    4  A    between atoms: C_28  and  O_29
REMARK                            x       y       z     vdW  Elec       q    Type
REMARK                         _______ _______ _______ _____ _____    ______ ____
ROOT
ATOM      1  O   UNL     1      31.628 -11.747 -18.831  0.00  0.00    -0.291 OA
ATOM      2  O   UNL     1      33.113 -16.047 -20.760  0.00  0.00    -0.286 OA
ATOM      3  O   UNL     1      33.990 -13.648 -25.451  0.00  0.00    -0.287 OA
ATOM      4  C   UNL     1      32.571 -11.271 -22.282  0.00  0.00    +0.011 C 
ATOM      5  C   UNL     1      32.333 -11.930 -21.067  0.00  0.00    +0.069 C 
ATOM      6  C   UNL     1      33.060 -14.051 -21.998  0.00  0.00    +0.076 C 
ATOM      7  C   UNL     1      33.288 -13.424 -23.219  0.00  0.00    +0.045 C 
ATOM      8  C   UNL     1      32.322  -9.816 -22.424  0.00  0.00    +0.068 C 
ATOM      9  C   UNL     1      32.578 -13.306 -20.921  0.00  0.00    +0.139 C 
ATOM     10  C   UNL     1      31.432  -9.730 -20.083  0.00  0.00    +0.091 C 
ATOM     11  C   UNL     1      31.802  -9.103 -21.401  0.00  0.00    -0.030 C 
ATOM     12  C   UNL     1      33.042 -12.048 -23.357  0.00  0.00    +0.004 C 
ATOM     13  C   UNL     1      31.794 -11.185 -19.910  0.00  0.00    +0.180 C 
ATOM     14  C   UNL     1      33.314 -15.497 -21.835  0.00  0.00    +0.202 C 
ATOM     15  C   UNL     1      33.788 -14.197 -24.376  0.00  0.00    +0.196 C 
ATOM     16  C   UNL     1      33.814 -16.271 -22.990  0.00  0.00    +0.076 C 
ATOM     17  C   UNL     1      34.043 -15.644 -24.216  0.00  0.00    +0.045 C 
ATOM     18  C   UNL     1      31.543  -7.613 -21.411  0.00  0.00    +0.027 C 
ATOM     19  C   UNL     1      34.059 -17.642 -22.850  0.00  0.00    +0.137 C 
ATOM     20  C   UNL     1      34.516 -16.387 -25.303  0.00  0.00    +0.003 C 
ATOM     21  C   UNL     1      34.531 -18.380 -23.936  0.00  0.00    +0.037 C 
ATOM     22  C   UNL     1      34.759 -17.754 -25.160  0.00  0.00    +0.003 C 
ENDROOT
BRANCH   9  23
ATOM     23  O   UNL     1      32.337 -13.919 -19.724  0.00  0.00    -0.505 OA
ATOM     24  H   UNL     1      31.597 -13.665 -19.209  0.00  0.00    +0.292 HD
ENDBRANCH   9  23
BRANCH  19  25
ATOM     25  O   UNL     1      33.858 -18.319 -21.684  0.00  0.00    -0.505 OA
ATOM     26  H   UNL     1      33.844 -17.856 -20.869  0.00  0.00    +0.292 HD
ENDBRANCH  19  25
BRANCH   8  28
ATOM     27  O   UNL     1      31.750  -8.690 -24.413  0.00  0.00    -0.245 OA
ATOM     28  C   UNL     1      32.630  -9.102 -23.678  0.00  0.00    +0.341 C 
BRANCH  28  29
ATOM     29  O   UNL     1      33.969  -9.018 -23.800  0.00  0.00    -0.441 OA
ATOM     30  C   UNL     1      34.516  -7.704 -23.651  0.00  0.00    +0.256 C 
ENDBRANCH  28  29
ENDBRANCH   8  28
TORSDOF 4
ENDMDL
MODEL 9
REMARK VINA RESULT:      -8.1      7.860     11.592
REMARK  Name = 5289026
REMARK  4 active torsions:
REMARK  status: ('A' for Active; 'I' for Inactive)
REMARK    1  A    between atoms: C_8  and  C_28
REMARK    2  A    between atoms: C_9  and  O_23
REMARK    3  A    between atoms: C_19  and  O_25
REMARK    4  A    between atoms: C_28  and  O_29
REMARK                            x       y       z     vdW  Elec       q    Type
REMARK                         _______ _______ _______ _____ _____    ______ ____
ROOT
ATOM      1  O   UNL     1      33.143 -24.920 -13.105  0.00  0.00    -0.291 OA
ATOM      2  O   UNL     1      36.303 -22.728 -16.208  0.00  0.00    -0.286 OA
ATOM      3  O   UNL     1      32.294 -21.719 -19.590  0.00  0.00    -0.287 OA
ATOM      4  C   UNL     1      31.365 -23.722 -16.007  0.00  0.00    +0.011 C 
ATOM      5  C   UNL     1      32.438 -23.989 -15.146  0.00  0.00    +0.069 C 
ATOM      6  C   UNL     1      34.005 -22.915 -16.658  0.00  0.00    +0.076 C 
ATOM      7  C   UNL     1      32.959 -22.652 -17.538  0.00  0.00    +0.045 C 
ATOM      8  C   UNL     1      29.984 -24.137 -15.659  0.00  0.00    +0.068 C 
ATOM      9  C   UNL     1      33.747 -23.587 -15.462  0.00  0.00    +0.139 C 
ATOM     10  C   UNL     1      30.832 -25.250 -13.581  0.00  0.00    +0.091 C 
ATOM     11  C   UNL     1      29.739 -24.837 -14.531  0.00  0.00    -0.030 C 
ATOM     12  C   UNL     1      31.653 -23.057 -17.214  0.00  0.00    +0.004 C 
ATOM     13  C   UNL     1      32.214 -24.724 -13.885  0.00  0.00    +0.180 C 
ATOM     14  C   UNL     1      35.384 -22.497 -16.982  0.00  0.00    +0.202 C 
ATOM     15  C   UNL     1      33.212 -21.952 -18.814  0.00  0.00    +0.196 C 
ATOM     16  C   UNL     1      35.639 -21.796 -18.258  0.00  0.00    +0.076 C 
ATOM     17  C   UNL     1      34.591 -21.533 -19.142  0.00  0.00    +0.045 C 
ATOM     18  C   UNL     1      28.375 -25.281 -14.050  0.00  0.00    +0.027 C 
ATOM     19  C   UNL     1      36.941 -21.395 -18.579  0.00  0.00    +0.137 C 
ATOM     20  C   UNL     1      34.845 -20.869 -20.348  0.00  0.00    +0.003 C 
ATOM     21  C   UNL     1      37.190 -20.732 -19.781  0.00  0.00    +0.037 C 
ATOM     22  C   UNL     1      36.144 -20.470 -20.664  0.00  0.00    +0.003 C 
ENDROOT
BRANCH   9  23
ATOM     23  O   UNL     1      34.773 -23.862 -14.602  0.00  0.00    -0.505 OA
ATOM     24  H   UNL     1      34.767 -23.502 -13.738  0.00  0.00    +0.292 HD
ENDBRANCH   9  23
BRANCH  19  25
ATOM     25  O   UNL     1      38.012 -21.619 -17.764  0.00  0.00    -0.505 OA
ATOM     26  H   UNL     1      38.284 -22.496 -17.578  0.00  0.00    +0.292 HD
ENDBRANCH  19  25
BRANCH   8  28
ATOM     27  O   UNL     1      28.346 -24.625 -17.281  0.00  0.00    -0.245 OA
ATOM     28  C   UNL     1      28.839 -23.804 -16.528  0.00  0.00    +0.341 C 
BRANCH  28  29
ATOM     29  O   UNL     1      28.501 -22.518 -16.309  0.00  0.00    -0.441 OA
ATOM     30  C   UNL     1      27.109 -22.282 -16.080  0.00  0.00    +0.256 C 
ENDBRANCH  28  29
ENDBRANCH   8  28
TORSDOF 4
ENDMDL
