MODEL 1
REMARK VINA RESULT:     -11.4      0.000      0.000
REMARK  Name = 5326930
REMARK  4 active torsions:
REMARK  status: ('A' for Active; 'I' for Inactive)
REMARK    1  A    between atoms: C_7  and  C_21
REMARK    2  A    between atoms: C_21  and  C_22
REMARK    3  A    between atoms: C_22  and  C_23
REMARK    4  A    between atoms: C_28  and  O_29
REMARK                            x       y       z     vdW  Elec       q    Type
REMARK                         _______ _______ _______ _____ _____    ______ ____
ROOT
ATOM      1  O   UNL     1      34.594 -24.854 -12.073  0.00  0.00    -0.209 OA
ATOM      2  N   UNL     1      34.678 -22.927 -15.584  0.00  0.00    -0.275 N 
ATOM      3  N   UNL     1      29.802 -25.079 -14.217  0.00  0.00    -0.315 N 
ATOM      4  N   UNL     1      29.881 -24.003 -16.159  0.00  0.00    -0.316 N 
ATOM      5  N   UNL     1      35.797 -23.667 -13.618  0.00  0.00    -0.302 NA
ATOM      6  N   UNL     1      36.899 -22.444 -15.286  0.00  0.00    -0.320 N 
ATOM      7  C   UNL     1      32.319 -23.385 -16.000  0.00  0.00    +0.007 C 
ATOM      8  C   UNL     1      33.460 -23.493 -15.190  0.00  0.00    +0.060 C 
ATOM      9  C   UNL     1      31.118 -23.971 -15.559  0.00  0.00    +0.056 C 
ATOM     10  C   UNL     1      31.096 -24.639 -14.339  0.00  0.00    +0.060 C 
ATOM     11  C   UNL     1      33.397 -24.175 -13.966  0.00  0.00    +0.109 C 
ATOM     12  C   UNL     1      32.210 -24.767 -13.509  0.00  0.00    +0.029 C 
ATOM     13  C   UNL     1      34.640 -24.259 -13.145  0.00  0.00    +0.208 C 
ATOM     14  C   UNL     1      29.117 -24.675 -15.328  0.00  0.00    +0.182 C 
ATOM     15  C   UNL     1      35.780 -23.049 -14.769  0.00  0.00    +0.248 C 
ATOM     16  H   UNL     1      34.744 -22.444 -16.439  0.00  0.00    +0.156 HD
ATOM     17  H   UNL     1      29.434 -25.595 -13.464  0.00  0.00    +0.148 HD
ATOM     18  H   UNL     1      29.624 -23.608 -17.024  0.00  0.00    +0.148 HD
ATOM     19  H   UNL     1      36.854 -21.985 -16.155  0.00  0.00    +0.146 HD
ATOM     20  H   UNL     1      37.747 -22.469 -14.785  0.00  0.00    +0.146 HD
ENDROOT
BRANCH   7  21
ATOM     21  C   UNL     1      32.378 -22.659 -17.307  0.00  0.00    +0.034 C 
BRANCH  21  22
ATOM     22  C   UNL     1      33.548 -23.094 -18.209  0.00  0.00    +0.031 C 
BRANCH  22  23
ATOM     23  C   UNL     1      34.036 -21.997 -19.122  0.00  0.00    -0.022 C 
ATOM     24  C   UNL     1      33.114 -21.175 -19.750  0.00  0.00    -0.001 C 
ATOM     25  C   UNL     1      35.398 -21.832 -19.318  0.00  0.00    -0.001 C 
ATOM     26  C   UNL     1      33.565 -20.160 -20.595  0.00  0.00    +0.037 C 
ATOM     27  C   UNL     1      35.849 -20.817 -20.163  0.00  0.00    +0.037 C 
ATOM     28  C   UNL     1      34.933 -19.982 -20.801  0.00  0.00    +0.139 C 
BRANCH  28  29
ATOM     29  O   UNL     1      35.373 -18.993 -21.626  0.00  0.00    -0.471 OA
ATOM     30  C   UNL     1      35.287 -17.654 -21.141  0.00  0.00    +0.252 C 
ENDBRANCH  28  29
ENDBRANCH  22  23
ENDBRANCH  21  22
ENDBRANCH   7  21
TORSDOF 4
ENDMDL
MODEL 2
REMARK VINA RESULT:     -11.4      1.162      1.592
REMARK  Name = 5326930
REMARK  4 active torsions:
REMARK  status: ('A' for Active; 'I' for Inactive)
REMARK    1  A    between atoms: C_7  and  C_21
REMARK    2  A    between atoms: C_21  and  C_22
REMARK    3  A    between atoms: C_22  and  C_23
REMARK    4  A    between atoms: C_28  and  O_29
REMARK                            x       y       z     vdW  Elec       q    Type
REMARK                         _______ _______ _______ _____ _____    ______ ____
ROOT
ATOM      1  O   UNL     1      34.555 -24.305 -12.031  0.00  0.00    -0.209 OA
ATOM      2  N   UNL     1      35.583 -23.785 -15.868  0.00  0.00    -0.275 N 
ATOM      3  N   UNL     1      30.224 -23.167 -14.782  0.00  0.00    -0.315 N 
ATOM      4  N   UNL     1      30.827 -22.884 -16.901  0.00  0.00    -0.316 N 
ATOM      5  N   UNL     1      36.201 -24.274 -13.622  0.00  0.00    -0.302 NA
ATOM      6  N   UNL     1      37.777 -24.206 -15.355  0.00  0.00    -0.320 N 
ATOM      7  C   UNL     1      33.279 -23.322 -16.522  0.00  0.00    +0.007 C 
ATOM      8  C   UNL     1      34.230 -23.639 -15.539  0.00  0.00    +0.060 C 
ATOM      9  C   UNL     1      31.932 -23.185 -16.140  0.00  0.00    +0.056 C 
ATOM     10  C   UNL     1      31.581 -23.368 -14.806  0.00  0.00    +0.060 C 
ATOM     11  C   UNL     1      33.837 -23.815 -14.204  0.00  0.00    +0.109 C 
ATOM     12  C   UNL     1      32.499 -23.684 -13.804  0.00  0.00    +0.029 C 
ATOM     13  C   UNL     1      34.890 -24.150 -13.202  0.00  0.00    +0.208 C 
ATOM     14  C   UNL     1      29.821 -22.881 -16.056  0.00  0.00    +0.182 C 
ATOM     15  C   UNL     1      36.493 -24.096 -14.884  0.00  0.00    +0.248 C 
ATOM     16  H   UNL     1      35.880 -23.666 -16.798  0.00  0.00    +0.156 HD
ATOM     17  H   UNL     1      29.645 -23.220 -13.988  0.00  0.00    +0.148 HD
ATOM     18  H   UNL     1      30.796 -22.707 -17.870  0.00  0.00    +0.148 HD
ATOM     19  H   UNL     1      37.965 -24.066 -16.311  0.00  0.00    +0.146 HD
ATOM     20  H   UNL     1      38.511 -24.426 -14.736  0.00  0.00    +0.146 HD
ENDROOT
BRANCH   7  21
ATOM     21  C   UNL     1      33.691 -23.133 -17.947  0.00  0.00    +0.034 C 
BRANCH  21  22
ATOM     22  C   UNL     1      32.862 -22.078 -18.702  0.00  0.00    +0.031 C 
BRANCH  22  23
ATOM     23  C   UNL     1      33.698 -21.179 -19.580  0.00  0.00    -0.022 C 
ATOM     24  C   UNL     1      35.076 -21.318 -19.578  0.00  0.00    -0.001 C 
ATOM     25  C   UNL     1      33.071 -20.230 -20.372  0.00  0.00    -0.001 C 
ATOM     26  C   UNL     1      35.849 -20.488 -20.390  0.00  0.00    +0.037 C 
ATOM     27  C   UNL     1      33.844 -19.399 -21.184  0.00  0.00    +0.037 C 
ATOM     28  C   UNL     1      35.233 -19.528 -21.193  0.00  0.00    +0.139 C 
BRANCH  28  29
ATOM     29  O   UNL     1      35.986 -18.717 -21.984  0.00  0.00    -0.471 OA
ATOM     30  C   UNL     1      35.491 -18.444 -23.294  0.00  0.00    +0.252 C 
ENDBRANCH  28  29
ENDBRANCH  22  23
ENDBRANCH  21  22
ENDBRANCH   7  21
TORSDOF 4
ENDMDL
MODEL 3
REMARK VINA RESULT:     -11.1      1.476      3.873
REMARK  Name = 5326930
REMARK  4 active torsions:
REMARK  status: ('A' for Active; 'I' for Inactive)
REMARK    1  A    between atoms: C_7  and  C_21
REMARK    2  A    between atoms: C_21  and  C_22
REMARK    3  A    between atoms: C_22  and  C_23
REMARK    4  A    between atoms: C_28  and  O_29
REMARK                            x       y       z     vdW  Elec       q    Type
REMARK                         _______ _______ _______ _____ _____    ______ ____
ROOT
ATOM      1  O   UNL     1      30.798 -23.825 -12.764  0.00  0.00    -0.209 OA
ATOM      2  N   UNL     1      31.297 -23.051 -16.663  0.00  0.00    -0.275 N 
ATOM      3  N   UNL     1      35.932 -24.037 -13.866  0.00  0.00    -0.315 N 
ATOM      4  N   UNL     1      36.175 -23.605 -16.031  0.00  0.00    -0.316 N 
ATOM      5  N   UNL     1      29.855 -23.320 -14.789  0.00  0.00    -0.302 NA
ATOM      6  N   UNL     1      29.033 -22.803 -16.921  0.00  0.00    -0.320 N 
ATOM      7  C   UNL     1      33.718 -23.294 -16.499  0.00  0.00    +0.007 C 
ATOM      8  C   UNL     1      32.446 -23.308 -15.906  0.00  0.00    +0.060 C 
ATOM      9  C   UNL     1      34.842 -23.560 -15.695  0.00  0.00    +0.056 C 
ATOM     10  C   UNL     1      34.662 -23.827 -14.342  0.00  0.00    +0.060 C 
ATOM     11  C   UNL     1      32.306 -23.582 -14.537  0.00  0.00    +0.109 C 
ATOM     12  C   UNL     1      33.413 -23.849 -13.719  0.00  0.00    +0.029 C 
ATOM     13  C   UNL     1      30.930 -23.585 -13.961  0.00  0.00    +0.208 C 
ATOM     14  C   UNL     1      36.799 -23.893 -14.912  0.00  0.00    +0.182 C 
ATOM     15  C   UNL     1      30.063 -23.072 -16.055  0.00  0.00    +0.248 C 
ATOM     16  H   UNL     1      31.373 -22.856 -17.624  0.00  0.00    +0.156 HD
ATOM     17  H   UNL     1      36.173 -24.251 -12.936  0.00  0.00    +0.148 HD
ATOM     18  H   UNL     1      36.575 -23.454 -16.919  0.00  0.00    +0.148 HD
ATOM     19  H   UNL     1      29.222 -22.620 -17.870  0.00  0.00    +0.146 HD
ATOM     20  H   UNL     1      28.104 -22.792 -16.593  0.00  0.00    +0.146 HD
ENDROOT
BRANCH   7  21
ATOM     21  C   UNL     1      33.876 -23.002 -17.958  0.00  0.00    +0.034 C 
BRANCH  21  22
ATOM     22  C   UNL     1      35.125 -22.168 -18.296  0.00  0.00    +0.031 C 
BRANCH  22  23
ATOM     23  C   UNL     1      34.909 -21.208 -19.440  0.00  0.00    -0.022 C 
ATOM     24  C   UNL     1      33.617 -20.923 -19.853  0.00  0.00    -0.001 C 
ATOM     25  C   UNL     1      36.006 -20.629 -20.057  0.00  0.00    -0.001 C 
ATOM     26  C   UNL     1      33.417 -20.036 -20.910  0.00  0.00    +0.037 C 
ATOM     27  C   UNL     1      35.806 -19.741 -21.115  0.00  0.00    +0.037 C 
ATOM     28  C   UNL     1      34.511 -19.445 -21.541  0.00  0.00    +0.139 C 
BRANCH  28  29
ATOM     29  O   UNL     1      34.316 -18.579 -22.573  0.00  0.00    -0.471 OA
ATOM     30  C   UNL     1      35.379 -18.441 -23.515  0.00  0.00    +0.252 C 
ENDBRANCH  28  29
ENDBRANCH  22  23
ENDBRANCH  21  22
ENDBRANCH   7  21
TORSDOF 4
ENDMDL
MODEL 4
REMARK VINA RESULT:     -10.9      1.749      2.298
REMARK  Name = 5326930
REMARK  4 active torsions:
REMARK  status: ('A' for Active; 'I' for Inactive)
REMARK    1  A    between atoms: C_7  and  C_21
REMARK    2  A    between atoms: C_21  and  C_22
REMARK    3  A    between atoms: C_22  and  C_23
REMARK    4  A    between atoms: C_28  and  O_29
REMARK                            x       y       z     vdW  Elec       q    Type
REMARK                         _______ _______ _______ _____ _____    ______ ____
ROOT
ATOM      1  O   UNL     1      36.584 -25.917 -11.952  0.00  0.00    -0.209 OA
ATOM      2  N   UNL     1      37.298 -24.097 -15.449  0.00  0.00    -0.275 N 
ATOM      3  N   UNL     1      32.125 -23.691 -13.619  0.00  0.00    -0.315 N 
ATOM      4  N   UNL     1      32.553 -22.691 -15.555  0.00  0.00    -0.316 N 
ATOM      5  N   UNL     1      38.077 -25.383 -13.605  0.00  0.00    -0.302 NA
ATOM      6  N   UNL     1      39.490 -24.763 -15.368  0.00  0.00    -0.320 N 
ATOM      7  C   UNL     1      34.988 -23.336 -15.633  0.00  0.00    +0.007 C 
ATOM      8  C   UNL     1      35.997 -24.023 -14.940  0.00  0.00    +0.060 C 
ATOM      9  C   UNL     1      33.696 -23.290 -15.079  0.00  0.00    +0.056 C 
ATOM     10  C   UNL     1      33.454 -23.925 -13.865  0.00  0.00    +0.060 C 
ATOM     11  C   UNL     1      35.713 -24.651 -13.717  0.00  0.00    +0.109 C 
ATOM     12  C   UNL     1      34.431 -24.617 -13.148  0.00  0.00    +0.029 C 
ATOM     13  C   UNL     1      36.823 -25.365 -13.023  0.00  0.00    +0.208 C 
ATOM     14  C   UNL     1      31.632 -22.951 -14.656  0.00  0.00    +0.182 C 
ATOM     15  C   UNL     1      38.267 -24.777 -14.747  0.00  0.00    +0.248 C 
ATOM     16  H   UNL     1      37.518 -23.664 -16.305  0.00  0.00    +0.156 HD
ATOM     17  H   UNL     1      31.618 -24.002 -12.834  0.00  0.00    +0.148 HD
ATOM     18  H   UNL     1      32.449 -22.177 -16.390  0.00  0.00    +0.148 HD
ATOM     19  H   UNL     1      39.600 -24.296 -16.228  0.00  0.00    +0.146 HD
ATOM     20  H   UNL     1      40.258 -25.220 -14.953  0.00  0.00    +0.146 HD
ENDROOT
BRANCH   7  21
ATOM     21  C   UNL     1      35.283 -22.665 -16.938  0.00  0.00    +0.034 C 
BRANCH  21  22
ATOM     22  C   UNL     1      34.194 -22.871 -18.006  0.00  0.00    +0.031 C 
BRANCH  22  23
ATOM     23  C   UNL     1      34.186 -21.797 -19.066  0.00  0.00    -0.022 C 
ATOM     24  C   UNL     1      32.981 -21.241 -19.462  0.00  0.00    -0.001 C 
ATOM     25  C   UNL     1      35.386 -21.387 -19.625  0.00  0.00    -0.001 C 
ATOM     26  C   UNL     1      32.973 -20.248 -20.441  0.00  0.00    +0.037 C 
ATOM     27  C   UNL     1      35.379 -20.394 -20.605  0.00  0.00    +0.037 C 
ATOM     28  C   UNL     1      34.173 -19.824 -21.013  0.00  0.00    +0.139 C 
BRANCH  28  29
ATOM     29  O   UNL     1      34.167 -18.857 -21.969  0.00  0.00    -0.471 OA
ATOM     30  C   UNL     1      35.104 -18.990 -23.036  0.00  0.00    +0.252 C 
ENDBRANCH  28  29
ENDBRANCH  22  23
ENDBRANCH  21  22
ENDBRANCH   7  21
TORSDOF 4
ENDMDL
MODEL 5
REMARK VINA RESULT:     -10.7      3.119      6.151
REMARK  Name = 5326930
REMARK  4 active torsions:
REMARK  status: ('A' for Active; 'I' for Inactive)
REMARK    1  A    between atoms: C_7  and  C_21
REMARK    2  A    between atoms: C_21  and  C_22
REMARK    3  A    between atoms: C_22  and  C_23
REMARK    4  A    between atoms: C_28  and  O_29
REMARK                            x       y       z     vdW  Elec       q    Type
REMARK                         _______ _______ _______ _____ _____    ______ ____
ROOT
ATOM      1  O   UNL     1      37.301 -21.800 -17.149  0.00  0.00    -0.209 OA
ATOM      2  N   UNL     1      33.687 -23.448 -16.626  0.00  0.00    -0.275 N 
ATOM      3  N   UNL     1      37.066 -23.812 -12.300  0.00  0.00    -0.315 N 
ATOM      4  N   UNL     1      35.054 -24.716 -12.041  0.00  0.00    -0.316 N 
ATOM      5  N   UNL     1      35.234 -22.283 -18.009  0.00  0.00    -0.302 NA
ATOM      6  N   UNL     1      33.085 -22.845 -18.755  0.00  0.00    -0.320 N 
ATOM      7  C   UNL     1      34.224 -24.135 -14.349  0.00  0.00    +0.007 C 
ATOM      8  C   UNL     1      34.584 -23.514 -15.555  0.00  0.00    +0.060 C 
ATOM      9  C   UNL     1      35.162 -24.175 -13.301  0.00  0.00    +0.056 C 
ATOM     10  C   UNL     1      36.416 -23.601 -13.489  0.00  0.00    +0.060 C 
ATOM     11  C   UNL     1      35.859 -22.947 -15.706  0.00  0.00    +0.109 C 
ATOM     12  C   UNL     1      36.808 -22.976 -14.673  0.00  0.00    +0.029 C 
ATOM     13  C   UNL     1      36.188 -22.299 -17.008  0.00  0.00    +0.208 C 
ATOM     14  C   UNL     1      36.212 -24.481 -11.469  0.00  0.00    +0.182 C 
ATOM     15  C   UNL     1      34.068 -22.833 -17.797  0.00  0.00    +0.248 C 
ATOM     16  H   UNL     1      32.788 -23.840 -16.542  0.00  0.00    +0.156 HD
ATOM     17  H   UNL     1      37.985 -23.531 -12.085  0.00  0.00    +0.148 HD
ATOM     18  H   UNL     1      34.276 -25.179 -11.653  0.00  0.00    +0.148 HD
ATOM     19  H   UNL     1      32.216 -23.267 -18.564  0.00  0.00    +0.146 HD
ATOM     20  H   UNL     1      33.249 -22.431 -19.634  0.00  0.00    +0.146 HD
ENDROOT
BRANCH   7  21
ATOM     21  C   UNL     1      32.867 -24.742 -14.181  0.00  0.00    +0.034 C 
BRANCH  21  22
ATOM     22  C   UNL     1      31.774 -23.730 -13.792  0.00  0.00    +0.031 C 
BRANCH  22  23
ATOM     23  C   UNL     1      30.636 -23.672 -14.781  0.00  0.00    -0.022 C 
ATOM     24  C   UNL     1      29.813 -24.776 -14.936  0.00  0.00    -0.001 C 
ATOM     25  C   UNL     1      30.434 -22.516 -15.518  0.00  0.00    -0.001 C 
ATOM     26  C   UNL     1      28.761 -24.724 -15.850  0.00  0.00    +0.037 C 
ATOM     27  C   UNL     1      29.382 -22.463 -16.433  0.00  0.00    +0.037 C 
ATOM     28  C   UNL     1      28.546 -23.567 -16.598  0.00  0.00    +0.139 C 
BRANCH  28  29
ATOM     29  O   UNL     1      27.520 -23.515 -17.491  0.00  0.00    -0.471 OA
ATOM     30  C   UNL     1      26.902 -22.246 -17.700  0.00  0.00    +0.252 C 
ENDBRANCH  28  29
ENDBRANCH  22  23
ENDBRANCH  21  22
ENDBRANCH   7  21
TORSDOF 4
ENDMDL
MODEL 6
REMARK VINA RESULT:     -10.5      7.792     11.542
REMARK  Name = 5326930
REMARK  4 active torsions:
REMARK  status: ('A' for Active; 'I' for Inactive)
REMARK    1  A    between atoms: C_7  and  C_21
REMARK    2  A    between atoms: C_21  and  C_22
REMARK    3  A    between atoms: C_22  and  C_23
REMARK    4  A    between atoms: C_28  and  O_29
REMARK                            x       y       z     vdW  Elec       q    Type
REMARK                         _______ _______ _______ _____ _____    ______ ____
ROOT
ATOM      1  O   UNL     1      34.949 -19.704 -24.968  0.00  0.00    -0.209 OA
ATOM      2  N   UNL     1      34.732 -17.228 -21.827  0.00  0.00    -0.275 N 
ATOM      3  N   UNL     1      33.234 -15.027 -26.642  0.00  0.00    -0.315 N 
ATOM      4  N   UNL     1      33.123 -13.680 -24.879  0.00  0.00    -0.316 N 
ATOM      5  N   UNL     1      35.234 -19.376 -22.720  0.00  0.00    -0.302 NA
ATOM      6  N   UNL     1      35.477 -18.894 -20.439  0.00  0.00    -0.320 N 
ATOM      7  C   UNL     1      33.932 -15.387 -23.211  0.00  0.00    +0.007 C 
ATOM      8  C   UNL     1      34.361 -16.716 -23.075  0.00  0.00    +0.060 C 
ATOM      9  C   UNL     1      33.570 -14.920 -24.488  0.00  0.00    +0.056 C 
ATOM     10  C   UNL     1      33.649 -15.785 -25.575  0.00  0.00    +0.060 C 
ATOM     11  C   UNL     1      34.427 -17.557 -24.196  0.00  0.00    +0.109 C 
ATOM     12  C   UNL     1      34.071 -17.111 -25.477  0.00  0.00    +0.029 C 
ATOM     13  C   UNL     1      34.889 -18.961 -23.993  0.00  0.00    +0.208 C 
ATOM     14  C   UNL     1      32.932 -13.779 -26.175  0.00  0.00    +0.182 C 
ATOM     15  C   UNL     1      35.149 -18.535 -21.722  0.00  0.00    +0.248 C 
ATOM     16  H   UNL     1      34.694 -16.655 -21.027  0.00  0.00    +0.156 HD
ATOM     17  H   UNL     1      33.167 -15.330 -27.576  0.00  0.00    +0.148 HD
ATOM     18  H   UNL     1      32.978 -12.888 -24.311  0.00  0.00    +0.148 HD
ATOM     19  H   UNL     1      35.402 -18.237 -19.710  0.00  0.00    +0.146 HD
ATOM     20  H   UNL     1      35.789 -19.809 -20.249  0.00  0.00    +0.146 HD
ENDROOT
BRANCH   7  21
ATOM     21  C   UNL     1      33.860 -14.484 -22.020  0.00  0.00    +0.034 C 
BRANCH  21  22
ATOM     22  C   UNL     1      32.424 -14.149 -21.577  0.00  0.00    +0.031 C 
BRANCH  22  23
ATOM     23  C   UNL     1      32.192 -12.671 -21.376  0.00  0.00    -0.022 C 
ATOM     24  C   UNL     1      31.904 -12.195 -20.108  0.00  0.00    -0.001 C 
ATOM     25  C   UNL     1      32.268 -11.818 -22.465  0.00  0.00    -0.001 C 
ATOM     26  C   UNL     1      31.689 -10.830 -19.921  0.00  0.00    +0.037 C 
ATOM     27  C   UNL     1      32.053 -10.451 -22.279  0.00  0.00    +0.037 C 
ATOM     28  C   UNL     1      31.763  -9.958 -21.007  0.00  0.00    +0.139 C 
BRANCH  28  29
ATOM     29  O   UNL     1      31.553  -8.626 -20.826  0.00  0.00    -0.471 OA
ATOM     30  C   UNL     1      32.679  -7.833 -20.456  0.00  0.00    +0.252 C 
ENDBRANCH  28  29
ENDBRANCH  22  23
ENDBRANCH  21  22
ENDBRANCH   7  21
TORSDOF 4
ENDMDL
MODEL 7
REMARK VINA RESULT:     -10.4      6.277     10.843
REMARK  Name = 5326930
REMARK  4 active torsions:
REMARK  status: ('A' for Active; 'I' for Inactive)
REMARK    1  A    between atoms: C_7  and  C_21
REMARK    2  A    between atoms: C_21  and  C_22
REMARK    3  A    between atoms: C_22  and  C_23
REMARK    4  A    between atoms: C_28  and  O_29
REMARK                            x       y       z     vdW  Elec       q    Type
REMARK                         _______ _______ _______ _____ _____    ______ ____
ROOT
ATOM      1  O   UNL     1      32.809 -14.056 -26.545  0.00  0.00    -0.209 OA
ATOM      2  N   UNL     1      34.198 -16.669 -23.845  0.00  0.00    -0.275 N 
ATOM      3  N   UNL     1      31.831 -12.171 -21.738  0.00  0.00    -0.315 N 
ATOM      4  N   UNL     1      32.610 -13.641 -20.266  0.00  0.00    -0.316 N 
ATOM      5  N   UNL     1      33.860 -16.045 -26.116  0.00  0.00    -0.302 NA
ATOM      6  N   UNL     1      34.920 -18.050 -25.526  0.00  0.00    -0.320 N 
ATOM      7  C   UNL     1      33.469 -15.276 -21.980  0.00  0.00    +0.007 C 
ATOM      8  C   UNL     1      33.587 -15.508 -23.359  0.00  0.00    +0.060 C 
ATOM      9  C   UNL     1      32.846 -14.094 -21.543  0.00  0.00    +0.056 C 
ATOM     10  C   UNL     1      32.366 -13.189 -22.486  0.00  0.00    +0.060 C 
ATOM     11  C   UNL     1      33.090 -14.572 -24.279  0.00  0.00    +0.109 C 
ATOM     12  C   UNL     1      32.466 -13.386 -23.864  0.00  0.00    +0.029 C 
ATOM     13  C   UNL     1      33.242 -14.870 -25.733  0.00  0.00    +0.208 C 
ATOM     14  C   UNL     1      32.001 -12.487 -20.419  0.00  0.00    +0.182 C 
ATOM     15  C   UNL     1      34.299 -16.870 -25.202  0.00  0.00    +0.248 C 
ATOM     16  H   UNL     1      34.554 -17.339 -23.217  0.00  0.00    +0.156 HD
ATOM     17  H   UNL     1      31.401 -11.359 -22.089  0.00  0.00    +0.148 HD
ATOM     18  H   UNL     1      32.847 -14.086 -19.419  0.00  0.00    +0.148 HD
ATOM     19  H   UNL     1      35.239 -18.650 -24.814  0.00  0.00    +0.146 HD
ATOM     20  H   UNL     1      35.046 -18.296 -26.472  0.00  0.00    +0.146 HD
ENDROOT
BRANCH   7  21
ATOM     21  C   UNL     1      33.996 -16.270 -20.994  0.00  0.00    +0.034 C 
BRANCH  21  22
ATOM     22  C   UNL     1      35.096 -17.188 -21.560  0.00  0.00    +0.031 C 
BRANCH  22  23
ATOM     23  C   UNL     1      35.043 -18.591 -21.008  0.00  0.00    -0.022 C 
ATOM     24  C   UNL     1      36.224 -19.240 -20.687  0.00  0.00    -0.001 C 
ATOM     25  C   UNL     1      33.813 -19.207 -20.835  0.00  0.00    -0.001 C 
ATOM     26  C   UNL     1      36.176 -20.538 -20.177  0.00  0.00    +0.037 C 
ATOM     27  C   UNL     1      33.765 -20.505 -20.326  0.00  0.00    +0.037 C 
ATOM     28  C   UNL     1      34.946 -21.170 -19.997  0.00  0.00    +0.139 C 
BRANCH  28  29
ATOM     29  O   UNL     1      34.898 -22.436 -19.501  0.00  0.00    -0.471 OA
ATOM     30  C   UNL     1      33.827 -22.746 -18.611  0.00  0.00    +0.252 C 
ENDBRANCH  28  29
ENDBRANCH  22  23
ENDBRANCH  21  22
ENDBRANCH   7  21
TORSDOF 4
ENDMDL
MODEL 8
REMARK VINA RESULT:     -10.3      3.278      5.640
REMARK  Name = 5326930
REMARK  4 active torsions:
REMARK  status: ('A' for Active; 'I' for Inactive)
REMARK    1  A    between atoms: C_7  and  C_21
REMARK    2  A    between atoms: C_21  and  C_22
REMARK    3  A    between atoms: C_22  and  C_23
REMARK    4  A    between atoms: C_28  and  O_29
REMARK                            x       y       z     vdW  Elec       q    Type
REMARK                         _______ _______ _______ _____ _____    ______ ____
ROOT
ATOM      1  O   UNL     1      37.935 -22.799 -13.614  0.00  0.00    -0.209 OA
ATOM      2  N   UNL     1      34.499 -24.488 -12.436  0.00  0.00    -0.275 N 
ATOM      3  N   UNL     1      34.531 -22.626 -17.614  0.00  0.00    -0.315 N 
ATOM      4  N   UNL     1      32.639 -23.570 -16.930  0.00  0.00    -0.316 N 
ATOM      5  N   UNL     1      36.736 -23.833 -11.959  0.00  0.00    -0.302 NA
ATOM      6  N   UNL     1      35.391 -24.900 -10.365  0.00  0.00    -0.320 N 
ATOM      7  C   UNL     1      33.453 -24.099 -14.605  0.00  0.00    +0.007 C 
ATOM      8  C   UNL     1      34.558 -23.998 -13.745  0.00  0.00    +0.060 C 
ATOM      9  C   UNL     1      33.563 -23.592 -15.912  0.00  0.00    +0.056 C 
ATOM     10  C   UNL     1      34.759 -23.005 -16.315  0.00  0.00    +0.060 C 
ATOM     11  C   UNL     1      35.748 -23.400 -14.189  0.00  0.00    +0.109 C 
ATOM     12  C   UNL     1      35.878 -22.888 -15.489  0.00  0.00    +0.029 C 
ATOM     13  C   UNL     1      36.890 -23.321 -13.234  0.00  0.00    +0.208 C 
ATOM     14  C   UNL     1      33.251 -22.984 -17.934  0.00  0.00    +0.182 C 
ATOM     15  C   UNL     1      35.598 -24.376 -11.616  0.00  0.00    +0.248 C 
ATOM     16  H   UNL     1      33.674 -24.911 -12.104  0.00  0.00    +0.156 HD
ATOM     17  H   UNL     1      35.174 -22.176 -18.207  0.00  0.00    +0.148 HD
ATOM     18  H   UNL     1      31.718 -23.918 -16.911  0.00  0.00    +0.148 HD
ATOM     19  H   UNL     1      34.522 -25.303 -10.137  0.00  0.00    +0.146 HD
ATOM     20  H   UNL     1      36.112 -24.874  -9.695  0.00  0.00    +0.146 HD
ENDROOT
BRANCH   7  21
ATOM     21  C   UNL     1      32.182 -24.736 -14.138  0.00  0.00    +0.034 C 
BRANCH  21  22
ATOM     22  C   UNL     1      31.079 -23.727 -13.767  0.00  0.00    +0.031 C 
BRANCH  22  23
ATOM     23  C   UNL     1      30.031 -23.569 -14.841  0.00  0.00    -0.022 C 
ATOM     24  C   UNL     1      29.496 -22.315 -15.089  0.00  0.00    -0.001 C 
ATOM     25  C   UNL     1      29.620 -24.681 -15.559  0.00  0.00    -0.001 C 
ATOM     26  C   UNL     1      28.526 -22.168 -16.081  0.00  0.00    +0.037 C 
ATOM     27  C   UNL     1      28.650 -24.534 -16.551  0.00  0.00    +0.037 C 
ATOM     28  C   UNL     1      28.104 -23.278 -16.812  0.00  0.00    +0.139 C 
BRANCH  28  29
ATOM     29  O   UNL     1      27.157 -23.136 -17.779  0.00  0.00    -0.471 OA
ATOM     30  C   UNL     1      26.529 -21.860 -17.892  0.00  0.00    +0.252 C 
ENDBRANCH  28  29
ENDBRANCH  22  23
ENDBRANCH  21  22
ENDBRANCH   7  21
TORSDOF 4
ENDMDL
MODEL 9
REMARK VINA RESULT:     -10.1      3.175      5.956
REMARK  Name = 5326930
REMARK  4 active torsions:
REMARK  status: ('A' for Active; 'I' for Inactive)
REMARK    1  A    between atoms: C_7  and  C_21
REMARK    2  A    between atoms: C_21  and  C_22
REMARK    3  A    between atoms: C_22  and  C_23
REMARK    4  A    between atoms: C_28  and  O_29
REMARK                            x       y       z     vdW  Elec       q    Type
REMARK                         _______ _______ _______ _____ _____    ______ ____
ROOT
ATOM      1  O   UNL     1      38.290 -22.535 -15.803  0.00  0.00    -0.209 OA
ATOM      2  N   UNL     1      34.773 -24.193 -14.841  0.00  0.00    -0.275 N 
ATOM      3  N   UNL     1      34.790 -21.309 -19.527  0.00  0.00    -0.315 N 
ATOM      4  N   UNL     1      32.854 -22.243 -18.966  0.00  0.00    -0.316 N 
ATOM      5  N   UNL     1      37.067 -23.804 -14.342  0.00  0.00    -0.302 NA
ATOM      6  N   UNL     1      35.693 -25.084 -12.940  0.00  0.00    -0.320 N 
ATOM      7  C   UNL     1      33.695 -23.295 -16.836  0.00  0.00    +0.007 C 
ATOM      8  C   UNL     1      34.830 -23.449 -16.025  0.00  0.00    +0.060 C 
ATOM      9  C   UNL     1      33.804 -22.537 -18.016  0.00  0.00    +0.056 C 
ATOM     10  C   UNL     1      35.029 -21.963 -18.344  0.00  0.00    +0.060 C 
ATOM     11  C   UNL     1      36.047 -22.854 -16.390  0.00  0.00    +0.109 C 
ATOM     12  C   UNL     1      36.177 -22.095 -17.562  0.00  0.00    +0.029 C 
ATOM     13  C   UNL     1      37.221 -23.051 -15.491  0.00  0.00    +0.208 C 
ATOM     14  C   UNL     1      33.479 -21.506 -19.856  0.00  0.00    +0.182 C 
ATOM     15  C   UNL     1      35.901 -24.328 -14.065  0.00  0.00    +0.248 C 
ATOM     16  H   UNL     1      33.929 -24.619 -14.566  0.00  0.00    +0.156 HD
ATOM     17  H   UNL     1      35.448 -20.791 -20.044  0.00  0.00    +0.148 HD
ATOM     18  H   UNL     1      31.910 -22.524 -18.977  0.00  0.00    +0.148 HD
ATOM     19  H   UNL     1      34.803 -25.465 -12.760  0.00  0.00    +0.146 HD
ATOM     20  H   UNL     1      36.434 -25.245 -12.311  0.00  0.00    +0.146 HD
ENDROOT
BRANCH   7  21
ATOM     21  C   UNL     1      32.394 -23.926 -16.453  0.00  0.00    +0.034 C 
BRANCH  21  22
ATOM     22  C   UNL     1      31.651 -23.188 -15.325  0.00  0.00    +0.031 C 
BRANCH  22  23
ATOM     23  C   UNL     1      30.204 -22.907 -15.648  0.00  0.00    -0.022 C 
ATOM     24  C   UNL     1      29.407 -22.276 -14.707  0.00  0.00    -0.001 C 
ATOM     25  C   UNL     1      29.697 -23.288 -16.880  0.00  0.00    -0.001 C 
ATOM     26  C   UNL     1      28.070 -22.016 -15.005  0.00  0.00    +0.037 C 
ATOM     27  C   UNL     1      28.359 -23.029 -17.179  0.00  0.00    +0.037 C 
ATOM     28  C   UNL     1      27.546 -22.393 -16.241  0.00  0.00    +0.139 C 
BRANCH  28  29
ATOM     29  O   UNL     1      26.241 -22.141 -16.533  0.00  0.00    -0.471 OA
ATOM     30  C   UNL     1      25.976 -21.223 -17.592  0.00  0.00    +0.252 C 
ENDBRANCH  28  29
ENDBRANCH  22  23
ENDBRANCH  21  22
ENDBRANCH   7  21
TORSDOF 4
ENDMDL
