MODEL 1
REMARK VINA RESULT:     -11.4      0.000      0.000
REMARK  Name = 6914613
REMARK  8 active torsions:
REMARK  status: ('A' for Active; 'I' for Inactive)
REMARK    1  A    between atoms: C_1  and  N_2
REMARK    2  A    between atoms: C_1  and  C_6
REMARK    3  A    between atoms: C_1  and  C_17
REMARK    4  A    between atoms: C_6  and  C_8
REMARK    5  A    between atoms: C_17  and  O_18
REMARK    6  A    between atoms: O_18  and  C_20
REMARK    7  A    between atoms: C_23  and  C_25
REMARK    8  A    between atoms: C_26  and  C_28
REMARK                            x       y       z     vdW  Elec       q    Type
REMARK                         _______ _______ _______ _____ _____    ______ ____
ROOT
ATOM      1  C   UNL     1      32.946 -12.504 -22.705  0.00  0.00    -0.017 C 
ENDROOT
BRANCH   1   2
ATOM      2  N   UNL     1      33.136 -11.842 -24.001  0.00  0.00    +0.384 N 
ATOM      3  H   UNL     1      33.664 -12.456 -24.622  0.00  0.00    -0.089 HD
ATOM      4  H   UNL     1      33.651 -10.972 -23.866  0.00  0.00    -0.089 HD
ATOM      5  H   UNL     1      32.227 -11.639 -24.415  0.00  0.00    -0.089 HD
ENDBRANCH   1   2
BRANCH   1   6
ATOM      6  C   UNL     1      31.612 -12.026 -22.073  0.00  0.00    +0.009 C 
BRANCH   6   8
ATOM      7  N   UNL     1      31.898  -9.865 -19.144  0.00  0.00    -0.312 N 
ATOM      8  C   UNL     1      31.759 -10.944 -21.079  0.00  0.00    -0.008 C 
ATOM      9  C   UNL     1      31.955  -9.561 -21.354  0.00  0.00    +0.011 C 
ATOM     10  C   UNL     1      32.039  -8.906 -20.123  0.00  0.00    +0.048 C 
ATOM     11  C   UNL     1      31.728 -11.099 -19.712  0.00  0.00    +0.058 C 
ATOM     12  C   UNL     1      32.068  -8.801 -22.534  0.00  0.00    +0.001 C 
ATOM     13  C   UNL     1      32.232  -7.525 -20.013  0.00  0.00    +0.015 C 
ATOM     14  C   UNL     1      32.262  -7.418 -22.440  0.00  0.00    +0.000 C 
ATOM     15  C   UNL     1      32.342  -6.792 -21.198  0.00  0.00    +0.001 C 
ATOM     16  H   UNL     1      31.917  -9.688 -18.175  0.00  0.00    +0.152 HD
ENDBRANCH   6   8
ENDBRANCH   1   6
BRANCH   1  17
ATOM     17  C   UNL     1      33.018 -14.022 -22.915  0.00  0.00    +0.184 C 
BRANCH  17  18
ATOM     18  O   UNL     1      34.188 -14.402 -23.626  0.00  0.00    -0.476 OA
BRANCH  18  20
ATOM     19  N   UNL     1      34.321 -17.504 -25.536  0.00  0.00    -0.239 NA
ATOM     20  C   UNL     1      34.336 -15.736 -23.905  0.00  0.00    +0.158 C 
ATOM     21  C   UNL     1      34.629 -16.636 -22.897  0.00  0.00    +0.040 C 
ATOM     22  C   UNL     1      34.191 -16.202 -25.193  0.00  0.00    +0.136 C 
ATOM     23  C   UNL     1      34.771 -17.983 -23.210  0.00  0.00    +0.022 C 
ATOM     24  C   UNL     1      34.608 -18.362 -24.532  0.00  0.00    +0.099 C 
BRANCH  23  25
ATOM     25  C   UNL     1      35.078 -18.962 -22.182  0.00  0.00    +0.002 C 
ATOM     26  C   UNL     1      34.174 -19.537 -21.352  0.00  0.00    +0.000 C 
BRANCH  26  28
ATOM     27  N   UNL     1      35.064 -22.441 -18.380  0.00  0.00    -0.242 NA
ATOM     28  C   UNL     1      34.483 -20.545 -20.322  0.00  0.00    +0.003 C 
ATOM     29  C   UNL     1      35.795 -20.748 -19.944  0.00  0.00    +0.021 C 
ATOM     30  C   UNL     1      33.455 -21.270 -19.752  0.00  0.00    +0.021 C 
ATOM     31  C   UNL     1      36.033 -21.705 -18.970  0.00  0.00    +0.099 C 
ATOM     32  C   UNL     1      33.797 -22.203 -18.788  0.00  0.00    +0.099 C 
ENDBRANCH  26  28
ENDBRANCH  23  25
ENDBRANCH  18  20
ENDBRANCH  17  18
ENDBRANCH   1  17
TORSDOF 8
ENDMDL
MODEL 2
REMARK VINA RESULT:     -11.4      1.535      1.999
REMARK  Name = 6914613
REMARK  8 active torsions:
REMARK  status: ('A' for Active; 'I' for Inactive)
REMARK    1  A    between atoms: C_1  and  N_2
REMARK    2  A    between atoms: C_1  and  C_6
REMARK    3  A    between atoms: C_1  and  C_17
REMARK    4  A    between atoms: C_6  and  C_8
REMARK    5  A    between atoms: C_17  and  O_18
REMARK    6  A    between atoms: O_18  and  C_20
REMARK    7  A    between atoms: C_23  and  C_25
REMARK    8  A    between atoms: C_26  and  C_28
REMARK                            x       y       z     vdW  Elec       q    Type
REMARK                         _______ _______ _______ _____ _____    ______ ____
ROOT
ATOM      1  C   UNL     1      32.755 -14.025 -22.048  0.00  0.00    -0.017 C 
ENDROOT
BRANCH   1   2
ATOM      2  N   UNL     1      32.597 -13.450 -20.708  0.00  0.00    +0.384 N 
ATOM      3  H   UNL     1      31.947 -12.665 -20.749  0.00  0.00    -0.089 HD
ATOM      4  H   UNL     1      33.502 -13.123 -20.369  0.00  0.00    -0.089 HD
ATOM      5  H   UNL     1      32.233 -14.161 -20.074  0.00  0.00    -0.089 HD
ENDBRANCH   1   2
BRANCH   1   6
ATOM      6  C   UNL     1      32.093 -13.088 -23.093  0.00  0.00    +0.009 C 
BRANCH   6   8
ATOM      7  N   UNL     1      31.871  -9.638 -21.919  0.00  0.00    -0.312 N 
ATOM      8  C   UNL     1      32.223 -11.648 -22.793  0.00  0.00    -0.008 C 
ATOM      9  C   UNL     1      33.173 -10.747 -23.352  0.00  0.00    +0.011 C 
ATOM     10  C   UNL     1      32.931  -9.493 -22.787  0.00  0.00    +0.048 C 
ATOM     11  C   UNL     1      31.437 -10.936 -21.916  0.00  0.00    +0.058 C 
ATOM     12  C   UNL     1      34.218 -10.879 -24.288  0.00  0.00    +0.001 C 
ATOM     13  C   UNL     1      33.685  -8.360 -23.111  0.00  0.00    +0.015 C 
ATOM     14  C   UNL     1      34.981  -9.754 -24.622  0.00  0.00    +0.000 C 
ATOM     15  C   UNL     1      34.717  -8.516 -24.042  0.00  0.00    +0.001 C 
ATOM     16  H   UNL     1      31.483  -8.912 -21.378  0.00  0.00    +0.152 HD
ENDBRANCH   6   8
ENDBRANCH   1   6
BRANCH   1  17
ATOM     17  C   UNL     1      34.248 -14.270 -22.303  0.00  0.00    +0.184 C 
BRANCH  17  18
ATOM     18  O   UNL     1      34.503 -14.620 -23.658  0.00  0.00    -0.476 OA
BRANCH  18  20
ATOM     19  N   UNL     1      34.331 -17.697 -25.604  0.00  0.00    -0.239 NA
ATOM     20  C   UNL     1      34.533 -15.958 -23.955  0.00  0.00    +0.158 C 
ATOM     21  C   UNL     1      34.777 -16.891 -22.965  0.00  0.00    +0.040 C 
ATOM     22  C   UNL     1      34.317 -16.393 -25.244  0.00  0.00    +0.136 C 
ATOM     23  C   UNL     1      34.800 -18.242 -23.297  0.00  0.00    +0.022 C 
ATOM     24  C   UNL     1      34.572 -18.589 -24.618  0.00  0.00    +0.099 C 
BRANCH  23  25
ATOM     25  C   UNL     1      35.053 -19.256 -22.289  0.00  0.00    +0.002 C 
ATOM     26  C   UNL     1      34.236 -19.545 -21.246  0.00  0.00    +0.000 C 
BRANCH  26  28
ATOM     27  N   UNL     1      34.948 -22.548 -18.325  0.00  0.00    -0.242 NA
ATOM     28  C   UNL     1      34.483 -20.587 -20.234  0.00  0.00    +0.003 C 
ATOM     29  C   UNL     1      35.772 -20.813 -19.793  0.00  0.00    +0.021 C 
ATOM     30  C   UNL     1      33.422 -21.320 -19.742  0.00  0.00    +0.021 C 
ATOM     31  C   UNL     1      35.951 -21.802 -18.840  0.00  0.00    +0.099 C 
ATOM     32  C   UNL     1      33.706 -22.287 -18.791  0.00  0.00    +0.099 C 
ENDBRANCH  26  28
ENDBRANCH  23  25
ENDBRANCH  18  20
ENDBRANCH  17  18
ENDBRANCH   1  17
TORSDOF 8
ENDMDL
MODEL 3
REMARK VINA RESULT:     -11.3      1.230      2.064
REMARK  Name = 6914613
REMARK  8 active torsions:
REMARK  status: ('A' for Active; 'I' for Inactive)
REMARK    1  A    between atoms: C_1  and  N_2
REMARK    2  A    between atoms: C_1  and  C_6
REMARK    3  A    between atoms: C_1  and  C_17
REMARK    4  A    between atoms: C_6  and  C_8
REMARK    5  A    between atoms: C_17  and  O_18
REMARK    6  A    between atoms: O_18  and  C_20
REMARK    7  A    between atoms: C_23  and  C_25
REMARK    8  A    between atoms: C_26  and  C_28
REMARK                            x       y       z     vdW  Elec       q    Type
REMARK                         _______ _______ _______ _____ _____    ______ ____
ROOT
ATOM      1  C   UNL     1      33.957 -11.472 -24.216  0.00  0.00    -0.017 C 
ENDROOT
BRANCH   1   2
ATOM      2  N   UNL     1      34.955 -11.101 -25.225  0.00  0.00    +0.384 N 
ATOM      3  H   UNL     1      34.749 -11.583 -26.100  0.00  0.00    -0.089 HD
ATOM      4  H   UNL     1      35.884 -11.369 -24.900  0.00  0.00    -0.089 HD
ATOM      5  H   UNL     1      34.926 -10.093 -25.377  0.00  0.00    -0.089 HD
ENDBRANCH   1   2
BRANCH   1   6
ATOM      6  C   UNL     1      32.808 -10.429 -24.218  0.00  0.00    +0.009 C 
BRANCH   6   8
ATOM      7  N   UNL     1      32.727  -8.023 -21.472  0.00  0.00    -0.312 N 
ATOM      8  C   UNL     1      32.667  -9.672 -22.958  0.00  0.00    -0.008 C 
ATOM      9  C   UNL     1      32.163 -10.167 -21.722  0.00  0.00    +0.011 C 
ATOM     10  C   UNL     1      32.210  -9.113 -20.807  0.00  0.00    +0.048 C 
ATOM     11  C   UNL     1      33.005  -8.351 -22.772  0.00  0.00    +0.058 C 
ATOM     12  C   UNL     1      31.669 -11.415 -21.293  0.00  0.00    +0.001 C 
ATOM     13  C   UNL     1      31.788  -9.244 -19.480  0.00  0.00    +0.015 C 
ATOM     14  C   UNL     1      31.242 -11.561 -19.969  0.00  0.00    +0.000 C 
ATOM     15  C   UNL     1      31.301 -10.492 -19.078  0.00  0.00    +0.001 C 
ATOM     16  H   UNL     1      32.874  -7.136 -21.071  0.00  0.00    +0.152 HD
ENDBRANCH   6   8
ENDBRANCH   1   6
BRANCH   1  17
ATOM     17  C   UNL     1      33.485 -12.905 -24.497  0.00  0.00    +0.184 C 
BRANCH  17  18
ATOM     18  O   UNL     1      33.953 -13.818 -23.513  0.00  0.00    -0.476 OA
BRANCH  18  20
ATOM     19  N   UNL     1      34.272 -16.700 -25.721  0.00  0.00    -0.239 NA
ATOM     20  C   UNL     1      34.170 -15.108 -23.921  0.00  0.00    +0.158 C 
ATOM     21  C   UNL     1      34.486 -16.091 -23.001  0.00  0.00    +0.040 C 
ATOM     22  C   UNL     1      34.073 -15.447 -25.252  0.00  0.00    +0.136 C 
ATOM     23  C   UNL     1      34.699 -17.392 -23.444  0.00  0.00    +0.022 C 
ATOM     24  C   UNL     1      34.580 -17.642 -24.801  0.00  0.00    +0.099 C 
BRANCH  23  25
ATOM     25  C   UNL     1      35.033 -18.455 -22.513  0.00  0.00    +0.002 C 
ATOM     26  C   UNL     1      34.178 -19.014 -21.623  0.00  0.00    +0.000 C 
BRANCH  26  28
ATOM     27  N   UNL     1      35.140 -22.160 -18.933  0.00  0.00    -0.242 NA
ATOM     28  C   UNL     1      34.512 -20.106 -20.691  0.00  0.00    +0.003 C 
ATOM     29  C   UNL     1      35.836 -20.408 -20.446  0.00  0.00    +0.021 C 
ATOM     30  C   UNL     1      33.494 -20.809 -20.077  0.00  0.00    +0.021 C 
ATOM     31  C   UNL     1      36.098 -21.441 -19.561  0.00  0.00    +0.099 C 
ATOM     32  C   UNL     1      33.860 -21.825 -19.209  0.00  0.00    +0.099 C 
ENDBRANCH  26  28
ENDBRANCH  23  25
ENDBRANCH  18  20
ENDBRANCH  17  18
ENDBRANCH   1  17
TORSDOF 8
ENDMDL
MODEL 4
REMARK VINA RESULT:     -11.2      1.965      2.398
REMARK  Name = 6914613
REMARK  8 active torsions:
REMARK  status: ('A' for Active; 'I' for Inactive)
REMARK    1  A    between atoms: C_1  and  N_2
REMARK    2  A    between atoms: C_1  and  C_6
REMARK    3  A    between atoms: C_1  and  C_17
REMARK    4  A    between atoms: C_6  and  C_8
REMARK    5  A    between atoms: C_17  and  O_18
REMARK    6  A    between atoms: O_18  and  C_20
REMARK    7  A    between atoms: C_23  and  C_25
REMARK    8  A    between atoms: C_26  and  C_28
REMARK                            x       y       z     vdW  Elec       q    Type
REMARK                         _______ _______ _______ _____ _____    ______ ____
ROOT
ATOM      1  C   UNL     1      33.789 -12.759 -24.210  0.00  0.00    -0.017 C 
ENDROOT
BRANCH   1   2
ATOM      2  N   UNL     1      33.390 -12.986 -25.603  0.00  0.00    +0.384 N 
ATOM      3  H   UNL     1      32.816 -12.206 -25.924  0.00  0.00    -0.089 HD
ATOM      4  H   UNL     1      32.854 -13.852 -25.667  0.00  0.00    -0.089 HD
ATOM      5  H   UNL     1      34.223 -13.058 -26.188  0.00  0.00    -0.089 HD
ENDBRANCH   1   2
BRANCH   1   6
ATOM      6  C   UNL     1      32.907 -11.640 -23.596  0.00  0.00    +0.009 C 
BRANCH   6   8
ATOM      7  N   UNL     1      34.827  -8.593 -24.198  0.00  0.00    -0.312 N 
ATOM      8  C   UNL     1      33.442 -10.275 -23.771  0.00  0.00    -0.008 C 
ATOM      9  C   UNL     1      32.733  -9.055 -23.577  0.00  0.00    +0.011 C 
ATOM     10  C   UNL     1      33.625  -8.015 -23.852  0.00  0.00    +0.048 C 
ATOM     11  C   UNL     1      34.725  -9.958 -24.152  0.00  0.00    +0.058 C 
ATOM     12  C   UNL     1      31.417  -8.735 -23.193  0.00  0.00    +0.001 C 
ATOM     13  C   UNL     1      33.264  -6.667 -23.762  0.00  0.00    +0.015 C 
ATOM     14  C   UNL     1      31.040  -7.390 -23.099  0.00  0.00    +0.000 C 
ATOM     15  C   UNL     1      31.951  -6.374 -23.379  0.00  0.00    +0.001 C 
ATOM     16  H   UNL     1      35.641  -8.096 -24.443  0.00  0.00    +0.152 HD
ENDBRANCH   6   8
ENDBRANCH   1   6
BRANCH   1  17
ATOM     17  C   UNL     1      33.705 -14.091 -23.453  0.00  0.00    +0.184 C 
BRANCH  17  18
ATOM     18  O   UNL     1      34.920 -14.825 -23.538  0.00  0.00    -0.476 OA
BRANCH  18  20
ATOM     19  N   UNL     1      34.391 -17.920 -25.389  0.00  0.00    -0.239 NA
ATOM     20  C   UNL     1      34.815 -16.167 -23.798  0.00  0.00    +0.158 C 
ATOM     21  C   UNL     1      35.009 -17.094 -22.791  0.00  0.00    +0.040 C 
ATOM     22  C   UNL     1      34.512 -16.612 -25.066  0.00  0.00    +0.136 C 
ATOM     23  C   UNL     1      34.894 -18.449 -23.084  0.00  0.00    +0.022 C 
ATOM     24  C   UNL     1      34.585 -18.806 -24.386  0.00  0.00    +0.099 C 
BRANCH  23  25
ATOM     25  C   UNL     1      35.089 -19.456 -22.058  0.00  0.00    +0.002 C 
ATOM     26  C   UNL     1      34.219 -19.733 -21.055  0.00  0.00    +0.000 C 
BRANCH  26  28
ATOM     27  N   UNL     1      34.766 -22.721 -18.084  0.00  0.00    -0.242 NA
ATOM     28  C   UNL     1      34.408 -20.769 -20.024  0.00  0.00    +0.003 C 
ATOM     29  C   UNL     1      33.312 -21.454 -19.542  0.00  0.00    +0.021 C 
ATOM     30  C   UNL     1      35.680 -21.037 -19.558  0.00  0.00    +0.021 C 
ATOM     31  C   UNL     1      33.542 -22.419 -18.575  0.00  0.00    +0.099 C 
ATOM     32  C   UNL     1      35.805 -22.020 -18.590  0.00  0.00    +0.099 C 
ENDBRANCH  26  28
ENDBRANCH  23  25
ENDBRANCH  18  20
ENDBRANCH  17  18
ENDBRANCH   1  17
TORSDOF 8
ENDMDL
MODEL 5
REMARK VINA RESULT:     -11.1      1.835      2.713
REMARK  Name = 6914613
REMARK  8 active torsions:
REMARK  status: ('A' for Active; 'I' for Inactive)
REMARK    1  A    between atoms: C_1  and  N_2
REMARK    2  A    between atoms: C_1  and  C_6
REMARK    3  A    between atoms: C_1  and  C_17
REMARK    4  A    between atoms: C_6  and  C_8
REMARK    5  A    between atoms: C_17  and  O_18
REMARK    6  A    between atoms: O_18  and  C_20
REMARK    7  A    between atoms: C_23  and  C_25
REMARK    8  A    between atoms: C_26  and  C_28
REMARK                            x       y       z     vdW  Elec       q    Type
REMARK                         _______ _______ _______ _____ _____    ______ ____
ROOT
ATOM      1  C   UNL     1      31.232 -11.924 -20.749  0.00  0.00    -0.017 C 
ENDROOT
BRANCH   1   2
ATOM      2  N   UNL     1      31.550 -11.060 -19.607  0.00  0.00    +0.384 N 
ATOM      3  H   UNL     1      31.340 -11.552 -18.739  0.00  0.00    -0.089 HD
ATOM      4  H   UNL     1      30.991 -10.208 -19.658  0.00  0.00    -0.089 HD
ATOM      5  H   UNL     1      32.541 -10.817 -19.629  0.00  0.00    -0.089 HD
ENDBRANCH   1   2
BRANCH   1   6
ATOM      6  C   UNL     1      30.891 -11.045 -21.981  0.00  0.00    +0.009 C 
BRANCH   6   8
ATOM      7  N   UNL     1      32.990  -8.067 -22.221  0.00  0.00    -0.312 N 
ATOM      8  C   UNL     1      31.882  -9.990 -22.274  0.00  0.00    -0.008 C 
ATOM      9  C   UNL     1      32.950 -10.066 -23.212  0.00  0.00    +0.011 C 
ATOM     10  C   UNL     1      33.630  -8.847 -23.159  0.00  0.00    +0.048 C 
ATOM     11  C   UNL     1      31.933  -8.750 -21.680  0.00  0.00    +0.058 C 
ATOM     12  C   UNL     1      33.404 -11.057 -24.104  0.00  0.00    +0.001 C 
ATOM     13  C   UNL     1      34.745  -8.568 -23.956  0.00  0.00    +0.015 C 
ATOM     14  C   UNL     1      34.520 -10.793 -24.908  0.00  0.00    +0.000 C 
ATOM     15  C   UNL     1      35.177  -9.567 -24.834  0.00  0.00    +0.001 C 
ATOM     16  H   UNL     1      33.255  -7.152 -21.974  0.00  0.00    +0.152 HD
ENDBRANCH   6   8
ENDBRANCH   1   6
BRANCH   1  17
ATOM     17  C   UNL     1      32.410 -12.879 -20.983  0.00  0.00    +0.184 C 
BRANCH  17  18
ATOM     18  O   UNL     1      32.190 -13.725 -22.104  0.00  0.00    -0.476 OA
BRANCH  18  20
ATOM     19  N   UNL     1      34.944 -15.373 -23.831  0.00  0.00    -0.239 NA
ATOM     20  C   UNL     1      33.165 -14.646 -22.385  0.00  0.00    +0.158 C 
ATOM     21  C   UNL     1      33.357 -15.738 -21.559  0.00  0.00    +0.040 C 
ATOM     22  C   UNL     1      33.967 -14.500 -23.495  0.00  0.00    +0.136 C 
ATOM     23  C   UNL     1      34.353 -16.658 -21.871  0.00  0.00    +0.022 C 
ATOM     24  C   UNL     1      35.111 -16.431 -23.007  0.00  0.00    +0.099 C 
BRANCH  23  25
ATOM     25  C   UNL     1      34.589 -17.819 -21.032  0.00  0.00    +0.002 C 
ATOM     26  C   UNL     1      34.121 -19.068 -21.273  0.00  0.00    +0.000 C 
BRANCH  26  28
ATOM     27  N   UNL     1      34.858 -22.476 -18.844  0.00  0.00    -0.242 NA
ATOM     28  C   UNL     1      34.377 -20.251 -20.431  0.00  0.00    +0.003 C 
ATOM     29  C   UNL     1      35.678 -20.641 -20.187  0.00  0.00    +0.021 C 
ATOM     30  C   UNL     1      33.310 -20.949 -19.900  0.00  0.00    +0.021 C 
ATOM     31  C   UNL     1      35.865 -21.758 -19.389  0.00  0.00    +0.099 C 
ATOM     32  C   UNL     1      33.603 -22.052 -19.115  0.00  0.00    +0.099 C 
ENDBRANCH  26  28
ENDBRANCH  23  25
ENDBRANCH  18  20
ENDBRANCH  17  18
ENDBRANCH   1  17
TORSDOF 8
ENDMDL
MODEL 6
REMARK VINA RESULT:     -10.9      7.513     11.220
REMARK  Name = 6914613
REMARK  8 active torsions:
REMARK  status: ('A' for Active; 'I' for Inactive)
REMARK    1  A    between atoms: C_1  and  N_2
REMARK    2  A    between atoms: C_1  and  C_6
REMARK    3  A    between atoms: C_1  and  C_17
REMARK    4  A    between atoms: C_6  and  C_8
REMARK    5  A    between atoms: C_17  and  O_18
REMARK    6  A    between atoms: O_18  and  C_20
REMARK    7  A    between atoms: C_23  and  C_25
REMARK    8  A    between atoms: C_26  and  C_28
REMARK                            x       y       z     vdW  Elec       q    Type
REMARK                         _______ _______ _______ _____ _____    ______ ____
ROOT
ATOM      1  C   UNL     1      36.880 -21.729 -16.947  0.00  0.00    -0.017 C 
ENDROOT
BRANCH   1   2
ATOM      2  N   UNL     1      37.670 -20.494 -16.890  0.00  0.00    +0.384 N 
ATOM      3  H   UNL     1      38.088 -20.401 -15.963  0.00  0.00    -0.089 HD
ATOM      4  H   UNL     1      37.065 -19.694 -17.072  0.00  0.00    -0.089 HD
ATOM      5  H   UNL     1      38.408 -20.530 -17.593  0.00  0.00    -0.089 HD
ENDBRANCH   1   2
BRANCH   1   6
ATOM      6  C   UNL     1      36.612 -22.102 -18.429  0.00  0.00    +0.009 C 
BRANCH   6   8
ATOM      7  N   UNL     1      33.033 -21.927 -19.130  0.00  0.00    -0.312 N 
ATOM      8  C   UNL     1      35.237 -21.822 -18.891  0.00  0.00    -0.008 C 
ATOM      9  C   UNL     1      34.847 -20.843 -19.848  0.00  0.00    +0.011 C 
ATOM     10  C   UNL     1      33.459 -20.929 -19.979  0.00  0.00    +0.048 C 
ATOM     11  C   UNL     1      34.100 -22.472 -18.468  0.00  0.00    +0.058 C 
ATOM     12  C   UNL     1      35.542 -19.890 -20.617  0.00  0.00    +0.001 C 
ATOM     13  C   UNL     1      32.729 -20.106 -20.844  0.00  0.00    +0.015 C 
ATOM     14  C   UNL     1      34.826 -19.059 -21.486  0.00  0.00    +0.000 C 
ATOM     15  C   UNL     1      33.441 -19.167 -21.596  0.00  0.00    +0.001 C 
ATOM     16  H   UNL     1      32.095 -22.206 -19.015  0.00  0.00    +0.152 HD
ENDBRANCH   6   8
ENDBRANCH   1   6
BRANCH   1  17
ATOM     17  C   UNL     1      37.619 -22.821 -16.163  0.00  0.00    +0.184 C 
BRANCH  17  18
ATOM     18  O   UNL     1      37.671 -22.530 -14.772  0.00  0.00    -0.476 OA
BRANCH  18  20
ATOM     19  N   UNL     1      36.362 -24.379 -11.917  0.00  0.00    -0.239 NA
ATOM     20  C   UNL     1      36.782 -23.194 -13.968  0.00  0.00    +0.158 C 
ATOM     21  C   UNL     1      35.467 -23.357 -14.360  0.00  0.00    +0.040 C 
ATOM     22  C   UNL     1      37.187 -23.712 -12.757  0.00  0.00    +0.136 C 
ATOM     23  C   UNL     1      34.589 -24.037 -13.523  0.00  0.00    +0.022 C 
ATOM     24  C   UNL     1      35.082 -24.524 -12.324  0.00  0.00    +0.099 C 
BRANCH  23  25
ATOM     25  C   UNL     1      33.199 -24.232 -13.895  0.00  0.00    +0.002 C 
ATOM     26  C   UNL     1      32.526 -23.502 -14.818  0.00  0.00    +0.000 C 
BRANCH  26  28
ATOM     27  N   UNL     1      28.475 -24.108 -15.950  0.00  0.00    -0.242 NA
ATOM     28  C   UNL     1      31.120 -23.711 -15.210  0.00  0.00    +0.003 C 
ATOM     29  C   UNL     1      30.567 -22.923 -16.199  0.00  0.00    +0.021 C 
ATOM     30  C   UNL     1      30.380 -24.693 -14.582  0.00  0.00    +0.021 C 
ATOM     31  C   UNL     1      29.244 -23.160 -16.533  0.00  0.00    +0.099 C 
ATOM     32  C   UNL     1      29.065 -24.851 -14.987  0.00  0.00    +0.099 C 
ENDBRANCH  26  28
ENDBRANCH  23  25
ENDBRANCH  18  20
ENDBRANCH  17  18
ENDBRANCH   1  17
TORSDOF 8
ENDMDL
MODEL 7
REMARK VINA RESULT:     -10.9      2.179     10.308
REMARK  Name = 6914613
REMARK  8 active torsions:
REMARK  status: ('A' for Active; 'I' for Inactive)
REMARK    1  A    between atoms: C_1  and  N_2
REMARK    2  A    between atoms: C_1  and  C_6
REMARK    3  A    between atoms: C_1  and  C_17
REMARK    4  A    between atoms: C_6  and  C_8
REMARK    5  A    between atoms: C_17  and  O_18
REMARK    6  A    between atoms: O_18  and  C_20
REMARK    7  A    between atoms: C_23  and  C_25
REMARK    8  A    between atoms: C_26  and  C_28
REMARK                            x       y       z     vdW  Elec       q    Type
REMARK                         _______ _______ _______ _____ _____    ______ ____
ROOT
ATOM      1  C   UNL     1      34.842 -17.774 -21.476  0.00  0.00    -0.017 C 
ENDROOT
BRANCH   1   2
ATOM      2  N   UNL     1      33.593 -17.192 -20.971  0.00  0.00    +0.384 N 
ATOM      3  H   UNL     1      32.894 -17.927 -20.866  0.00  0.00    -0.089 HD
ATOM      4  H   UNL     1      33.253 -16.492 -21.631  0.00  0.00    -0.089 HD
ATOM      5  H   UNL     1      33.764 -16.753 -20.067  0.00  0.00    -0.089 HD
ENDBRANCH   1   2
BRANCH   1   6
ATOM      6  C   UNL     1      34.576 -19.224 -21.962  0.00  0.00    +0.009 C 
BRANCH   6   8
ATOM      7  N   UNL     1      32.760 -21.381 -19.643  0.00  0.00    -0.312 N 
ATOM      8  C   UNL     1      34.098 -20.143 -20.911  0.00  0.00    -0.008 C 
ATOM      9  C   UNL     1      34.894 -20.792 -19.924  0.00  0.00    +0.011 C 
ATOM     10  C   UNL     1      34.030 -21.562 -19.142  0.00  0.00    +0.048 C 
ATOM     11  C   UNL     1      32.791 -20.526 -20.712  0.00  0.00    +0.058 C 
ATOM     12  C   UNL     1      36.269 -20.796 -19.620  0.00  0.00    +0.001 C 
ATOM     13  C   UNL     1      34.475 -22.340 -18.068  0.00  0.00    +0.015 C 
ATOM     14  C   UNL     1      36.729 -21.571 -18.549  0.00  0.00    +0.000 C 
ATOM     15  C   UNL     1      35.844 -22.329 -17.786  0.00  0.00    +0.001 C 
ATOM     16  H   UNL     1      31.947 -21.806 -19.285  0.00  0.00    +0.152 HD
ENDBRANCH   6   8
ENDBRANCH   1   6
BRANCH   1  17
ATOM     17  C   UNL     1      35.405 -16.854 -22.567  0.00  0.00    +0.184 C 
BRANCH  17  18
ATOM     18  O   UNL     1      34.809 -17.109 -23.833  0.00  0.00    -0.476 OA
BRANCH  18  20
ATOM     19  N   UNL     1      33.204 -15.155 -26.457  0.00  0.00    -0.239 NA
ATOM     20  C   UNL     1      34.255 -16.036 -24.482  0.00  0.00    +0.158 C 
ATOM     21  C   UNL     1      34.188 -14.801 -23.865  0.00  0.00    +0.040 C 
ATOM     22  C   UNL     1      33.760 -16.172 -25.760  0.00  0.00    +0.136 C 
ATOM     23  C   UNL     1      33.622 -13.731 -24.550  0.00  0.00    +0.022 C 
ATOM     24  C   UNL     1      33.150 -13.958 -25.831  0.00  0.00    +0.099 C 
BRANCH  23  25
ATOM     25  C   UNL     1      33.531 -12.416 -23.940  0.00  0.00    +0.002 C 
ATOM     26  C   UNL     1      33.963 -11.260 -24.501  0.00  0.00    +0.000 C 
BRANCH  26  28
ATOM     27  N   UNL     1      33.648  -7.407 -22.739  0.00  0.00    -0.242 NA
ATOM     28  C   UNL     1      33.853  -9.924 -23.891  0.00  0.00    +0.003 C 
ATOM     29  C   UNL     1      32.753  -9.620 -23.114  0.00  0.00    +0.021 C 
ATOM     30  C   UNL     1      34.854  -8.996 -24.105  0.00  0.00    +0.021 C 
ATOM     31  C   UNL     1      32.697  -8.351 -22.562  0.00  0.00    +0.099 C 
ATOM     32  C   UNL     1      34.704  -7.755 -23.508  0.00  0.00    +0.099 C 
ENDBRANCH  26  28
ENDBRANCH  23  25
ENDBRANCH  18  20
ENDBRANCH  17  18
ENDBRANCH   1  17
TORSDOF 8
ENDMDL
MODEL 8
REMARK VINA RESULT:     -10.8      7.227     10.944
REMARK  Name = 6914613
REMARK  8 active torsions:
REMARK  status: ('A' for Active; 'I' for Inactive)
REMARK    1  A    between atoms: C_1  and  N_2
REMARK    2  A    between atoms: C_1  and  C_6
REMARK    3  A    between atoms: C_1  and  C_17
REMARK    4  A    between atoms: C_6  and  C_8
REMARK    5  A    between atoms: C_17  and  O_18
REMARK    6  A    between atoms: O_18  and  C_20
REMARK    7  A    between atoms: C_23  and  C_25
REMARK    8  A    between atoms: C_26  and  C_28
REMARK                            x       y       z     vdW  Elec       q    Type
REMARK                         _______ _______ _______ _____ _____    ______ ____
ROOT
ATOM      1  C   UNL     1      36.615 -21.651 -16.915  0.00  0.00    -0.017 C 
ENDROOT
BRANCH   1   2
ATOM      2  N   UNL     1      37.566 -20.534 -16.907  0.00  0.00    +0.384 N 
ATOM      3  H   UNL     1      37.655 -20.171 -15.958  0.00  0.00    -0.089 HD
ATOM      4  H   UNL     1      37.228 -19.795 -17.524  0.00  0.00    -0.089 HD
ATOM      5  H   UNL     1      38.476 -20.860 -17.234  0.00  0.00    -0.089 HD
ENDBRANCH   1   2
BRANCH   1   6
ATOM      6  C   UNL     1      36.467 -22.192 -18.362  0.00  0.00    +0.009 C 
BRANCH   6   8
ATOM      7  N   UNL     1      33.245 -21.328 -19.846  0.00  0.00    -0.312 N 
ATOM      8  C   UNL     1      35.313 -21.647 -19.104  0.00  0.00    -0.008 C 
ATOM      9  C   UNL     1      35.339 -20.584 -20.051  0.00  0.00    +0.011 C 
ATOM     10  C   UNL     1      34.029 -20.403 -20.501  0.00  0.00    +0.048 C 
ATOM     11  C   UNL     1      34.012 -22.083 -19.000  0.00  0.00    +0.058 C 
ATOM     12  C   UNL     1      36.354 -19.756 -20.570  0.00  0.00    +0.001 C 
ATOM     13  C   UNL     1      33.682 -19.433 -21.447  0.00  0.00    +0.015 C 
ATOM     14  C   UNL     1      36.021 -18.780 -21.517  0.00  0.00    +0.000 C 
ATOM     15  C   UNL     1      34.706 -18.623 -21.947  0.00  0.00    +0.001 C 
ATOM     16  H   UNL     1      32.273 -21.429 -19.968  0.00  0.00    +0.152 HD
ENDBRANCH   6   8
ENDBRANCH   1   6
BRANCH   1  17
ATOM     17  C   UNL     1      37.092 -22.708 -15.910  0.00  0.00    +0.184 C 
BRANCH  17  18
ATOM     18  O   UNL     1      36.283 -23.876 -15.947  0.00  0.00    -0.476 OA
BRANCH  18  20
ATOM     19  N   UNL     1      33.997 -24.068 -13.115  0.00  0.00    -0.239 NA
ATOM     20  C   UNL     1      35.113 -23.840 -15.233  0.00  0.00    +0.158 C 
ATOM     21  C   UNL     1      33.914 -23.561 -15.863  0.00  0.00    +0.040 C 
ATOM     22  C   UNL     1      35.114 -24.085 -13.877  0.00  0.00    +0.136 C 
ATOM     23  C   UNL     1      32.744 -23.534 -15.112  0.00  0.00    +0.022 C 
ATOM     24  C   UNL     1      32.839 -23.793 -13.754  0.00  0.00    +0.099 C 
BRANCH  23  25
ATOM     25  C   UNL     1      31.463 -23.246 -15.732  0.00  0.00    +0.002 C 
ATOM     26  C   UNL     1      30.277 -23.169 -15.080  0.00  0.00    +0.000 C 
BRANCH  26  28
ATOM     27  N   UNL     1      26.536 -22.273 -16.885  0.00  0.00    -0.242 NA
ATOM     28  C   UNL     1      28.980 -22.857 -15.707  0.00  0.00    +0.003 C 
ATOM     29  C   UNL     1      28.773 -23.175 -17.034  0.00  0.00    +0.021 C 
ATOM     30  C   UNL     1      27.991 -22.253 -14.955  0.00  0.00    +0.021 C 
ATOM     31  C   UNL     1      27.537 -22.864 -17.575  0.00  0.00    +0.099 C 
ATOM     32  C   UNL     1      26.790 -21.982 -15.589  0.00  0.00    +0.099 C 
ENDBRANCH  26  28
ENDBRANCH  23  25
ENDBRANCH  18  20
ENDBRANCH  17  18
ENDBRANCH   1  17
TORSDOF 8
ENDMDL
MODEL 9
REMARK VINA RESULT:     -10.8      3.539      7.283
REMARK  Name = 6914613
REMARK  8 active torsions:
REMARK  status: ('A' for Active; 'I' for Inactive)
REMARK    1  A    between atoms: C_1  and  N_2
REMARK    2  A    between atoms: C_1  and  C_6
REMARK    3  A    between atoms: C_1  and  C_17
REMARK    4  A    between atoms: C_6  and  C_8
REMARK    5  A    between atoms: C_17  and  O_18
REMARK    6  A    between atoms: O_18  and  C_20
REMARK    7  A    between atoms: C_23  and  C_25
REMARK    8  A    between atoms: C_26  and  C_28
REMARK                            x       y       z     vdW  Elec       q    Type
REMARK                         _______ _______ _______ _____ _____    ______ ____
ROOT
ATOM      1  C   UNL     1      35.218 -18.858 -21.450  0.00  0.00    -0.017 C 
ENDROOT
BRANCH   1   2
ATOM      2  N   UNL     1      33.843 -19.360 -21.347  0.00  0.00    +0.384 N 
ATOM      3  H   UNL     1      33.486 -19.565 -22.280  0.00  0.00    -0.089 HD
ATOM      4  H   UNL     1      33.255 -18.654 -20.905  0.00  0.00    -0.089 HD
ATOM      5  H   UNL     1      33.834 -20.211 -20.785  0.00  0.00    -0.089 HD
ENDBRANCH   1   2
BRANCH   1   6
ATOM      6  C   UNL     1      35.253 -17.362 -21.042  0.00  0.00    +0.009 C 
BRANCH   6   8
ATOM      7  N   UNL     1      34.231 -15.471 -23.994  0.00  0.00    -0.312 N 
ATOM      8  C   UNL     1      34.693 -16.440 -22.050  0.00  0.00    -0.008 C 
ATOM      9  C   UNL     1      33.823 -15.340 -21.804  0.00  0.00    +0.011 C 
ATOM     10  C   UNL     1      33.548 -14.749 -23.039  0.00  0.00    +0.048 C 
ATOM     11  C   UNL     1      34.925 -16.495 -23.405  0.00  0.00    +0.058 C 
ATOM     12  C   UNL     1      33.243 -14.788 -20.645  0.00  0.00    +0.001 C 
ATOM     13  C   UNL     1      32.718 -13.631 -23.175  0.00  0.00    +0.015 C 
ATOM     14  C   UNL     1      32.410 -13.669 -20.765  0.00  0.00    +0.000 C 
ATOM     15  C   UNL     1      32.154 -13.102 -22.011  0.00  0.00    +0.001 C 
ATOM     16  H   UNL     1      34.220 -15.280 -24.960  0.00  0.00    +0.152 HD
ENDBRANCH   6   8
ENDBRANCH   1   6
BRANCH   1  17
ATOM     17  C   UNL     1      36.130 -19.749 -20.596  0.00  0.00    +0.184 C 
BRANCH  17  18
ATOM     18  O   UNL     1      35.681 -21.098 -20.574  0.00  0.00    -0.476 OA
BRANCH  18  20
ATOM     19  N   UNL     1      36.382 -22.258 -17.190  0.00  0.00    -0.239 NA
ATOM     20  C   UNL     1      35.484 -21.663 -19.341  0.00  0.00    +0.158 C 
ATOM     21  C   UNL     1      34.254 -22.195 -19.001  0.00  0.00    +0.040 C 
ATOM     22  C   UNL     1      36.509 -21.712 -18.422  0.00  0.00    +0.136 C 
ATOM     23  C   UNL     1      34.085 -22.765 -17.743  0.00  0.00    +0.022 C 
ATOM     24  C   UNL     1      35.171 -22.771 -16.884  0.00  0.00    +0.099 C 
BRANCH  23  25
ATOM     25  C   UNL     1      32.811 -23.335 -17.345  0.00  0.00    +0.002 C 
ATOM     26  C   UNL     1      32.181 -23.101 -16.168  0.00  0.00    +0.000 C 
BRANCH  26  28
ATOM     27  N   UNL     1      28.425 -24.730 -15.027  0.00  0.00    -0.242 NA
ATOM     28  C   UNL     1      30.879 -23.665 -15.771  0.00  0.00    +0.003 C 
ATOM     29  C   UNL     1      29.716 -23.051 -16.193  0.00  0.00    +0.021 C 
ATOM     30  C   UNL     1      30.841 -24.800 -14.984  0.00  0.00    +0.021 C 
ATOM     31  C   UNL     1      28.518 -23.621 -15.796  0.00  0.00    +0.099 C 
ATOM     32  C   UNL     1      29.593 -25.291 -14.640  0.00  0.00    +0.099 C 
ENDBRANCH  26  28
ENDBRANCH  23  25
ENDBRANCH  18  20
ENDBRANCH  17  18
ENDBRANCH   1  17
TORSDOF 8
ENDMDL
