MODEL 1
REMARK VINA RESULT:      -8.8      0.000      0.000
REMARK  Name = 8975
REMARK  5 active torsions:
REMARK  status: ('A' for Active; 'I' for Inactive)
REMARK    1  A    between atoms: N_2  and  C1*_13
REMARK    2  A    between atoms: C2*_12  and  O2*_16
REMARK    3  A    between atoms: C3*_14  and  O3*_18
REMARK    4  A    between atoms: C4*_15  and  C5*_20
REMARK    5  A    between atoms: C5*_20  and  O5*_21
REMARK                            x       y       z     vdW  Elec       q    Type
REMARK                         _______ _______ _______ _____ _____    ______ ____
ROOT
ATOM      1  F   UNL     1      30.936 -23.631 -14.404  0.00  0.00    -0.098 F 
ATOM      2  N   UNL     1      35.599 -23.249 -14.735  0.00  0.00    -0.236 N 
ATOM      3  N   UNL     1      35.591 -22.910 -16.941  0.00  0.00    -0.240 NA
ATOM      4  N   UNL     1      33.212 -23.479 -14.343  0.00  0.00    -0.300 NA
ATOM      5  N   UNL     1      31.946 -23.249 -16.417  0.00  0.00    -0.301 NA
ATOM      6  C   UNL     1      34.288 -23.283 -15.121  0.00  0.00    +0.222 C 
ATOM      7  C   UNL     1      36.342 -23.022 -15.864  0.00  0.00    +0.224 C 
ATOM      8  C   UNL     1      34.305 -23.071 -16.490  0.00  0.00    +0.167 C 
ATOM      9  C   UNL     1      33.075 -23.058 -17.141  0.00  0.00    +0.213 C 
ATOM     10  C   UNL     1      32.082 -23.444 -15.084  0.00  0.00    +0.300 C 
ATOM     11  N   UNL     1      32.999 -22.847 -18.528  0.00  0.00    -0.331 N 
ATOM     12  H   UNL     1      32.123 -22.840 -18.978  0.00  0.00    +0.145 HD
ATOM     13  H   UNL     1      33.821 -22.707 -19.051  0.00  0.00    +0.145 HD
ENDROOT
BRANCH   2  16
ATOM     14  O4* UNL     1      37.548 -23.233 -13.382  0.00  0.00    -0.333 OA
ATOM     15  C2* UNL     1      35.877 -24.806 -12.797  0.00  0.00    +0.187 C 
ATOM     16  C1* UNL     1      36.119 -23.423 -13.381  0.00  0.00    +0.226 C 
ATOM     17  C3* UNL     1      36.996 -24.904 -11.779  0.00  0.00    +0.171 C 
ATOM     18  C4* UNL     1      38.147 -24.204 -12.493  0.00  0.00    +0.175 C 
BRANCH  15  19
ATOM     19  O2* UNL     1      34.592 -24.916 -12.219  0.00  0.00    -0.378 OA
ATOM     20  H2* UNL     1      34.263 -24.032 -11.991  0.00  0.00    +0.211 HD
ENDBRANCH  15  19
BRANCH  17  21
ATOM     21  O3* UNL     1      36.649 -24.150 -10.616  0.00  0.00    -0.379 OA
ATOM     22  H3* UNL     1      35.921 -23.546 -10.828  0.00  0.00    +0.211 HD
ENDBRANCH  17  21
BRANCH  18  23
ATOM     23  C5* UNL     1      38.997 -25.155 -13.324  0.00  0.00    +0.169 C 
BRANCH  23  24
ATOM     24  O5* UNL     1      39.270 -24.545 -14.573  0.00  0.00    -0.379 OA
ATOM     25  H5* UNL     1      40.216 -24.338 -14.632  0.00  0.00    +0.211 HD
ENDBRANCH  23  24
ENDBRANCH  18  23
ENDBRANCH   2  16
TORSDOF 5
ENDMDL
MODEL 2
REMARK VINA RESULT:      -8.6      1.831      3.280
REMARK  Name = 8975
REMARK  5 active torsions:
REMARK  status: ('A' for Active; 'I' for Inactive)
REMARK    1  A    between atoms: N_2  and  C1*_13
REMARK    2  A    between atoms: C2*_12  and  O2*_16
REMARK    3  A    between atoms: C3*_14  and  O3*_18
REMARK    4  A    between atoms: C4*_15  and  C5*_20
REMARK    5  A    between atoms: C5*_20  and  O5*_21
REMARK                            x       y       z     vdW  Elec       q    Type
REMARK                         _______ _______ _______ _____ _____    ______ ____
ROOT
ATOM      1  F   UNL     1      34.427 -22.452 -19.136  0.00  0.00    -0.098 F 
ATOM      2  N   UNL     1      34.282 -24.037 -14.725  0.00  0.00    -0.236 N 
ATOM      3  N   UNL     1      32.070 -23.810 -14.529  0.00  0.00    -0.240 NA
ATOM      4  N   UNL     1      34.579 -23.248 -17.004  0.00  0.00    -0.300 NA
ATOM      5  N   UNL     1      32.450 -22.598 -18.003  0.00  0.00    -0.301 NA
ATOM      6  C   UNL     1      33.843 -23.543 -15.922  0.00  0.00    +0.222 C 
ATOM      7  C   UNL     1      33.180 -24.181 -13.923  0.00  0.00    +0.224 C 
ATOM      8  C   UNL     1      32.471 -23.409 -15.779  0.00  0.00    +0.167 C 
ATOM      9  C   UNL     1      31.769 -22.915 -16.875  0.00  0.00    +0.213 C 
ATOM     10  C   UNL     1      33.792 -22.781 -17.998  0.00  0.00    +0.300 C 
ATOM     11  N   UNL     1      30.375 -22.750 -16.820  0.00  0.00    -0.331 N 
ATOM     12  H   UNL     1      29.889 -22.399 -17.601  0.00  0.00    +0.145 HD
ATOM     13  H   UNL     1      29.883 -22.983 -16.000  0.00  0.00    +0.145 HD
ENDROOT
BRANCH   2  16
ATOM     14  O4* UNL     1      35.674 -25.158 -13.165  0.00  0.00    -0.333 OA
ATOM     15  C2* UNL     1      36.518 -23.135 -14.059  0.00  0.00    +0.187 C 
ATOM     16  C1* UNL     1      35.660 -24.355 -14.360  0.00  0.00    +0.226 C 
ATOM     17  C3* UNL     1      37.575 -23.727 -13.148  0.00  0.00    +0.171 C 
ATOM     18  C4* UNL     1      36.772 -24.730 -12.327  0.00  0.00    +0.175 C 
BRANCH  15  19
ATOM     19  O2* UNL     1      37.057 -22.566 -15.235  0.00  0.00    -0.378 OA
ATOM     20  H2* UNL     1      37.928 -22.953 -15.411  0.00  0.00    +0.211 HD
ENDBRANCH  15  19
BRANCH  17  21
ATOM     21  O3* UNL     1      38.535 -24.437 -13.931  0.00  0.00    -0.379 OA
ATOM     22  H3* UNL     1      38.687 -25.312 -13.543  0.00  0.00    +0.211 HD
ENDBRANCH  17  21
BRANCH  18  23
ATOM     23  C5* UNL     1      36.197 -24.129 -11.052  0.00  0.00    +0.169 C 
BRANCH  23  24
ATOM     24  O5* UNL     1      35.294 -25.059 -10.479  0.00  0.00    -0.379 OA
ATOM     25  H5* UNL     1      35.135 -25.783 -11.105  0.00  0.00    +0.211 HD
ENDBRANCH  23  24
ENDBRANCH  18  23
ENDBRANCH   2  16
TORSDOF 5
ENDMDL
MODEL 3
REMARK VINA RESULT:      -8.6      2.216      2.944
REMARK  Name = 8975
REMARK  5 active torsions:
REMARK  status: ('A' for Active; 'I' for Inactive)
REMARK    1  A    between atoms: N_2  and  C1*_13
REMARK    2  A    between atoms: C2*_12  and  O2*_16
REMARK    3  A    between atoms: C3*_14  and  O3*_18
REMARK    4  A    between atoms: C4*_15  and  C5*_20
REMARK    5  A    between atoms: C5*_20  and  O5*_21
REMARK                            x       y       z     vdW  Elec       q    Type
REMARK                         _______ _______ _______ _____ _____    ______ ____
ROOT
ATOM      1  F   UNL     1      34.397 -22.357 -19.368  0.00  0.00    -0.098 F 
ATOM      2  N   UNL     1      34.599 -23.663 -14.868  0.00  0.00    -0.236 N 
ATOM      3  N   UNL     1      32.388 -23.620 -14.572  0.00  0.00    -0.240 NA
ATOM      4  N   UNL     1      34.718 -22.999 -17.202  0.00  0.00    -0.300 NA
ATOM      5  N   UNL     1      32.495 -22.603 -18.127  0.00  0.00    -0.301 NA
ATOM      6  C   UNL     1      34.063 -23.287 -16.068  0.00  0.00    +0.222 C 
ATOM      7  C   UNL     1      33.553 -23.852 -14.003  0.00  0.00    +0.224 C 
ATOM      8  C   UNL     1      32.692 -23.265 -15.863  0.00  0.00    +0.167 C 
ATOM      9  C   UNL     1      31.899 -22.907 -16.948  0.00  0.00    +0.213 C 
ATOM     10  C   UNL     1      33.847 -22.667 -18.180  0.00  0.00    +0.300 C 
ATOM     11  N   UNL     1      30.500 -22.861 -16.831  0.00  0.00    -0.331 N 
ATOM     12  H   UNL     1      29.949 -22.605 -17.606  0.00  0.00    +0.145 HD
ATOM     13  H   UNL     1      30.069 -23.084 -15.975  0.00  0.00    +0.145 HD
ENDROOT
BRANCH   2  16
ATOM     14  O4* UNL     1      36.623 -24.714 -15.523  0.00  0.00    -0.333 OA
ATOM     15  C2* UNL     1      36.281 -24.456 -13.194  0.00  0.00    +0.187 C 
ATOM     16  C1* UNL     1      36.017 -23.834 -14.556  0.00  0.00    +0.226 C 
ATOM     17  C3* UNL     1      37.649 -25.076 -13.406  0.00  0.00    +0.171 C 
ATOM     18  C4* UNL     1      37.557 -25.583 -14.841  0.00  0.00    +0.175 C 
BRANCH  15  19
ATOM     19  O2* UNL     1      36.265 -23.491 -12.162  0.00  0.00    -0.378 OA
ATOM     20  H2* UNL     1      36.884 -22.776 -12.379  0.00  0.00    +0.211 HD
ENDBRANCH  15  19
BRANCH  17  21
ATOM     21  O3* UNL     1      38.648 -24.059 -13.339  0.00  0.00    -0.379 OA
ATOM     22  H3* UNL     1      39.525 -24.458 -13.445  0.00  0.00    +0.211 HD
ENDBRANCH  17  21
BRANCH  18  23
ATOM     23  C5* UNL     1      37.039 -27.011 -14.935  0.00  0.00    +0.169 C 
BRANCH  23  24
ATOM     24  O5* UNL     1      36.777 -27.310 -16.295  0.00  0.00    -0.379 OA
ATOM     25  H5* UNL     1      37.610 -27.522 -16.746  0.00  0.00    +0.211 HD
ENDBRANCH  23  24
ENDBRANCH  18  23
ENDBRANCH   2  16
TORSDOF 5
ENDMDL
MODEL 4
REMARK VINA RESULT:      -8.6      1.994      2.323
REMARK  Name = 8975
REMARK  5 active torsions:
REMARK  status: ('A' for Active; 'I' for Inactive)
REMARK    1  A    between atoms: N_2  and  C1*_13
REMARK    2  A    between atoms: C2*_12  and  O2*_16
REMARK    3  A    between atoms: C3*_14  and  O3*_18
REMARK    4  A    between atoms: C4*_15  and  C5*_20
REMARK    5  A    between atoms: C5*_20  and  O5*_21
REMARK                            x       y       z     vdW  Elec       q    Type
REMARK                         _______ _______ _______ _____ _____    ______ ____
ROOT
ATOM      1  F   UNL     1      32.310 -23.793 -17.275  0.00  0.00    -0.098 F 
ATOM      2  N   UNL     1      36.711 -23.335 -15.720  0.00  0.00    -0.236 N 
ATOM      3  N   UNL     1      37.303 -21.871 -17.296  0.00  0.00    -0.240 NA
ATOM      4  N   UNL     1      34.397 -23.717 -16.357  0.00  0.00    -0.300 NA
ATOM      5  N   UNL     1      33.791 -22.405 -18.323  0.00  0.00    -0.301 NA
ATOM      6  C   UNL     1      35.603 -23.146 -16.499  0.00  0.00    +0.222 C 
ATOM      7  C   UNL     1      37.705 -22.547 -16.239  0.00  0.00    +0.224 C 
ATOM      8  C   UNL     1      35.992 -22.236 -17.469  0.00  0.00    +0.167 C 
ATOM      9  C   UNL     1      35.031 -21.867 -18.406  0.00  0.00    +0.213 C 
ATOM     10  C   UNL     1      33.554 -23.283 -17.319  0.00  0.00    +0.300 C 
ATOM     11  N   UNL     1      35.337 -20.948 -19.424  0.00  0.00    -0.331 N 
ATOM     12  H   UNL     1      34.649 -20.695 -20.082  0.00  0.00    +0.145 HD
ATOM     13  H   UNL     1      36.239 -20.558 -19.481  0.00  0.00    +0.145 HD
ENDROOT
BRANCH   2  16
ATOM     14  O4* UNL     1      38.047 -23.921 -13.848  0.00  0.00    -0.333 OA
ATOM     15  C2* UNL     1      36.872 -25.691 -14.893  0.00  0.00    +0.187 C 
ATOM     16  C1* UNL     1      36.825 -24.209 -14.554  0.00  0.00    +0.226 C 
ATOM     17  C3* UNL     1      37.601 -26.253 -13.688  0.00  0.00    +0.171 C 
ATOM     18  C4* UNL     1      38.627 -25.165 -13.392  0.00  0.00    +0.175 C 
BRANCH  15  19
ATOM     19  O2* UNL     1      35.578 -26.235 -15.061  0.00  0.00    -0.378 OA
ATOM     20  H2* UNL     1      35.375 -26.299 -16.008  0.00  0.00    +0.211 HD
ENDBRANCH  15  19
BRANCH  17  21
ATOM     21  O3* UNL     1      36.697 -26.346 -12.587  0.00  0.00    -0.379 OA
ATOM     22  H3* UNL     1      36.546 -25.463 -12.217  0.00  0.00    +0.211 HD
ENDBRANCH  17  21
BRANCH  18  23
ATOM     23  C5* UNL     1      39.945 -25.376 -14.124  0.00  0.00    +0.169 C 
BRANCH  23  24
ATOM     24  O5* UNL     1      40.029 -26.732 -14.525  0.00  0.00    -0.379 OA
ATOM     25  H5* UNL     1      40.005 -27.303 -13.741  0.00  0.00    +0.211 HD
ENDBRANCH  23  24
ENDBRANCH  18  23
ENDBRANCH   2  16
TORSDOF 5
ENDMDL
MODEL 5
REMARK VINA RESULT:      -8.6      7.060      9.324
REMARK  Name = 8975
REMARK  5 active torsions:
REMARK  status: ('A' for Active; 'I' for Inactive)
REMARK    1  A    between atoms: N_2  and  C1*_13
REMARK    2  A    between atoms: C2*_12  and  O2*_16
REMARK    3  A    between atoms: C3*_14  and  O3*_18
REMARK    4  A    between atoms: C4*_15  and  C5*_20
REMARK    5  A    between atoms: C5*_20  and  O5*_21
REMARK                            x       y       z     vdW  Elec       q    Type
REMARK                         _______ _______ _______ _____ _____    ______ ____
ROOT
ATOM      1  F   UNL     1      37.495 -21.758 -17.999  0.00  0.00    -0.098 F 
ATOM      2  N   UNL     1      34.273 -19.786 -20.780  0.00  0.00    -0.236 N 
ATOM      3  N   UNL     1      32.643 -21.188 -20.182  0.00  0.00    -0.240 NA
ATOM      4  N   UNL     1      36.088 -20.655 -19.416  0.00  0.00    -0.300 NA
ATOM      5  N   UNL     1      35.358 -22.561 -18.079  0.00  0.00    -0.301 NA
ATOM      6  C   UNL     1      34.825 -20.644 -19.869  0.00  0.00    +0.222 C 
ATOM      7  C   UNL     1      32.962 -20.154 -20.933  0.00  0.00    +0.224 C 
ATOM      8  C   UNL     1      33.798 -21.504 -19.512  0.00  0.00    +0.167 C 
ATOM      9  C   UNL     1      34.101 -22.492 -18.579  0.00  0.00    +0.213 C 
ATOM     10  C   UNL     1      36.260 -21.652 -18.521  0.00  0.00    +0.300 C 
ATOM     11  N   UNL     1      33.121 -23.406 -18.158  0.00  0.00    -0.331 N 
ATOM     12  H   UNL     1      33.346 -24.101 -17.498  0.00  0.00    +0.145 HD
ATOM     13  H   UNL     1      32.208 -23.352 -18.522  0.00  0.00    +0.145 HD
ENDROOT
BRANCH   2  16
ATOM     14  O4* UNL     1      34.958 -17.521 -20.618  0.00  0.00    -0.333 OA
ATOM     15  C2* UNL     1      34.272 -18.258 -22.761  0.00  0.00    +0.187 C 
ATOM     16  C1* UNL     1      34.946 -18.685 -21.466  0.00  0.00    +0.226 C 
ATOM     17  C3* UNL     1      34.735 -16.819 -22.881  0.00  0.00    +0.171 C 
ATOM     18  C4* UNL     1      34.716 -16.349 -21.431  0.00  0.00    +0.175 C 
BRANCH  15  19
ATOM     19  O2* UNL     1      34.672 -19.061 -23.853  0.00  0.00    -0.378 OA
ATOM     20  H2* UNL     1      33.886 -19.380 -24.324  0.00  0.00    +0.211 HD
ENDBRANCH  15  19
BRANCH  17  21
ATOM     21  O3* UNL     1      36.080 -16.791 -23.357  0.00  0.00    -0.379 OA
ATOM     22  H3* UNL     1      36.459 -17.682 -23.311  0.00  0.00    +0.211 HD
ENDBRANCH  17  21
BRANCH  18  23
ATOM     23  C5* UNL     1      33.380 -15.747 -21.018  0.00  0.00    +0.169 C 
BRANCH  23  24
ATOM     24  O5* UNL     1      32.811 -15.094 -22.139  0.00  0.00    -0.379 OA
ATOM     25  H5* UNL     1      31.860 -14.968 -21.991  0.00  0.00    +0.211 HD
ENDBRANCH  23  24
ENDBRANCH  18  23
ENDBRANCH   2  16
TORSDOF 5
ENDMDL
MODEL 6
REMARK VINA RESULT:      -8.5      1.685      2.078
REMARK  Name = 8975
REMARK  5 active torsions:
REMARK  status: ('A' for Active; 'I' for Inactive)
REMARK    1  A    between atoms: N_2  and  C1*_13
REMARK    2  A    between atoms: C2*_12  and  O2*_16
REMARK    3  A    between atoms: C3*_14  and  O3*_18
REMARK    4  A    between atoms: C4*_15  and  C5*_20
REMARK    5  A    between atoms: C5*_20  and  O5*_21
REMARK                            x       y       z     vdW  Elec       q    Type
REMARK                         _______ _______ _______ _____ _____    ______ ____
ROOT
ATOM      1  F   UNL     1      30.058 -24.288 -13.019  0.00  0.00    -0.098 F 
ATOM      2  N   UNL     1      34.531 -24.310 -14.432  0.00  0.00    -0.236 N 
ATOM      3  N   UNL     1      34.103 -23.321 -16.385  0.00  0.00    -0.240 NA
ATOM      4  N   UNL     1      32.283 -24.399 -13.511  0.00  0.00    -0.300 NA
ATOM      5  N   UNL     1      30.657 -23.422 -15.046  0.00  0.00    -0.301 NA
ATOM      6  C   UNL     1      33.182 -24.090 -14.459  0.00  0.00    +0.222 C 
ATOM      7  C   UNL     1      35.039 -23.831 -15.611  0.00  0.00    +0.224 C 
ATOM      8  C   UNL     1      32.938 -23.477 -15.678  0.00  0.00    +0.167 C 
ATOM      9  C   UNL     1      31.617 -23.140 -15.960  0.00  0.00    +0.213 C 
ATOM     10  C   UNL     1      31.043 -24.025 -13.896  0.00  0.00    +0.300 C 
ATOM     11  N   UNL     1      31.279 -22.513 -17.170  0.00  0.00    -0.331 N 
ATOM     12  H   UNL     1      30.341 -22.280 -17.359  0.00  0.00    +0.145 HD
ATOM     13  H   UNL     1      31.979 -22.308 -17.831  0.00  0.00    +0.145 HD
ENDROOT
BRANCH   2  16
ATOM     14  O4* UNL     1      35.450 -24.010 -12.265  0.00  0.00    -0.333 OA
ATOM     15  C2* UNL     1      36.701 -25.357 -13.757  0.00  0.00    +0.187 C 
ATOM     16  C1* UNL     1      35.295 -24.938 -13.356  0.00  0.00    +0.226 C 
ATOM     17  C3* UNL     1      37.412 -25.347 -12.418  0.00  0.00    +0.171 C 
ATOM     18  C4* UNL     1      36.785 -24.143 -11.725  0.00  0.00    +0.175 C 
BRANCH  15  19
ATOM     19  O2* UNL     1      36.715 -26.625 -14.382  0.00  0.00    -0.378 OA
ATOM     20  H2* UNL     1      35.998 -26.671 -15.034  0.00  0.00    +0.211 HD
ENDBRANCH  15  19
BRANCH  17  21
ATOM     21  O3* UNL     1      37.070 -26.527 -11.690  0.00  0.00    -0.379 OA
ATOM     22  H3* UNL     1      37.705 -26.657 -10.968  0.00  0.00    +0.211 HD
ENDBRANCH  17  21
BRANCH  18  23
ATOM     23  C5* UNL     1      37.540 -22.847 -11.987  0.00  0.00    +0.169 C 
BRANCH  23  24
ATOM     24  O5* UNL     1      38.904 -23.043 -11.663  0.00  0.00    -0.379 OA
ATOM     25  H5* UNL     1      39.461 -22.614 -12.332  0.00  0.00    +0.211 HD
ENDBRANCH  23  24
ENDBRANCH  18  23
ENDBRANCH   2  16
TORSDOF 5
ENDMDL
MODEL 7
REMARK VINA RESULT:      -8.5      2.250      3.152
REMARK  Name = 8975
REMARK  5 active torsions:
REMARK  status: ('A' for Active; 'I' for Inactive)
REMARK    1  A    between atoms: N_2  and  C1*_13
REMARK    2  A    between atoms: C2*_12  and  O2*_16
REMARK    3  A    between atoms: C3*_14  and  O3*_18
REMARK    4  A    between atoms: C4*_15  and  C5*_20
REMARK    5  A    between atoms: C5*_20  and  O5*_21
REMARK                            x       y       z     vdW  Elec       q    Type
REMARK                         _______ _______ _______ _____ _____    ______ ____
ROOT
ATOM      1  F   UNL     1      34.357 -22.505 -18.992  0.00  0.00    -0.098 F 
ATOM      2  N   UNL     1      34.070 -24.168 -14.616  0.00  0.00    -0.236 N 
ATOM      3  N   UNL     1      31.859 -23.899 -14.471  0.00  0.00    -0.240 NA
ATOM      4  N   UNL     1      34.439 -23.343 -16.872  0.00  0.00    -0.300 NA
ATOM      5  N   UNL     1      32.349 -22.631 -17.910  0.00  0.00    -0.301 NA
ATOM      6  C   UNL     1      33.671 -23.642 -15.814  0.00  0.00    +0.222 C 
ATOM      7  C   UNL     1      32.945 -24.303 -13.845  0.00  0.00    +0.224 C 
ATOM      8  C   UNL     1      32.298 -23.483 -15.702  0.00  0.00    +0.167 C 
ATOM      9  C   UNL     1      31.634 -22.955 -16.806  0.00  0.00    +0.213 C 
ATOM     10  C   UNL     1      33.687 -22.842 -17.876  0.00  0.00    +0.300 C 
ATOM     11  N   UNL     1      30.243 -22.762 -16.782  0.00  0.00    -0.331 N 
ATOM     12  H   UNL     1      29.784 -22.387 -17.568  0.00  0.00    +0.145 HD
ATOM     13  H   UNL     1      29.726 -23.000 -15.978  0.00  0.00    +0.145 HD
ENDROOT
BRANCH   2  16
ATOM     14  O4* UNL     1      36.244 -23.331 -14.167  0.00  0.00    -0.333 OA
ATOM     15  C2* UNL     1      36.131 -25.463 -15.192  0.00  0.00    +0.187 C 
ATOM     16  C1* UNL     1      35.432 -24.520 -14.224  0.00  0.00    +0.226 C 
ATOM     17  C3* UNL     1      37.589 -25.141 -14.925  0.00  0.00    +0.171 C 
ATOM     18  C4* UNL     1      37.554 -23.634 -14.699  0.00  0.00    +0.175 C 
BRANCH  15  19
ATOM     19  O2* UNL     1      35.807 -26.815 -14.938  0.00  0.00    -0.378 OA
ATOM     20  H2* UNL     1      35.524 -26.911 -14.015  0.00  0.00    +0.211 HD
ENDBRANCH  15  19
BRANCH  17  21
ATOM     21  O3* UNL     1      38.003 -25.779 -13.717  0.00  0.00    -0.379 OA
ATOM     22  H3* UNL     1      37.413 -25.517 -12.993  0.00  0.00    +0.211 HD
ENDBRANCH  17  21
BRANCH  18  23
ATOM     23  C5* UNL     1      37.748 -22.836 -15.980  0.00  0.00    +0.169 C 
BRANCH  23  24
ATOM     24  O5* UNL     1      36.819 -21.767 -15.994  0.00  0.00    -0.379 OA
ATOM     25  H5* UNL     1      36.214 -21.855 -15.241  0.00  0.00    +0.211 HD
ENDBRANCH  23  24
ENDBRANCH  18  23
ENDBRANCH   2  16
TORSDOF 5
ENDMDL
MODEL 8
REMARK VINA RESULT:      -8.3      3.128      4.626
REMARK  Name = 8975
REMARK  5 active torsions:
REMARK  status: ('A' for Active; 'I' for Inactive)
REMARK    1  A    between atoms: N_2  and  C1*_13
REMARK    2  A    between atoms: C2*_12  and  O2*_16
REMARK    3  A    between atoms: C3*_14  and  O3*_18
REMARK    4  A    between atoms: C4*_15  and  C5*_20
REMARK    5  A    between atoms: C5*_20  and  O5*_21
REMARK                            x       y       z     vdW  Elec       q    Type
REMARK                         _______ _______ _______ _____ _____    ______ ____
ROOT
ATOM      1  F   UNL     1      37.182 -20.076 -20.338  0.00  0.00    -0.098 F 
ATOM      2  N   UNL     1      34.788 -22.832 -17.394  0.00  0.00    -0.236 N 
ATOM      3  N   UNL     1      32.812 -22.443 -18.356  0.00  0.00    -0.240 NA
ATOM      4  N   UNL     1      36.213 -21.460 -18.805  0.00  0.00    -0.300 NA
ATOM      5  N   UNL     1      34.922 -20.334 -20.543  0.00  0.00    -0.301 NA
ATOM      6  C   UNL     1      35.032 -21.973 -18.430  0.00  0.00    +0.222 C 
ATOM      7  C   UNL     1      33.441 -23.084 -17.392  0.00  0.00    +0.224 C 
ATOM      8  C   UNL     1      33.795 -21.745 -19.012  0.00  0.00    +0.167 C 
ATOM      9  C   UNL     1      33.764 -20.889 -20.109  0.00  0.00    +0.213 C 
ATOM     10  C   UNL     1      36.057 -20.649 -19.874  0.00  0.00    +0.300 C 
ATOM     11  N   UNL     1      32.554 -20.602 -20.762  0.00  0.00    -0.331 N 
ATOM     12  H   UNL     1      32.545 -19.995 -21.537  0.00  0.00    +0.145 HD
ATOM     13  H   UNL     1      31.715 -21.008 -20.446  0.00  0.00    +0.145 HD
ENDROOT
BRANCH   2  16
ATOM     14  O4* UNL     1      35.192 -24.493 -15.749  0.00  0.00    -0.333 OA
ATOM     15  C2* UNL     1      36.235 -22.396 -15.400  0.00  0.00    +0.187 C 
ATOM     16  C1* UNL     1      35.769 -23.382 -16.461  0.00  0.00    +0.226 C 
ATOM     17  C3* UNL     1      36.671 -23.332 -14.290  0.00  0.00    +0.171 C 
ATOM     18  C4* UNL     1      35.628 -24.441 -14.371  0.00  0.00    +0.175 C 
BRANCH  15  19
ATOM     19  O2* UNL     1      37.280 -21.570 -15.871  0.00  0.00    -0.378 OA
ATOM     20  H2* UNL     1      38.112 -22.069 -15.868  0.00  0.00    +0.211 HD
ENDBRANCH  15  19
BRANCH  17  21
ATOM     21  O3* UNL     1      37.951 -23.880 -14.605  0.00  0.00    -0.379 OA
ATOM     22  H3* UNL     1      38.173 -24.573 -13.965  0.00  0.00    +0.211 HD
ENDBRANCH  17  21
BRANCH  18  23
ATOM     23  C5* UNL     1      34.412 -24.178 -13.493  0.00  0.00    +0.169 C 
BRANCH  23  24
ATOM     24  O5* UNL     1      34.572 -24.880 -12.274  0.00  0.00    -0.379 OA
ATOM     25  H5* UNL     1      35.181 -24.392 -11.697  0.00  0.00    +0.211 HD
ENDBRANCH  23  24
ENDBRANCH  18  23
ENDBRANCH   2  16
TORSDOF 5
ENDMDL
MODEL 9
REMARK VINA RESULT:      -8.3      2.553      3.270
REMARK  Name = 8975
REMARK  5 active torsions:
REMARK  status: ('A' for Active; 'I' for Inactive)
REMARK    1  A    between atoms: N_2  and  C1*_13
REMARK    2  A    between atoms: C2*_12  and  O2*_16
REMARK    3  A    between atoms: C3*_14  and  O3*_18
REMARK    4  A    between atoms: C4*_15  and  C5*_20
REMARK    5  A    between atoms: C5*_20  and  O5*_21
REMARK                            x       y       z     vdW  Elec       q    Type
REMARK                         _______ _______ _______ _____ _____    ______ ____
ROOT
ATOM      1  F   UNL     1      37.244 -21.078 -19.407  0.00  0.00    -0.098 F 
ATOM      2  N   UNL     1      35.544 -23.339 -15.665  0.00  0.00    -0.236 N 
ATOM      3  N   UNL     1      33.460 -23.442 -16.455  0.00  0.00    -0.240 NA
ATOM      4  N   UNL     1      36.625 -22.170 -17.502  0.00  0.00    -0.300 NA
ATOM      5  N   UNL     1      35.039 -21.661 -19.285  0.00  0.00    -0.301 NA
ATOM      6  C   UNL     1      35.570 -22.726 -16.887  0.00  0.00    +0.222 C 
ATOM      7  C   UNL     1      34.255 -23.752 -15.451  0.00  0.00    +0.224 C 
ATOM      8  C   UNL     1      34.268 -22.800 -17.359  0.00  0.00    +0.167 C 
ATOM      9  C   UNL     1      34.018 -22.239 -18.608  0.00  0.00    +0.213 C 
ATOM     10  C   UNL     1      36.261 -21.662 -18.700  0.00  0.00    +0.300 C 
ATOM     11  N   UNL     1      32.729 -22.271 -19.164  0.00  0.00    -0.331 N 
ATOM     12  H   UNL     1      32.563 -21.871 -20.048  0.00  0.00    +0.145 HD
ATOM     13  H   UNL     1      31.989 -22.693 -18.670  0.00  0.00    +0.145 HD
ENDROOT
BRANCH   2  16
ATOM     14  O4* UNL     1      37.604 -24.464 -15.319  0.00  0.00    -0.333 OA
ATOM     15  C2* UNL     1      36.282 -24.079 -13.392  0.00  0.00    +0.187 C 
ATOM     16  C1* UNL     1      36.671 -23.523 -14.754  0.00  0.00    +0.226 C 
ATOM     17  C3* UNL     1      37.576 -24.737 -12.955  0.00  0.00    +0.171 C 
ATOM     18  C4* UNL     1      38.105 -25.316 -14.263  0.00  0.00    +0.175 C 
BRANCH  15  19
ATOM     19  O2* UNL     1      35.853 -23.061 -12.510  0.00  0.00    -0.378 OA
ATOM     20  H2* UNL     1      34.909 -23.177 -12.319  0.00  0.00    +0.211 HD
ENDBRANCH  15  19
BRANCH  17  21
ATOM     21  O3* UNL     1      38.485 -23.739 -12.492  0.00  0.00    -0.379 OA
ATOM     22  H3* UNL     1      39.098 -23.502 -13.206  0.00  0.00    +0.211 HD
ENDBRANCH  17  21
BRANCH  18  23
ATOM     23  C5* UNL     1      37.623 -26.736 -14.523  0.00  0.00    +0.169 C 
BRANCH  23  24
ATOM     24  O5* UNL     1      37.239 -26.843 -15.882  0.00  0.00    -0.379 OA
ATOM     25  H5* UNL     1      36.644 -27.602 -15.991  0.00  0.00    +0.211 HD
ENDBRANCH  23  24
ENDBRANCH  18  23
ENDBRANCH   2  16
TORSDOF 5
ENDMDL
