MODEL 1
REMARK VINA RESULT:     -10.1      0.000      0.000
REMARK  Name = 71743
REMARK  4 active torsions:
REMARK  status: ('A' for Active; 'I' for Inactive)
REMARK    1  A    between atoms: C_10  and  C_15
REMARK    2  A    between atoms: C_11  and  O_16
REMARK    3  A    between atoms: O_16  and  C_18
REMARK    4  A    between atoms: C_18  and  C_20
REMARK                            x       y       z     vdW  Elec       q    Type
REMARK                         _______ _______ _______ _____ _____    ______ ____
ROOT
ATOM      1  O   UNL     1      33.504 -16.917 -21.131  0.00  0.00    -0.272 OA
ATOM      2  N   UNL     1      35.189 -18.537 -21.414  0.00  0.00    -0.257 N 
ATOM      3  C   UNL     1      37.421 -19.294 -20.628  0.00  0.00    +0.027 C 
ATOM      4  C   UNL     1      36.899 -20.691 -20.354  0.00  0.00    +0.029 C 
ATOM      5  C   UNL     1      36.618 -18.667 -21.754  0.00  0.00    +0.099 C 
ATOM      6  C   UNL     1      35.401 -20.694 -20.203  0.00  0.00    -0.005 C 
ATOM      7  C   UNL     1      34.588 -19.659 -20.722  0.00  0.00    +0.050 C 
ATOM      8  C   UNL     1      34.818 -21.798 -19.554  0.00  0.00    +0.035 C 
ATOM      9  C   UNL     1      33.195 -19.789 -20.573  0.00  0.00    +0.018 C 
ATOM     10  C   UNL     1      34.464 -17.378 -21.753  0.00  0.00    +0.260 C 
ATOM     11  C   UNL     1      33.439 -21.890 -19.403  0.00  0.00    +0.149 C 
ATOM     12  C   UNL     1      32.629 -20.886 -19.916  0.00  0.00    +0.039 C 
ENDROOT
BRANCH  10  15
ATOM     13 CL   UNL     1      34.467 -17.577 -24.392  0.00  0.00    -0.087 Cl
ATOM     14 CL   UNL     1      34.184 -15.048 -22.974  0.00  0.00    -0.087 Cl
ATOM     15  C   UNL     1      34.937 -16.637 -22.983  0.00  0.00    +0.234 C 
ENDBRANCH  10  15
BRANCH  11  16
ATOM     16  O   UNL     1      32.888 -22.959 -18.770  0.00  0.00    -0.419 OA
BRANCH  16  18
ATOM     17  O   UNL     1      34.392 -23.276 -17.030  0.00  0.00    -0.241 OA
ATOM     18  C   UNL     1      33.238 -23.099 -17.410  0.00  0.00    +0.381 C 
BRANCH  18  20
ATOM     19  O   UNL     1      30.915 -22.661 -17.112  0.00  0.00    -0.444 OA
ATOM     20  C   UNL     1      32.071 -23.007 -16.531  0.00  0.00    +0.221 C 
ATOM     21  C   UNL     1      31.963 -23.217 -15.204  0.00  0.00    +0.047 C 
ATOM     22  C   UNL     1      30.599 -22.981 -14.910  0.00  0.00    +0.044 C 
ATOM     23  C   UNL     1      30.004 -22.646 -16.104  0.00  0.00    +0.180 C 
ENDBRANCH  18  20
ENDBRANCH  16  18
ENDBRANCH  11  16
TORSDOF 4
ENDMDL
MODEL 2
REMARK VINA RESULT:      -9.9      2.590      4.280
REMARK  Name = 71743
REMARK  4 active torsions:
REMARK  status: ('A' for Active; 'I' for Inactive)
REMARK    1  A    between atoms: C_10  and  C_15
REMARK    2  A    between atoms: C_11  and  O_16
REMARK    3  A    between atoms: O_16  and  C_18
REMARK    4  A    between atoms: C_18  and  C_20
REMARK                            x       y       z     vdW  Elec       q    Type
REMARK                         _______ _______ _______ _____ _____    ______ ____
ROOT
ATOM      1  O   UNL     1      34.511 -14.360 -21.430  0.00  0.00    -0.272 OA
ATOM      2  N   UNL     1      33.970 -15.719 -23.274  0.00  0.00    -0.257 N 
ATOM      3  C   UNL     1      34.706 -16.457 -25.529  0.00  0.00    +0.027 C 
ATOM      4  C   UNL     1      34.607 -17.916 -25.133  0.00  0.00    +0.029 C 
ATOM      5  C   UNL     1      33.708 -15.645 -24.723  0.00  0.00    +0.099 C 
ATOM      6  C   UNL     1      34.649 -18.079 -23.636  0.00  0.00    -0.005 C 
ATOM      7  C   UNL     1      34.335 -17.020 -22.752  0.00  0.00    +0.050 C 
ATOM      8  C   UNL     1      34.978 -19.352 -23.133  0.00  0.00    +0.035 C 
ATOM      9  C   UNL     1      34.353 -17.297 -21.373  0.00  0.00    +0.018 C 
ATOM     10  C   UNL     1      33.865 -14.577 -22.457  0.00  0.00    +0.260 C 
ATOM     11  C   UNL     1      35.008 -19.591 -21.764  0.00  0.00    +0.149 C 
ATOM     12  C   UNL     1      34.692 -18.564 -20.886  0.00  0.00    +0.039 C 
ENDROOT
BRANCH  10  15
ATOM     13 CL   UNL     1      32.076 -12.885 -21.486  0.00  0.00    -0.087 Cl
ATOM     14 CL   UNL     1      33.782 -12.281 -23.769  0.00  0.00    -0.087 Cl
ATOM     15  C   UNL     1      32.880 -13.524 -22.913  0.00  0.00    +0.234 C 
ENDBRANCH  10  15
BRANCH  11  16
ATOM     16  O   UNL     1      35.331 -20.823 -21.290  0.00  0.00    -0.419 OA
BRANCH  16  18
ATOM     17  O   UNL     1      36.745 -20.286 -19.528  0.00  0.00    -0.241 OA
ATOM     18  C   UNL     1      35.741 -20.859 -19.940  0.00  0.00    +0.381 C 
BRANCH  18  20
ATOM     19  O   UNL     1      35.384 -22.322 -18.092  0.00  0.00    -0.444 OA
ATOM     20  C   UNL     1      34.830 -21.652 -19.111  0.00  0.00    +0.221 C 
ATOM     21  C   UNL     1      33.496 -21.825 -19.204  0.00  0.00    +0.047 C 
ATOM     22  C   UNL     1      33.168 -22.693 -18.136  0.00  0.00    +0.044 C 
ATOM     23  C   UNL     1      34.351 -22.966 -17.489  0.00  0.00    +0.180 C 
ENDBRANCH  18  20
ENDBRANCH  16  18
ENDBRANCH  11  16
TORSDOF 4
ENDMDL
MODEL 3
REMARK VINA RESULT:      -9.9      1.211      1.810
REMARK  Name = 71743
REMARK  4 active torsions:
REMARK  status: ('A' for Active; 'I' for Inactive)
REMARK    1  A    between atoms: C_10  and  C_15
REMARK    2  A    between atoms: C_11  and  O_16
REMARK    3  A    between atoms: O_16  and  C_18
REMARK    4  A    between atoms: C_18  and  C_20
REMARK                            x       y       z     vdW  Elec       q    Type
REMARK                         _______ _______ _______ _____ _____    ______ ____
ROOT
ATOM      1  O   UNL     1      33.621 -16.550 -21.810  0.00  0.00    -0.272 OA
ATOM      2  N   UNL     1      35.185 -18.307 -21.905  0.00  0.00    -0.257 N 
ATOM      3  C   UNL     1      37.381 -19.110 -21.063  0.00  0.00    +0.027 C 
ATOM      4  C   UNL     1      36.774 -20.419 -20.599  0.00  0.00    +0.029 C 
ATOM      5  C   UNL     1      36.593 -18.580 -22.249  0.00  0.00    +0.099 C 
ATOM      6  C   UNL     1      35.283 -20.297 -20.424  0.00  0.00    -0.005 C 
ATOM      7  C   UNL     1      34.528 -19.284 -21.061  0.00  0.00    +0.050 C 
ATOM      8  C   UNL     1      34.644 -21.264 -19.626  0.00  0.00    +0.035 C 
ATOM      9  C   UNL     1      33.134 -19.296 -20.873  0.00  0.00    +0.018 C 
ATOM     10  C   UNL     1      34.532 -17.154 -22.381  0.00  0.00    +0.260 C 
ATOM     11  C   UNL     1      33.267 -21.239 -19.441  0.00  0.00    +0.149 C 
ATOM     12  C   UNL     1      32.513 -20.256 -20.068  0.00  0.00    +0.039 C 
ENDROOT
BRANCH  10  15
ATOM     13 CL   UNL     1      34.502 -17.726 -24.965  0.00  0.00    -0.087 Cl
ATOM     14 CL   UNL     1      34.331 -15.012 -23.920  0.00  0.00    -0.087 Cl
ATOM     15  C   UNL     1      35.021 -16.614 -23.706  0.00  0.00    +0.234 C 
ENDBRANCH  10  15
BRANCH  11  16
ATOM     16  O   UNL     1      32.661 -22.175 -18.664  0.00  0.00    -0.419 OA
BRANCH  16  18
ATOM     17  O   UNL     1      33.805 -24.136 -19.150  0.00  0.00    -0.241 OA
ATOM     18  C   UNL     1      33.461 -23.289 -18.331  0.00  0.00    +0.381 C 
BRANCH  18  20
ATOM     19  O   UNL     1      35.120 -23.154 -16.625  0.00  0.00    -0.444 OA
ATOM     20  C   UNL     1      33.820 -23.302 -16.912  0.00  0.00    +0.221 C 
ATOM     21  C   UNL     1      33.043 -23.440 -15.818  0.00  0.00    +0.047 C 
ATOM     22  C   UNL     1      33.940 -23.374 -14.726  0.00  0.00    +0.044 C 
ATOM     23  C   UNL     1      35.191 -23.199 -15.269  0.00  0.00    +0.180 C 
ENDBRANCH  18  20
ENDBRANCH  16  18
ENDBRANCH  11  16
TORSDOF 4
ENDMDL
MODEL 4
REMARK VINA RESULT:      -9.6      4.381      7.673
REMARK  Name = 71743
REMARK  4 active torsions:
REMARK  status: ('A' for Active; 'I' for Inactive)
REMARK    1  A    between atoms: C_10  and  C_15
REMARK    2  A    between atoms: C_11  and  O_16
REMARK    3  A    between atoms: O_16  and  C_18
REMARK    4  A    between atoms: C_18  and  C_20
REMARK                            x       y       z     vdW  Elec       q    Type
REMARK                         _______ _______ _______ _____ _____    ______ ____
ROOT
ATOM      1  O   UNL     1      32.422 -23.864 -17.025  0.00  0.00    -0.272 OA
ATOM      2  N   UNL     1      34.418 -22.766 -16.434  0.00  0.00    -0.257 N 
ATOM      3  C   UNL     1      36.834 -23.084 -15.946  0.00  0.00    +0.027 C 
ATOM      4  C   UNL     1      37.224 -22.046 -16.981  0.00  0.00    +0.029 C 
ATOM      5  C   UNL     1      35.460 -22.751 -15.391  0.00  0.00    +0.099 C 
ATOM      6  C   UNL     1      36.120 -21.832 -17.982  0.00  0.00    -0.005 C 
ATOM      7  C   UNL     1      34.775 -22.174 -17.707  0.00  0.00    +0.050 C 
ATOM      8  C   UNL     1      36.464 -21.231 -19.207  0.00  0.00    +0.035 C 
ATOM      9  C   UNL     1      33.815 -21.880 -18.692  0.00  0.00    +0.018 C 
ATOM     10  C   UNL     1      33.152 -23.329 -16.187  0.00  0.00    +0.260 C 
ATOM     11  C   UNL     1      35.497 -20.972 -20.171  0.00  0.00    +0.149 C 
ATOM     12  C   UNL     1      34.172 -21.294 -19.911  0.00  0.00    +0.039 C 
ENDROOT
BRANCH  10  15
ATOM     13 CL   UNL     1      31.029 -22.658 -14.756  0.00  0.00    -0.087 Cl
ATOM     14 CL   UNL     1      32.754 -24.914 -14.106  0.00  0.00    -0.087 Cl
ATOM     15  C   UNL     1      32.673 -23.281 -14.754  0.00  0.00    +0.234 C 
ENDBRANCH  10  15
BRANCH  11  16
ATOM     16  O   UNL     1      35.843 -20.396 -21.352  0.00  0.00    -0.419 OA
BRANCH  16  18
ATOM     17  O   UNL     1      35.769 -18.244 -20.482  0.00  0.00    -0.241 OA
ATOM     18  C   UNL     1      35.616 -19.005 -21.433  0.00  0.00    +0.381 C 
BRANCH  18  20
ATOM     19  O   UNL     1      35.070 -17.279 -22.983  0.00  0.00    -0.444 OA
ATOM     20  C   UNL     1      35.185 -18.597 -22.771  0.00  0.00    +0.221 C 
ATOM     21  C   UNL     1      34.876 -19.342 -23.852  0.00  0.00    +0.047 C 
ATOM     22  C   UNL     1      34.530 -18.404 -24.852  0.00  0.00    +0.044 C 
ATOM     23  C   UNL     1      34.665 -17.163 -24.275  0.00  0.00    +0.180 C 
ENDBRANCH  18  20
ENDBRANCH  16  18
ENDBRANCH  11  16
TORSDOF 4
ENDMDL
MODEL 5
REMARK VINA RESULT:      -9.5      5.596      9.851
REMARK  Name = 71743
REMARK  4 active torsions:
REMARK  status: ('A' for Active; 'I' for Inactive)
REMARK    1  A    between atoms: C_10  and  C_15
REMARK    2  A    between atoms: C_11  and  O_16
REMARK    3  A    between atoms: O_16  and  C_18
REMARK    4  A    between atoms: C_18  and  C_20
REMARK                            x       y       z     vdW  Elec       q    Type
REMARK                         _______ _______ _______ _____ _____    ______ ____
ROOT
ATOM      1  O   UNL     1      33.591 -17.425 -21.177  0.00  0.00    -0.272 OA
ATOM      2  N   UNL     1      34.044 -15.832 -22.849  0.00  0.00    -0.257 N 
ATOM      3  C   UNL     1      33.537 -15.146 -25.183  0.00  0.00    +0.027 C 
ATOM      4  C   UNL     1      33.154 -13.750 -24.737  0.00  0.00    +0.029 C 
ATOM      5  C   UNL     1      34.566 -15.720 -24.224  0.00  0.00    +0.099 C 
ATOM      6  C   UNL     1      32.807 -13.721 -23.271  0.00  0.00    -0.005 C 
ATOM      7  C   UNL     1      33.245 -14.721 -22.372  0.00  0.00    +0.050 C 
ATOM      8  C   UNL     1      32.054 -12.627 -22.806  0.00  0.00    +0.035 C 
ATOM      9  C   UNL     1      32.910 -14.568 -21.015  0.00  0.00    +0.018 C 
ATOM     10  C   UNL     1      34.320 -16.963 -22.058  0.00  0.00    +0.260 C 
ATOM     11  C   UNL     1      31.720 -12.512 -21.462  0.00  0.00    +0.149 C 
ATOM     12  C   UNL     1      32.151 -13.481 -20.567  0.00  0.00    +0.039 C 
ENDROOT
BRANCH  10  15
ATOM     13 CL   UNL     1      36.118 -18.508 -20.881  0.00  0.00    -0.087 Cl
ATOM     14 CL   UNL     1      35.342 -18.791 -23.675  0.00  0.00    -0.087 Cl
ATOM     15  C   UNL     1      35.623 -17.673 -22.347  0.00  0.00    +0.234 C 
ENDBRANCH  10  15
BRANCH  11  16
ATOM     16  O   UNL     1      30.988 -11.454 -21.025  0.00  0.00    -0.419 OA
BRANCH  16  18
ATOM     17  O   UNL     1      31.672 -11.106 -18.833  0.00  0.00    -0.241 OA
ATOM     18  C   UNL     1      31.579 -10.700 -19.988  0.00  0.00    +0.381 C 
BRANCH  18  20
ATOM     19  O   UNL     1      32.290  -8.474 -19.520  0.00  0.00    -0.444 OA
ATOM     20  C   UNL     1      32.058  -9.400 -20.460  0.00  0.00    +0.221 C 
ATOM     21  C   UNL     1      32.312  -8.968 -21.712  0.00  0.00    +0.047 C 
ATOM     22  C   UNL     1      32.749  -7.631 -21.552  0.00  0.00    +0.044 C 
ATOM     23  C   UNL     1      32.719  -7.379 -20.200  0.00  0.00    +0.180 C 
ENDBRANCH  18  20
ENDBRANCH  16  18
ENDBRANCH  11  16
TORSDOF 4
ENDMDL
MODEL 6
REMARK VINA RESULT:      -9.5      7.193     10.040
REMARK  Name = 71743
REMARK  4 active torsions:
REMARK  status: ('A' for Active; 'I' for Inactive)
REMARK    1  A    between atoms: C_10  and  C_15
REMARK    2  A    between atoms: C_11  and  O_16
REMARK    3  A    between atoms: O_16  and  C_18
REMARK    4  A    between atoms: C_18  and  C_20
REMARK                            x       y       z     vdW  Elec       q    Type
REMARK                         _______ _______ _______ _____ _____    ______ ____
ROOT
ATOM      1  O   UNL     1      32.164  -8.530 -20.823  0.00  0.00    -0.272 OA
ATOM      2  N   UNL     1      32.955  -9.044 -22.979  0.00  0.00    -0.257 N 
ATOM      3  C   UNL     1      34.984  -9.211 -24.404  0.00  0.00    +0.027 C 
ATOM      4  C   UNL     1      34.647 -10.636 -24.793  0.00  0.00    +0.029 C 
ATOM      5  C   UNL     1      33.703  -8.452 -24.104  0.00  0.00    +0.099 C 
ATOM      6  C   UNL     1      33.701 -11.263 -23.803  0.00  0.00    -0.005 C 
ATOM      7  C   UNL     1      32.888 -10.490 -22.941  0.00  0.00    +0.050 C 
ATOM      8  C   UNL     1      33.618 -12.668 -23.788  0.00  0.00    +0.035 C 
ATOM      9  C   UNL     1      32.001 -11.178 -22.094  0.00  0.00    +0.018 C 
ATOM     10  C   UNL     1      32.345  -8.230 -22.005  0.00  0.00    +0.260 C 
ATOM     11  C   UNL     1      32.747 -13.321 -22.925  0.00  0.00    +0.149 C 
ATOM     12  C   UNL     1      31.936 -12.575 -22.081  0.00  0.00    +0.039 C 
ENDROOT
BRANCH  10  15
ATOM     13 CL   UNL     1      30.586  -7.084 -23.617  0.00  0.00    -0.087 Cl
ATOM     14 CL   UNL     1      31.385  -5.957 -21.052  0.00  0.00    -0.087 Cl
ATOM     15  C   UNL     1      31.900  -6.862 -22.469  0.00  0.00    +0.234 C 
ENDBRANCH  10  15
BRANCH  11  16
ATOM     16  O   UNL     1      32.679 -14.679 -22.915  0.00  0.00    -0.419 OA
BRANCH  16  18
ATOM     17  O   UNL     1      34.487 -15.049 -21.505  0.00  0.00    -0.241 OA
ATOM     18  C   UNL     1      33.864 -15.338 -22.524  0.00  0.00    +0.381 C 
BRANCH  18  20
ATOM     19  O   UNL     1      34.664 -17.544 -22.937  0.00  0.00    -0.444 OA
ATOM     20  C   UNL     1      34.246 -16.388 -23.469  0.00  0.00    +0.221 C 
ATOM     21  C   UNL     1      34.247 -16.387 -24.818  0.00  0.00    +0.047 C 
ATOM     22  C   UNL     1      34.713 -17.673 -25.180  0.00  0.00    +0.044 C 
ATOM     23  C   UNL     1      34.953 -18.339 -24.001  0.00  0.00    +0.180 C 
ENDBRANCH  18  20
ENDBRANCH  16  18
ENDBRANCH  11  16
TORSDOF 4
ENDMDL
MODEL 7
REMARK VINA RESULT:      -9.4      4.484      9.702
REMARK  Name = 71743
REMARK  4 active torsions:
REMARK  status: ('A' for Active; 'I' for Inactive)
REMARK    1  A    between atoms: C_10  and  C_15
REMARK    2  A    between atoms: C_11  and  O_16
REMARK    3  A    between atoms: O_16  and  C_18
REMARK    4  A    between atoms: C_18  and  C_20
REMARK                            x       y       z     vdW  Elec       q    Type
REMARK                         _______ _______ _______ _____ _____    ______ ____
ROOT
ATOM      1  O   UNL     1      33.379 -18.679 -20.634  0.00  0.00    -0.272 OA
ATOM      2  N   UNL     1      34.553 -18.089 -22.587  0.00  0.00    -0.257 N 
ATOM      3  C   UNL     1      34.563 -18.246 -25.067  0.00  0.00    +0.027 C 
ATOM      4  C   UNL     1      34.690 -16.742 -25.205  0.00  0.00    +0.029 C 
ATOM      5  C   UNL     1      35.207 -18.690 -23.764  0.00  0.00    +0.099 C 
ATOM      6  C   UNL     1      34.241 -16.039 -23.951  0.00  0.00    -0.005 C 
ATOM      7  C   UNL     1      34.185 -16.692 -22.698  0.00  0.00    +0.050 C 
ATOM      8  C   UNL     1      33.911 -14.674 -24.057  0.00  0.00    +0.035 C 
ATOM      9  C   UNL     1      33.805 -15.926 -21.581  0.00  0.00    +0.018 C 
ATOM     10  C   UNL     1      34.308 -18.848 -21.427  0.00  0.00    +0.260 C 
ATOM     11  C   UNL     1      33.518 -13.948 -22.940  0.00  0.00    +0.149 C 
ATOM     12  C   UNL     1      33.468 -14.574 -21.702  0.00  0.00    +0.039 C 
ENDROOT
BRANCH  10  15
ATOM     13 CL   UNL     1      36.810 -19.278 -20.677  0.00  0.00    -0.087 Cl
ATOM     14 CL   UNL     1      34.584 -20.985 -19.892  0.00  0.00    -0.087 Cl
ATOM     15  C   UNL     1      35.273 -19.982 -21.160  0.00  0.00    +0.234 C 
ENDBRANCH  10  15
BRANCH  11  16
ATOM     16  O   UNL     1      33.196 -12.632 -23.055  0.00  0.00    -0.419 OA
BRANCH  16  18
ATOM     17  O   UNL     1      33.706 -12.604 -25.320  0.00  0.00    -0.241 OA
ATOM     18  C   UNL     1      33.623 -12.011 -24.248  0.00  0.00    +0.381 C 
BRANCH  18  20
ATOM     19  O   UNL     1      33.121  -9.908 -23.246  0.00  0.00    -0.444 OA
ATOM     20  C   UNL     1      33.946 -10.598 -24.046  0.00  0.00    +0.221 C 
ATOM     21  C   UNL     1      34.957  -9.856 -24.540  0.00  0.00    +0.047 C 
ATOM     22  C   UNL     1      34.756  -8.563 -24.001  0.00  0.00    +0.044 C 
ATOM     23  C   UNL     1      33.627  -8.647 -23.220  0.00  0.00    +0.180 C 
ENDBRANCH  18  20
ENDBRANCH  16  18
ENDBRANCH  11  16
TORSDOF 4
ENDMDL
MODEL 8
REMARK VINA RESULT:      -9.4      4.138      8.464
REMARK  Name = 71743
REMARK  4 active torsions:
REMARK  status: ('A' for Active; 'I' for Inactive)
REMARK    1  A    between atoms: C_10  and  C_15
REMARK    2  A    between atoms: C_11  and  O_16
REMARK    3  A    between atoms: O_16  and  C_18
REMARK    4  A    between atoms: C_18  and  C_20
REMARK                            x       y       z     vdW  Elec       q    Type
REMARK                         _______ _______ _______ _____ _____    ______ ____
ROOT
ATOM      1  O   UNL     1      33.195 -19.262 -20.313  0.00  0.00    -0.272 OA
ATOM      2  N   UNL     1      34.523 -18.860 -22.214  0.00  0.00    -0.257 N 
ATOM      3  C   UNL     1      34.613 -19.029 -24.692  0.00  0.00    +0.027 C 
ATOM      4  C   UNL     1      34.965 -17.560 -24.823  0.00  0.00    +0.029 C 
ATOM      5  C   UNL     1      35.130 -19.556 -23.365  0.00  0.00    +0.099 C 
ATOM      6  C   UNL     1      34.573 -16.793 -23.588  0.00  0.00    -0.005 C 
ATOM      7  C   UNL     1      34.370 -17.425 -22.338  0.00  0.00    +0.050 C 
ATOM      8  C   UNL     1      34.451 -15.396 -23.705  0.00  0.00    +0.035 C 
ATOM      9  C   UNL     1      34.060 -16.606 -21.238  0.00  0.00    +0.018 C 
ATOM     10  C   UNL     1      34.122 -19.570 -21.066  0.00  0.00    +0.260 C 
ATOM     11  C   UNL     1      34.123 -14.614 -22.604  0.00  0.00    +0.149 C 
ATOM     12  C   UNL     1      33.931 -15.220 -21.371  0.00  0.00    +0.039 C 
ENDROOT
BRANCH  10  15
ATOM     13 CL   UNL     1      36.478 -20.358 -20.155  0.00  0.00    -0.087 Cl
ATOM     14 CL   UNL     1      33.985 -21.747 -19.569  0.00  0.00    -0.087 Cl
ATOM     15  C   UNL     1      34.897 -20.831 -20.762  0.00  0.00    +0.234 C 
ENDBRANCH  10  15
BRANCH  11  16
ATOM     16  O   UNL     1      34.004 -13.266 -22.731  0.00  0.00    -0.419 OA
BRANCH  16  18
ATOM     17  O   UNL     1      32.163 -13.141 -24.141  0.00  0.00    -0.241 OA
ATOM     18  C   UNL     1      32.721 -12.807 -23.100  0.00  0.00    +0.381 C 
BRANCH  18  20
ATOM     19  O   UNL     1      32.121 -10.602 -22.424  0.00  0.00    -0.444 OA
ATOM     20  C   UNL     1      32.154 -11.901 -22.099  0.00  0.00    +0.221 C 
ATOM     21  C   UNL     1      31.648 -12.161 -20.877  0.00  0.00    +0.047 C 
ATOM     22  C   UNL     1      31.253 -10.899 -20.373  0.00  0.00    +0.044 C 
ATOM     23  C   UNL     1      31.561  -9.984 -21.352  0.00  0.00    +0.180 C 
ENDBRANCH  18  20
ENDBRANCH  16  18
ENDBRANCH  11  16
TORSDOF 4
ENDMDL
MODEL 9
REMARK VINA RESULT:      -9.2      4.056      9.257
REMARK  Name = 71743
REMARK  4 active torsions:
REMARK  status: ('A' for Active; 'I' for Inactive)
REMARK    1  A    between atoms: C_10  and  C_15
REMARK    2  A    between atoms: C_11  and  O_16
REMARK    3  A    between atoms: O_16  and  C_18
REMARK    4  A    between atoms: C_18  and  C_20
REMARK                            x       y       z     vdW  Elec       q    Type
REMARK                         _______ _______ _______ _____ _____    ______ ____
ROOT
ATOM      1  O   UNL     1      32.929 -19.278 -20.360  0.00  0.00    -0.272 OA
ATOM      2  N   UNL     1      34.402 -18.781 -22.127  0.00  0.00    -0.257 N 
ATOM      3  C   UNL     1      34.673 -18.785 -24.597  0.00  0.00    +0.027 C 
ATOM      4  C   UNL     1      35.061 -17.320 -24.601  0.00  0.00    +0.029 C 
ATOM      5  C   UNL     1      35.079 -19.412 -23.275  0.00  0.00    +0.099 C 
ATOM      6  C   UNL     1      34.593 -16.628 -23.348  0.00  0.00    -0.005 C 
ATOM      7  C   UNL     1      34.285 -17.338 -22.163  0.00  0.00    +0.050 C 
ATOM      8  C   UNL     1      34.507 -15.223 -23.378  0.00  0.00    +0.035 C 
ATOM      9  C   UNL     1      33.909 -16.587 -21.035  0.00  0.00    +0.018 C 
ATOM     10  C   UNL     1      33.903 -19.556 -21.063  0.00  0.00    +0.260 C 
ATOM     11  C   UNL     1      34.112 -14.510 -22.253  0.00  0.00    +0.149 C 
ATOM     12  C   UNL     1      33.817 -15.193 -21.081  0.00  0.00    +0.039 C 
ENDROOT
BRANCH  10  15
ATOM     13 CL   UNL     1      36.222 -20.456 -20.159  0.00  0.00    -0.087 Cl
ATOM     14 CL   UNL     1      33.675 -21.769 -19.631  0.00  0.00    -0.087 Cl
ATOM     15  C   UNL     1      34.629 -20.853 -20.790  0.00  0.00    +0.234 C 
ENDBRANCH  10  15
BRANCH  11  16
ATOM     16  O   UNL     1      34.028 -13.154 -22.295  0.00  0.00    -0.419 OA
BRANCH  16  18
ATOM     17  O   UNL     1      31.979 -12.921 -23.362  0.00  0.00    -0.241 OA
ATOM     18  C   UNL     1      33.170 -12.635 -23.288  0.00  0.00    +0.381 C 
BRANCH  18  20
ATOM     19  O   UNL     1      34.249 -10.548 -23.692  0.00  0.00    -0.444 OA
ATOM     20  C   UNL     1      33.871 -11.729 -24.200  0.00  0.00    +0.221 C 
ATOM     21  C   UNL     1      34.209 -11.887 -25.496  0.00  0.00    +0.047 C 
ATOM     22  C   UNL     1      34.868 -10.686 -25.847  0.00  0.00    +0.044 C 
ATOM     23  C   UNL     1      34.867  -9.904 -24.716  0.00  0.00    +0.180 C 
ENDBRANCH  18  20
ENDBRANCH  16  18
ENDBRANCH  11  16
TORSDOF 4
ENDMDL
