MODEL 1
REMARK VINA RESULT:      -8.4      0.000      0.000
REMARK  Name = 16122582
REMARK  7 active torsions:
REMARK  status: ('A' for Active; 'I' for Inactive)
REMARK    1  A    between atoms: C_1  and  C_13
REMARK    2  A    between atoms: C_2  and  S_7
REMARK    3  A    between atoms: S_7  and  N_10
REMARK    4  A    between atoms: C_13  and  C_14
REMARK    5  A    between atoms: C_14  and  C_16
REMARK    6  A    between atoms: C_16  and  O_17
REMARK    7  A    between atoms: O_17  and  C_18
REMARK                            x       y       z     vdW  Elec       q    Type
REMARK                         _______ _______ _______ _____ _____    ______ ____
ROOT
ATOM      1  C   UNL     1      35.065 -19.207 -21.197  0.00  0.00    -0.022 C 
ATOM      2  C   UNL     1      34.257 -21.380 -19.673  0.00  0.00    +0.122 C 
ATOM      3  C   UNL     1      33.711 -19.456 -21.030  0.00  0.00    -0.003 C 
ATOM      4  C   UNL     1      36.021 -20.026 -20.616  0.00  0.00    -0.003 C 
ATOM      5  C   UNL     1      33.304 -20.548 -20.263  0.00  0.00    +0.020 C 
ATOM      6  C   UNL     1      35.615 -21.118 -19.849  0.00  0.00    +0.020 C 
ENDROOT
BRANCH   2   7
ATOM      7  S   UNL     1      33.748 -22.746 -18.714  0.00  0.00    +0.057 S 
ATOM      8  O   UNL     1      32.443 -22.445 -18.141  0.00  0.00    -0.153 OA
ATOM      9  O   UNL     1      33.929 -23.958 -19.502  0.00  0.00    -0.153 OA
BRANCH   7  10
ATOM     10  N   UNL     1      34.916 -22.724 -17.467  0.00  0.00    -0.203 NA
ATOM     11  H   UNL     1      34.601 -22.109 -16.718  0.00  0.00    +0.144 HD
ATOM     12  H   UNL     1      35.803 -22.383 -17.839  0.00  0.00    +0.144 HD
ENDBRANCH   7  10
ENDBRANCH   2   7
BRANCH   1  13
ATOM     13  C   UNL     1      35.504 -18.026 -22.025  0.00  0.00    +0.038 C 
BRANCH  13  14
ATOM     14  C   UNL     1      35.306 -18.278 -23.519  0.00  0.00    +0.114 C 
BRANCH  14  16
ATOM     15  O   UNL     1      34.618 -16.934 -25.425  0.00  0.00    -0.250 OA
ATOM     16  C   UNL     1      35.023 -16.998 -24.274  0.00  0.00    +0.317 C 
BRANCH  16  17
ATOM     17  O   UNL     1      35.294 -15.935 -23.459  0.00  0.00    -0.448 OA
BRANCH  17  18
ATOM     18  C   UNL     1      34.341 -14.868 -23.502  0.00  0.00    +0.209 C 
ATOM     19  C   UNL     1      33.612 -14.804 -22.178  0.00  0.00    +0.051 C 
ENDBRANCH  17  18
ENDBRANCH  16  17
ENDBRANCH  14  16
ENDBRANCH  13  14
ENDBRANCH   1  13
TORSDOF 7
ENDMDL
MODEL 2
REMARK VINA RESULT:      -8.2      1.364      2.161
REMARK  Name = 16122582
REMARK  7 active torsions:
REMARK  status: ('A' for Active; 'I' for Inactive)
REMARK    1  A    between atoms: C_1  and  C_13
REMARK    2  A    between atoms: C_2  and  S_7
REMARK    3  A    between atoms: S_7  and  N_10
REMARK    4  A    between atoms: C_13  and  C_14
REMARK    5  A    between atoms: C_14  and  C_16
REMARK    6  A    between atoms: C_16  and  O_17
REMARK    7  A    between atoms: O_17  and  C_18
REMARK                            x       y       z     vdW  Elec       q    Type
REMARK                         _______ _______ _______ _____ _____    ______ ____
ROOT
ATOM      1  C   UNL     1      35.200 -19.241 -21.076  0.00  0.00    -0.022 C 
ATOM      2  C   UNL     1      34.311 -21.422 -19.611  0.00  0.00    +0.122 C 
ATOM      3  C   UNL     1      36.126 -20.086 -20.484  0.00  0.00    -0.003 C 
ATOM      4  C   UNL     1      33.839 -19.467 -20.949  0.00  0.00    -0.003 C 
ATOM      5  C   UNL     1      35.679 -21.183 -19.747  0.00  0.00    +0.020 C 
ATOM      6  C   UNL     1      33.391 -20.564 -20.212  0.00  0.00    +0.020 C 
ENDROOT
BRANCH   2   7
ATOM      7  S   UNL     1      33.752 -22.794 -18.688  0.00  0.00    +0.057 S 
ATOM      8  O   UNL     1      32.437 -22.478 -18.146  0.00  0.00    -0.153 OA
ATOM      9  O   UNL     1      33.933 -23.996 -19.491  0.00  0.00    -0.153 OA
BRANCH   7  10
ATOM     10  N   UNL     1      34.885 -22.812 -17.410  0.00  0.00    -0.203 NA
ATOM     11  H   UNL     1      34.395 -22.914 -16.522  0.00  0.00    +0.144 HD
ATOM     12  H   UNL     1      35.412 -21.939 -17.410  0.00  0.00    +0.144 HD
ENDBRANCH   7  10
ENDBRANCH   2   7
BRANCH   1  13
ATOM     13  C   UNL     1      35.684 -18.056 -21.874  0.00  0.00    +0.038 C 
BRANCH  13  14
ATOM     14  C   UNL     1      34.572 -17.032 -22.094  0.00  0.00    +0.114 C 
BRANCH  14  16
ATOM     15  O   UNL     1      34.954 -15.904 -19.974  0.00  0.00    -0.250 OA
ATOM     16  C   UNL     1      34.709 -15.843 -21.170  0.00  0.00    +0.317 C 
BRANCH  16  17
ATOM     17  O   UNL     1      34.517 -14.698 -21.891  0.00  0.00    -0.448 OA
BRANCH  17  18
ATOM     18  C   UNL     1      33.581 -14.799 -22.969  0.00  0.00    +0.209 C 
ATOM     19  C   UNL     1      33.716 -13.580 -23.857  0.00  0.00    +0.051 C 
ENDBRANCH  17  18
ENDBRANCH  16  17
ENDBRANCH  14  16
ENDBRANCH  13  14
ENDBRANCH   1  13
TORSDOF 7
ENDMDL
MODEL 3
REMARK VINA RESULT:      -7.6      3.664      7.290
REMARK  Name = 16122582
REMARK  7 active torsions:
REMARK  status: ('A' for Active; 'I' for Inactive)
REMARK    1  A    between atoms: C_1  and  C_13
REMARK    2  A    between atoms: C_2  and  S_7
REMARK    3  A    between atoms: S_7  and  N_10
REMARK    4  A    between atoms: C_13  and  C_14
REMARK    5  A    between atoms: C_14  and  C_16
REMARK    6  A    between atoms: C_16  and  O_17
REMARK    7  A    between atoms: O_17  and  C_18
REMARK                            x       y       z     vdW  Elec       q    Type
REMARK                         _______ _______ _______ _____ _____    ______ ____
ROOT
ATOM      1  C   UNL     1      34.244 -21.994 -19.390  0.00  0.00    -0.022 C 
ATOM      2  C   UNL     1      35.068 -19.705 -20.722  0.00  0.00    +0.122 C 
ATOM      3  C   UNL     1      33.293 -21.117 -19.890  0.00  0.00    -0.003 C 
ATOM      4  C   UNL     1      35.599 -21.746 -19.544  0.00  0.00    -0.003 C 
ATOM      5  C   UNL     1      33.707 -19.966 -20.560  0.00  0.00    +0.020 C 
ATOM      6  C   UNL     1      36.014 -20.595 -20.214  0.00  0.00    +0.020 C 
ENDROOT
BRANCH   2   7
ATOM      7  S   UNL     1      35.587 -18.264 -21.561  0.00  0.00    +0.057 S 
ATOM      8  O   UNL     1      35.237 -17.108 -20.747  0.00  0.00    -0.153 OA
ATOM      9  O   UNL     1      36.964 -18.452 -21.995  0.00  0.00    -0.153 OA
BRANCH   7  10
ATOM     10  N   UNL     1      34.569 -18.300 -22.933  0.00  0.00    -0.203 NA
ATOM     11  H   UNL     1      34.094 -19.201 -22.980  0.00  0.00    +0.144 HD
ATOM     12  H   UNL     1      35.129 -18.165 -23.774  0.00  0.00    +0.144 HD
ENDBRANCH   7  10
ENDBRANCH   2   7
BRANCH   1  13
ATOM     13  C   UNL     1      33.795 -23.238 -18.667  0.00  0.00    +0.038 C 
BRANCH  13  14
ATOM     14  C   UNL     1      32.988 -22.904 -17.414  0.00  0.00    +0.114 C 
BRANCH  14  16
ATOM     15  O   UNL     1      33.159 -23.494 -15.061  0.00  0.00    -0.250 OA
ATOM     16  C   UNL     1      33.690 -23.354 -16.153  0.00  0.00    +0.317 C 
BRANCH  16  17
ATOM     17  O   UNL     1      35.008 -23.577 -16.437  0.00  0.00    -0.448 OA
BRANCH  17  18
ATOM     18  C   UNL     1      35.943 -22.989 -15.527  0.00  0.00    +0.209 C 
ATOM     19  C   UNL     1      37.009 -22.260 -16.316  0.00  0.00    +0.051 C 
ENDBRANCH  17  18
ENDBRANCH  16  17
ENDBRANCH  14  16
ENDBRANCH  13  14
ENDBRANCH   1  13
TORSDOF 7
ENDMDL
MODEL 4
REMARK VINA RESULT:      -7.4      3.658      7.573
REMARK  Name = 16122582
REMARK  7 active torsions:
REMARK  status: ('A' for Active; 'I' for Inactive)
REMARK    1  A    between atoms: C_1  and  C_13
REMARK    2  A    between atoms: C_2  and  S_7
REMARK    3  A    between atoms: S_7  and  N_10
REMARK    4  A    between atoms: C_13  and  C_14
REMARK    5  A    between atoms: C_14  and  C_16
REMARK    6  A    between atoms: C_16  and  O_17
REMARK    7  A    between atoms: O_17  and  C_18
REMARK                            x       y       z     vdW  Elec       q    Type
REMARK                         _______ _______ _______ _____ _____    ______ ____
ROOT
ATOM      1  C   UNL     1      34.245 -21.945 -19.484  0.00  0.00    -0.022 C 
ATOM      2  C   UNL     1      35.095 -19.619 -20.735  0.00  0.00    +0.122 C 
ATOM      3  C   UNL     1      35.604 -21.694 -19.605  0.00  0.00    -0.003 C 
ATOM      4  C   UNL     1      33.305 -21.053 -19.976  0.00  0.00    -0.003 C 
ATOM      5  C   UNL     1      36.031 -20.525 -20.235  0.00  0.00    +0.020 C 
ATOM      6  C   UNL     1      33.732 -19.884 -20.606  0.00  0.00    +0.020 C 
ENDROOT
BRANCH   2   7
ATOM      7  S   UNL     1      35.630 -18.156 -21.523  0.00  0.00    +0.057 S 
ATOM      8  O   UNL     1      35.365 -17.033 -20.634  0.00  0.00    -0.153 OA
ATOM      9  O   UNL     1      36.976 -18.372 -22.034  0.00  0.00    -0.153 OA
BRANCH   7  10
ATOM     10  N   UNL     1      34.547 -18.081 -22.843  0.00  0.00    -0.203 NA
ATOM     11  H   UNL     1      34.827 -17.328 -23.469  0.00  0.00    +0.144 HD
ATOM     12  H   UNL     1      33.603 -17.905 -22.498  0.00  0.00    +0.144 HD
ENDBRANCH   7  10
ENDBRANCH   2   7
BRANCH   1  13
ATOM     13  C   UNL     1      33.784 -23.208 -18.802  0.00  0.00    +0.038 C 
BRANCH  13  14
ATOM     14  C   UNL     1      33.017 -22.908 -17.515  0.00  0.00    +0.114 C 
BRANCH  14  16
ATOM     15  O   UNL     1      34.942 -23.673 -16.240  0.00  0.00    -0.250 OA
ATOM     16  C   UNL     1      33.747 -23.416 -16.292  0.00  0.00    +0.317 C 
BRANCH  16  17
ATOM     17  O   UNL     1      32.856 -23.537 -15.264  0.00  0.00    -0.448 OA
BRANCH  17  18
ATOM     18  C   UNL     1      31.486 -23.305 -15.605  0.00  0.00    +0.209 C 
ATOM     19  C   UNL     1      30.674 -23.185 -14.334  0.00  0.00    +0.051 C 
ENDBRANCH  17  18
ENDBRANCH  16  17
ENDBRANCH  14  16
ENDBRANCH  13  14
ENDBRANCH   1  13
TORSDOF 7
ENDMDL
MODEL 5
REMARK VINA RESULT:      -7.4      5.659      8.009
REMARK  Name = 16122582
REMARK  7 active torsions:
REMARK  status: ('A' for Active; 'I' for Inactive)
REMARK    1  A    between atoms: C_1  and  C_13
REMARK    2  A    between atoms: C_2  and  S_7
REMARK    3  A    between atoms: S_7  and  N_10
REMARK    4  A    between atoms: C_13  and  C_14
REMARK    5  A    between atoms: C_14  and  C_16
REMARK    6  A    between atoms: C_16  and  O_17
REMARK    7  A    between atoms: O_17  and  C_18
REMARK                            x       y       z     vdW  Elec       q    Type
REMARK                         _______ _______ _______ _____ _____    ______ ____
ROOT
ATOM      1  C   UNL     1      33.947 -23.366 -15.016  0.00  0.00    -0.022 C 
ATOM      2  C   UNL     1      35.573 -23.855 -12.822  0.00  0.00    +0.122 C 
ATOM      3  C   UNL     1      35.283 -22.997 -15.063  0.00  0.00    -0.003 C 
ATOM      4  C   UNL     1      33.410 -23.975 -13.892  0.00  0.00    -0.003 C 
ATOM      5  C   UNL     1      36.101 -23.243 -13.960  0.00  0.00    +0.020 C 
ATOM      6  C   UNL     1      34.228 -24.220 -12.789  0.00  0.00    +0.020 C 
ENDROOT
BRANCH   2   7
ATOM      7  S   UNL     1      36.596 -24.162 -11.442  0.00  0.00    +0.057 S 
ATOM      8  O   UNL     1      37.459 -25.294 -11.753  0.00  0.00    -0.153 OA
ATOM      9  O   UNL     1      37.185 -22.901 -11.012  0.00  0.00    -0.153 OA
BRANCH   7  10
ATOM     10  N   UNL     1      35.442 -24.652 -10.282  0.00  0.00    -0.203 NA
ATOM     11  H   UNL     1      35.913 -24.872  -9.405  0.00  0.00    +0.144 HD
ATOM     12  H   UNL     1      34.950 -25.479 -10.621  0.00  0.00    +0.144 HD
ENDBRANCH   7  10
ENDBRANCH   2   7
BRANCH   1  13
ATOM     13  C   UNL     1      33.064 -23.102 -16.209  0.00  0.00    +0.038 C 
BRANCH  13  14
ATOM     14  C   UNL     1      33.667 -23.666 -17.494  0.00  0.00    +0.114 C 
BRANCH  14  16
ATOM     15  O   UNL     1      32.693 -21.906 -18.862  0.00  0.00    -0.250 OA
ATOM     16  C   UNL     1      33.624 -22.662 -18.625  0.00  0.00    +0.317 C 
BRANCH  16  17
ATOM     17  O   UNL     1      34.791 -22.742 -19.331  0.00  0.00    -0.448 OA
BRANCH  17  18
ATOM     18  C   UNL     1      35.568 -21.541 -19.375  0.00  0.00    +0.209 C 
ATOM     19  C   UNL     1      36.605 -21.584 -18.273  0.00  0.00    +0.051 C 
ENDBRANCH  17  18
ENDBRANCH  16  17
ENDBRANCH  14  16
ENDBRANCH  13  14
ENDBRANCH   1  13
TORSDOF 7
ENDMDL
MODEL 6
REMARK VINA RESULT:      -7.3      3.424      7.625
REMARK  Name = 16122582
REMARK  7 active torsions:
REMARK  status: ('A' for Active; 'I' for Inactive)
REMARK    1  A    between atoms: C_1  and  C_13
REMARK    2  A    between atoms: C_2  and  S_7
REMARK    3  A    between atoms: S_7  and  N_10
REMARK    4  A    between atoms: C_13  and  C_14
REMARK    5  A    between atoms: C_14  and  C_16
REMARK    6  A    between atoms: C_16  and  O_17
REMARK    7  A    between atoms: O_17  and  C_18
REMARK                            x       y       z     vdW  Elec       q    Type
REMARK                         _______ _______ _______ _____ _____    ______ ____
ROOT
ATOM      1  C   UNL     1      33.908 -21.260 -19.612  0.00  0.00    -0.022 C 
ATOM      2  C   UNL     1      34.684 -19.212 -21.315  0.00  0.00    +0.122 C 
ATOM      3  C   UNL     1      35.256 -21.070 -19.878  0.00  0.00    -0.003 C 
ATOM      4  C   UNL     1      32.943 -20.444 -20.181  0.00  0.00    -0.003 C 
ATOM      5  C   UNL     1      35.646 -20.040 -20.735  0.00  0.00    +0.020 C 
ATOM      6  C   UNL     1      33.333 -19.414 -21.037  0.00  0.00    +0.020 C 
ENDROOT
BRANCH   2   7
ATOM      7  S   UNL     1      35.172 -17.924 -22.386  0.00  0.00    +0.057 S 
ATOM      8  O   UNL     1      34.528 -18.130 -23.676  0.00  0.00    -0.153 OA
ATOM      9  O   UNL     1      35.006 -16.655 -21.690  0.00  0.00    -0.153 OA
BRANCH   7  10
ATOM     10  N   UNL     1      36.842 -18.247 -22.547  0.00  0.00    -0.203 NA
ATOM     11  H   UNL     1      37.029 -18.613 -23.479  0.00  0.00    +0.144 HD
ATOM     12  H   UNL     1      37.124 -18.934 -21.848  0.00  0.00    +0.144 HD
ENDBRANCH   7  10
ENDBRANCH   2   7
BRANCH   1  13
ATOM     13  C   UNL     1      33.487 -22.372 -18.685  0.00  0.00    +0.038 C 
BRANCH  13  14
ATOM     14  C   UNL     1      34.571 -22.691 -17.657  0.00  0.00    +0.114 C 
BRANCH  14  16
ATOM     15  O   UNL     1      32.866 -23.407 -16.076  0.00  0.00    -0.250 OA
ATOM     16  C   UNL     1      34.020 -23.461 -16.477  0.00  0.00    +0.317 C 
BRANCH  16  17
ATOM     17  O   UNL     1      35.020 -24.222 -15.940  0.00  0.00    -0.448 OA
BRANCH  17  18
ATOM     18  C   UNL     1      35.794 -23.589 -14.916  0.00  0.00    +0.209 C 
ATOM     19  C   UNL     1      37.256 -23.630 -15.307  0.00  0.00    +0.051 C 
ENDBRANCH  17  18
ENDBRANCH  16  17
ENDBRANCH  14  16
ENDBRANCH  13  14
ENDBRANCH   1  13
TORSDOF 7
ENDMDL
MODEL 7
REMARK VINA RESULT:      -7.2      2.865      3.928
REMARK  Name = 16122582
REMARK  7 active torsions:
REMARK  status: ('A' for Active; 'I' for Inactive)
REMARK    1  A    between atoms: C_1  and  C_13
REMARK    2  A    between atoms: C_2  and  S_7
REMARK    3  A    between atoms: S_7  and  N_10
REMARK    4  A    between atoms: C_13  and  C_14
REMARK    5  A    between atoms: C_14  and  C_16
REMARK    6  A    between atoms: C_16  and  O_17
REMARK    7  A    between atoms: O_17  and  C_18
REMARK                            x       y       z     vdW  Elec       q    Type
REMARK                         _______ _______ _______ _____ _____    ______ ____
ROOT
ATOM      1  C   UNL     1      35.687 -21.596 -18.890  0.00  0.00    -0.022 C 
ATOM      2  C   UNL     1      35.307 -22.937 -16.491  0.00  0.00    +0.122 C 
ATOM      3  C   UNL     1      34.485 -22.249 -18.657  0.00  0.00    -0.003 C 
ATOM      4  C   UNL     1      36.701 -21.602 -17.945  0.00  0.00    -0.003 C 
ATOM      5  C   UNL     1      34.294 -22.923 -17.450  0.00  0.00    +0.020 C 
ATOM      6  C   UNL     1      36.510 -22.276 -16.738  0.00  0.00    +0.020 C 
ENDROOT
BRANCH   2   7
ATOM      7  S   UNL     1      35.069 -23.780 -14.982  0.00  0.00    +0.057 S 
ATOM      8  O   UNL     1      35.925 -23.170 -13.974  0.00  0.00    -0.153 OA
ATOM      9  O   UNL     1      33.638 -23.898 -14.739  0.00  0.00    -0.153 OA
BRANCH   7  10
ATOM     10  N   UNL     1      35.689 -25.325 -15.369  0.00  0.00    -0.203 NA
ATOM     11  H   UNL     1      36.009 -25.785 -14.518  0.00  0.00    +0.144 HD
ATOM     12  H   UNL     1      36.470 -25.224 -16.017  0.00  0.00    +0.144 HD
ENDBRANCH   7  10
ENDBRANCH   2   7
BRANCH   1  13
ATOM     13  C   UNL     1      35.892 -20.867 -20.193  0.00  0.00    +0.038 C 
BRANCH  13  14
ATOM     14  C   UNL     1      34.621 -20.149 -20.645  0.00  0.00    +0.114 C 
BRANCH  14  16
ATOM     15  O   UNL     1      35.625 -17.934 -20.675  0.00  0.00    -0.250 OA
ATOM     16  C   UNL     1      34.918 -18.777 -21.208  0.00  0.00    +0.317 C 
BRANCH  16  17
ATOM     17  O   UNL     1      34.270 -18.640 -22.403  0.00  0.00    -0.448 OA
BRANCH  17  18
ATOM     18  C   UNL     1      35.043 -18.962 -23.564  0.00  0.00    +0.209 C 
ATOM     19  C   UNL     1      34.673 -18.012 -24.683  0.00  0.00    +0.051 C 
ENDBRANCH  17  18
ENDBRANCH  16  17
ENDBRANCH  14  16
ENDBRANCH  13  14
ENDBRANCH   1  13
TORSDOF 7
ENDMDL
MODEL 8
REMARK VINA RESULT:      -7.2      4.173      7.213
REMARK  Name = 16122582
REMARK  7 active torsions:
REMARK  status: ('A' for Active; 'I' for Inactive)
REMARK    1  A    between atoms: C_1  and  C_13
REMARK    2  A    between atoms: C_2  and  S_7
REMARK    3  A    between atoms: S_7  and  N_10
REMARK    4  A    between atoms: C_13  and  C_14
REMARK    5  A    between atoms: C_14  and  C_16
REMARK    6  A    between atoms: C_16  and  O_17
REMARK    7  A    between atoms: O_17  and  C_18
REMARK                            x       y       z     vdW  Elec       q    Type
REMARK                         _______ _______ _______ _____ _____    ______ ____
ROOT
ATOM      1  C   UNL     1      35.118 -17.204 -21.774  0.00  0.00    -0.022 C 
ATOM      2  C   UNL     1      33.957 -15.050 -23.081  0.00  0.00    +0.122 C 
ATOM      3  C   UNL     1      34.525 -16.194 -21.030  0.00  0.00    -0.003 C 
ATOM      4  C   UNL     1      35.140 -17.155 -23.159  0.00  0.00    -0.003 C 
ATOM      5  C   UNL     1      33.941 -15.112 -21.687  0.00  0.00    +0.020 C 
ATOM      6  C   UNL     1      34.556 -16.072 -23.816  0.00  0.00    +0.020 C 
ENDROOT
BRANCH   2   7
ATOM      7  S   UNL     1      33.226 -13.695 -23.903  0.00  0.00    +0.057 S 
ATOM      8  O   UNL     1      34.193 -12.606 -23.943  0.00  0.00    -0.153 OA
ATOM      9  O   UNL     1      32.625 -14.173 -25.141  0.00  0.00    -0.153 OA
BRANCH   7  10
ATOM     10  N   UNL     1      31.979 -13.283 -22.810  0.00  0.00    -0.203 NA
ATOM     11  H   UNL     1      31.078 -13.340 -23.285  0.00  0.00    +0.144 HD
ATOM     12  H   UNL     1      32.126 -12.334 -22.469  0.00  0.00    +0.144 HD
ENDBRANCH   7  10
ENDBRANCH   2   7
BRANCH   1  13
ATOM     13  C   UNL     1      35.748 -18.375 -21.063  0.00  0.00    +0.038 C 
BRANCH  13  14
ATOM     14  C   UNL     1      35.148 -19.703 -21.521  0.00  0.00    +0.114 C 
BRANCH  14  16
ATOM     15  O   UNL     1      32.791 -19.835 -20.936  0.00  0.00    -0.250 OA
ATOM     16  C   UNL     1      33.956 -20.104 -20.681  0.00  0.00    +0.317 C 
BRANCH  16  17
ATOM     17  O   UNL     1      34.397 -20.811 -19.599  0.00  0.00    -0.448 OA
BRANCH  17  18
ATOM     18  C   UNL     1      35.537 -21.646 -19.830  0.00  0.00    +0.209 C 
ATOM     19  C   UNL     1      36.477 -21.536 -18.649  0.00  0.00    +0.051 C 
ENDBRANCH  17  18
ENDBRANCH  16  17
ENDBRANCH  14  16
ENDBRANCH  13  14
ENDBRANCH   1  13
TORSDOF 7
ENDMDL
MODEL 9
REMARK VINA RESULT:      -7.1      7.837      9.746
REMARK  Name = 16122582
REMARK  7 active torsions:
REMARK  status: ('A' for Active; 'I' for Inactive)
REMARK    1  A    between atoms: C_1  and  C_13
REMARK    2  A    between atoms: C_2  and  S_7
REMARK    3  A    between atoms: S_7  and  N_10
REMARK    4  A    between atoms: C_13  and  C_14
REMARK    5  A    between atoms: C_14  and  C_16
REMARK    6  A    between atoms: C_16  and  O_17
REMARK    7  A    between atoms: O_17  and  C_18
REMARK                            x       y       z     vdW  Elec       q    Type
REMARK                         _______ _______ _______ _____ _____    ______ ____
ROOT
ATOM      1  C   UNL     1      34.552 -23.875 -15.489  0.00  0.00    -0.022 C 
ATOM      2  C   UNL     1      31.792 -23.617 -15.599  0.00  0.00    +0.122 C 
ATOM      3  C   UNL     1      33.787 -24.265 -14.399  0.00  0.00    -0.003 C 
ATOM      4  C   UNL     1      33.961 -23.359 -16.632  0.00  0.00    -0.003 C 
ATOM      5  C   UNL     1      32.400 -24.135 -14.455  0.00  0.00    +0.020 C 
ATOM      6  C   UNL     1      32.573 -23.229 -16.687  0.00  0.00    +0.020 C 
ENDROOT
BRANCH   2   7
ATOM      7  S   UNL     1      30.056 -23.454 -15.668  0.00  0.00    +0.057 S 
ATOM      8  O   UNL     1      29.481 -24.769 -15.921  0.00  0.00    -0.153 OA
ATOM      9  O   UNL     1      29.617 -22.683 -14.513  0.00  0.00    -0.153 OA
BRANCH   7  10
ATOM     10  N   UNL     1      29.873 -22.494 -17.070  0.00  0.00    -0.203 NA
ATOM     11  H   UNL     1      29.625 -21.543 -16.801  0.00  0.00    +0.144 HD
ATOM     12  H   UNL     1      29.136 -22.886 -17.656  0.00  0.00    +0.144 HD
ENDBRANCH   7  10
ENDBRANCH   2   7
BRANCH   1  13
ATOM     13  C   UNL     1      36.052 -24.017 -15.429  0.00  0.00    +0.038 C 
BRANCH  13  14
ATOM     14  C   UNL     1      36.483 -25.011 -14.352  0.00  0.00    +0.114 C 
BRANCH  14  16
ATOM     15  O   UNL     1      36.447 -26.875 -15.914  0.00  0.00    -0.250 OA
ATOM     16  C   UNL     1      36.950 -26.320 -14.947  0.00  0.00    +0.317 C 
BRANCH  16  17
ATOM     17  O   UNL     1      38.020 -26.775 -14.230  0.00  0.00    -0.448 OA
BRANCH  17  18
ATOM     18  C   UNL     1      38.901 -25.765 -13.730  0.00  0.00    +0.209 C 
ATOM     19  C   UNL     1      40.205 -25.822 -14.498  0.00  0.00    +0.051 C 
ENDBRANCH  17  18
ENDBRANCH  16  17
ENDBRANCH  14  16
ENDBRANCH  13  14
ENDBRANCH   1  13
TORSDOF 7
ENDMDL
