MODEL 1
REMARK VINA RESULT:      -6.1      0.000      0.000
REMARK  Name = 71655
REMARK  2 active torsions:
REMARK  status: ('A' for Active; 'I' for Inactive)
REMARK    1  A    between atoms: C_8  and  N_10
REMARK    2  A    between atoms: N_10  and  C_13
REMARK                            x       y       z     vdW  Elec       q    Type
REMARK                         _______ _______ _______ _____ _____    ______ ____
ROOT
ATOM      1  O   UNL     1      32.140 -12.915 -22.812  0.00  0.00    -0.350 OA
ATOM      2  N   UNL     1      33.775 -15.192 -22.740  0.00  0.00    -0.273 N 
ATOM      3  N   UNL     1      35.655 -16.353 -23.499  0.00  0.00    -0.269 NA
ATOM      4  C   UNL     1      33.572 -14.473 -23.997  0.00  0.00    +0.126 C 
ATOM      5  C   UNL     1      32.700 -15.029 -21.763  0.00  0.00    +0.126 C 
ATOM      6  C   UNL     1      33.258 -13.012 -23.698  0.00  0.00    +0.164 C 
ATOM      7  C   UNL     1      32.424 -13.544 -21.559  0.00  0.00    +0.164 C 
ATOM      8  C   UNL     1      34.794 -16.082 -22.564  0.00  0.00    +0.215 C 
ATOM      9  H   UNL     1      35.598 -15.894 -24.369  0.00  0.00    +0.190 HD
ENDROOT
BRANCH   8  10
ATOM     10  N   UNL     1      34.943 -16.765 -21.378  0.00  0.00    -0.182 NA
BRANCH  10  13
ATOM     11  N   UNL     1      36.046 -18.685 -20.647  0.00  0.00    -0.370 N 
ATOM     12  N   UNL     1      34.419 -18.954 -22.226  0.00  0.00    -0.370 N 
ATOM     13  C   UNL     1      35.107 -18.062 -21.435  0.00  0.00    +0.195 C 
ATOM     14  H   UNL     1      36.605 -18.154 -20.034  0.00  0.00    +0.159 HD
ATOM     15  H   UNL     1      36.159 -19.661 -20.695  0.00  0.00    +0.159 HD
ATOM     16  H   UNL     1      33.719 -18.631 -22.838  0.00  0.00    +0.159 HD
ATOM     17  H   UNL     1      34.628 -19.915 -22.182  0.00  0.00    +0.159 HD
ENDBRANCH  10  13
ENDBRANCH   8  10
TORSDOF 2
ENDMDL
MODEL 2
REMARK VINA RESULT:      -6.0     11.936     13.069
REMARK  Name = 71655
REMARK  2 active torsions:
REMARK  status: ('A' for Active; 'I' for Inactive)
REMARK    1  A    between atoms: C_8  and  N_10
REMARK    2  A    between atoms: N_10  and  C_13
REMARK                            x       y       z     vdW  Elec       q    Type
REMARK                         _______ _______ _______ _____ _____    ______ ____
ROOT
ATOM      1  O   UNL     1      35.286 -23.222 -13.317  0.00  0.00    -0.350 OA
ATOM      2  N   UNL     1      36.490 -25.554 -14.303  0.00  0.00    -0.273 N 
ATOM      3  N   UNL     1      36.924 -27.006 -16.081  0.00  0.00    -0.269 NA
ATOM      4  C   UNL     1      35.197 -25.116 -14.828  0.00  0.00    +0.126 C 
ATOM      5  C   UNL     1      36.787 -25.091 -12.948  0.00  0.00    +0.126 C 
ATOM      6  C   UNL     1      35.078 -23.604 -14.678  0.00  0.00    +0.164 C 
ATOM      7  C   UNL     1      36.600 -23.579 -12.880  0.00  0.00    +0.164 C 
ATOM      8  C   UNL     1      37.272 -26.465 -14.952  0.00  0.00    +0.215 C 
ATOM      9  H   UNL     1      36.076 -26.748 -16.511  0.00  0.00    +0.190 HD
ENDROOT
BRANCH   8  10
ATOM     10  N   UNL     1      38.471 -26.879 -14.417  0.00  0.00    -0.182 NA
BRANCH  10  13
ATOM     11  N   UNL     1      40.763 -26.528 -14.173  0.00  0.00    -0.370 N 
ATOM     12  N   UNL     1      39.623 -25.080 -15.521  0.00  0.00    -0.370 N 
ATOM     13  C   UNL     1      39.542 -26.184 -14.703  0.00  0.00    +0.195 C 
ATOM     14  H   UNL     1      40.837 -27.303 -13.569  0.00  0.00    +0.159 HD
ATOM     15  H   UNL     1      41.562 -26.000 -14.397  0.00  0.00    +0.159 HD
ATOM     16  H   UNL     1      38.814 -24.733 -15.962  0.00  0.00    +0.159 HD
ATOM     17  H   UNL     1      40.491 -24.637 -15.666  0.00  0.00    +0.159 HD
ENDBRANCH  10  13
ENDBRANCH   8  10
TORSDOF 2
ENDMDL
MODEL 3
REMARK VINA RESULT:      -6.0      4.738      7.121
REMARK  Name = 71655
REMARK  2 active torsions:
REMARK  status: ('A' for Active; 'I' for Inactive)
REMARK    1  A    between atoms: C_8  and  N_10
REMARK    2  A    between atoms: N_10  and  C_13
REMARK                            x       y       z     vdW  Elec       q    Type
REMARK                         _______ _______ _______ _____ _____    ______ ____
ROOT
ATOM      1  O   UNL     1      35.271 -22.953 -17.567  0.00  0.00    -0.350 OA
ATOM      2  N   UNL     1      35.140 -21.161 -19.719  0.00  0.00    -0.273 N 
ATOM      3  N   UNL     1      33.873 -19.873 -21.200  0.00  0.00    -0.269 NA
ATOM      4  C   UNL     1      34.111 -22.187 -19.554  0.00  0.00    +0.126 C 
ATOM      5  C   UNL     1      36.430 -21.486 -19.112  0.00  0.00    +0.126 C 
ATOM      6  C   UNL     1      33.997 -22.555 -18.079  0.00  0.00    +0.164 C 
ATOM      7  C   UNL     1      36.215 -21.884 -17.656  0.00  0.00    +0.164 C 
ATOM      8  C   UNL     1      34.964 -20.073 -20.524  0.00  0.00    +0.215 C 
ATOM      9  H   UNL     1      33.124 -20.509 -21.127  0.00  0.00    +0.190 HD
ENDROOT
BRANCH   8  10
ATOM     10  N   UNL     1      35.963 -19.139 -20.682  0.00  0.00    -0.182 NA
BRANCH  10  13
ATOM     11  N   UNL     1      36.079 -18.018 -22.723  0.00  0.00    -0.370 N 
ATOM     12  N   UNL     1      35.050 -16.936 -20.996  0.00  0.00    -0.370 N 
ATOM     13  C   UNL     1      35.701 -18.078 -21.402  0.00  0.00    +0.195 C 
ATOM     14  H   UNL     1      36.555 -18.776 -23.134  0.00  0.00    +0.159 HD
ATOM     15  H   UNL     1      35.874 -17.217 -23.256  0.00  0.00    +0.159 HD
ATOM     16  H   UNL     1      34.728 -16.856 -20.069  0.00  0.00    +0.159 HD
ATOM     17  H   UNL     1      34.905 -16.198 -21.632  0.00  0.00    +0.159 HD
ENDBRANCH  10  13
ENDBRANCH   8  10
TORSDOF 2
ENDMDL
MODEL 4
REMARK VINA RESULT:      -6.0      1.586      2.550
REMARK  Name = 71655
REMARK  2 active torsions:
REMARK  status: ('A' for Active; 'I' for Inactive)
REMARK    1  A    between atoms: C_8  and  N_10
REMARK    2  A    between atoms: N_10  and  C_13
REMARK                            x       y       z     vdW  Elec       q    Type
REMARK                         _______ _______ _______ _____ _____    ______ ____
ROOT
ATOM      1  O   UNL     1      33.558 -14.675 -24.849  0.00  0.00    -0.350 OA
ATOM      2  N   UNL     1      34.828 -16.111 -22.802  0.00  0.00    -0.273 N 
ATOM      3  N   UNL     1      35.073 -16.600 -20.531  0.00  0.00    -0.269 NA
ATOM      4  C   UNL     1      34.398 -14.732 -22.574  0.00  0.00    +0.126 C 
ATOM      5  C   UNL     1      35.081 -16.448 -24.202  0.00  0.00    +0.126 C 
ATOM      6  C   UNL     1      33.217 -14.414 -23.485  0.00  0.00    +0.164 C 
ATOM      7  C   UNL     1      33.871 -16.056 -25.043  0.00  0.00    +0.164 C 
ATOM      8  C   UNL     1      35.138 -16.958 -21.779  0.00  0.00    +0.215 C 
ATOM      9  H   UNL     1      34.772 -15.693 -20.294  0.00  0.00    +0.190 HD
ENDROOT
BRANCH   8  10
ATOM     10  N   UNL     1      35.568 -18.242 -22.027  0.00  0.00    -0.182 NA
BRANCH  10  13
ATOM     11  N   UNL     1      34.247 -19.690 -20.762  0.00  0.00    -0.370 N 
ATOM     12  N   UNL     1      36.471 -19.591 -20.251  0.00  0.00    -0.370 N 
ATOM     13  C   UNL     1      35.462 -19.120 -21.062  0.00  0.00    +0.195 C 
ATOM     14  H   UNL     1      33.445 -19.435 -21.272  0.00  0.00    +0.159 HD
ATOM     15  H   UNL     1      34.180 -20.351 -20.036  0.00  0.00    +0.159 HD
ATOM     16  H   UNL     1      37.390 -19.259 -20.367  0.00  0.00    +0.159 HD
ATOM     17  H   UNL     1      36.272 -20.259 -19.556  0.00  0.00    +0.159 HD
ENDBRANCH  10  13
ENDBRANCH   8  10
TORSDOF 2
ENDMDL
MODEL 5
REMARK VINA RESULT:      -5.9     10.225     12.674
REMARK  Name = 71655
REMARK  2 active torsions:
REMARK  status: ('A' for Active; 'I' for Inactive)
REMARK    1  A    between atoms: C_8  and  N_10
REMARK    2  A    between atoms: N_10  and  C_13
REMARK                            x       y       z     vdW  Elec       q    Type
REMARK                         _______ _______ _______ _____ _____    ______ ____
ROOT
ATOM      1  O   UNL     1      36.576 -24.037 -10.686  0.00  0.00    -0.350 OA
ATOM      2  N   UNL     1      37.284 -24.349 -13.381  0.00  0.00    -0.273 N 
ATOM      3  N   UNL     1      36.889 -25.306 -15.476  0.00  0.00    -0.269 NA
ATOM      4  C   UNL     1      36.719 -25.473 -12.635  0.00  0.00    +0.126 C 
ATOM      5  C   UNL     1      37.955 -23.345 -12.557  0.00  0.00    +0.126 C 
ATOM      6  C   UNL     1      35.838 -24.941 -11.512  0.00  0.00    +0.164 C 
ATOM      7  C   UNL     1      37.019 -22.904 -11.437  0.00  0.00    +0.164 C 
ATOM      8  C   UNL     1      37.337 -24.329 -14.744  0.00  0.00    +0.215 C 
ATOM      9  H   UNL     1      36.475 -26.091 -15.049  0.00  0.00    +0.190 HD
ENDROOT
BRANCH   8  10
ATOM     10  N   UNL     1      37.901 -23.269 -15.418  0.00  0.00    -0.182 NA
BRANCH  10  13
ATOM     11  N   UNL     1      35.765 -22.724 -16.178  0.00  0.00    -0.370 N 
ATOM     12  N   UNL     1      37.425 -21.200 -16.548  0.00  0.00    -0.370 N 
ATOM     13  C   UNL     1      37.099 -22.428 -16.019  0.00  0.00    +0.195 C 
ATOM     14  H   UNL     1      35.406 -23.576 -15.842  0.00  0.00    +0.159 HD
ATOM     15  H   UNL     1      35.170 -22.083 -16.630  0.00  0.00    +0.159 HD
ATOM     16  H   UNL     1      38.352 -20.873 -16.497  0.00  0.00    +0.159 HD
ATOM     17  H   UNL     1      36.732 -20.648 -16.978  0.00  0.00    +0.159 HD
ENDBRANCH  10  13
ENDBRANCH   8  10
TORSDOF 2
ENDMDL
MODEL 6
REMARK VINA RESULT:      -5.9     12.275     13.329
REMARK  Name = 71655
REMARK  2 active torsions:
REMARK  status: ('A' for Active; 'I' for Inactive)
REMARK    1  A    between atoms: C_8  and  N_10
REMARK    2  A    between atoms: N_10  and  C_13
REMARK                            x       y       z     vdW  Elec       q    Type
REMARK                         _______ _______ _______ _____ _____    ______ ____
ROOT
ATOM      1  O   UNL     1      39.111 -24.809 -14.076  0.00  0.00    -0.350 OA
ATOM      2  N   UNL     1      36.366 -24.915 -13.513  0.00  0.00    -0.273 N 
ATOM      3  N   UNL     1      34.614 -24.781 -11.973  0.00  0.00    -0.269 NA
ATOM      4  C   UNL     1      37.336 -25.410 -12.536  0.00  0.00    +0.126 C 
ATOM      5  C   UNL     1      36.833 -24.930 -14.898  0.00  0.00    +0.126 C 
ATOM      6  C   UNL     1      38.661 -24.679 -12.725  0.00  0.00    +0.164 C 
ATOM      7  C   UNL     1      38.179 -24.220 -14.985  0.00  0.00    +0.164 C 
ATOM      8  C   UNL     1      35.074 -24.632 -13.180  0.00  0.00    +0.215 C 
ATOM      9  H   UNL     1      35.210 -25.092 -11.254  0.00  0.00    +0.190 HD
ENDROOT
BRANCH   8  10
ATOM     10  N   UNL     1      34.177 -24.195 -14.128  0.00  0.00    -0.182 NA
BRANCH  10  13
ATOM     11  N   UNL     1      32.291 -22.984 -13.485  0.00  0.00    -0.370 N 
ATOM     12  N   UNL     1      32.045 -25.239 -13.744  0.00  0.00    -0.370 N 
ATOM     13  C   UNL     1      32.909 -24.169 -13.806  0.00  0.00    +0.195 C 
ATOM     14  H   UNL     1      32.804 -22.143 -13.493  0.00  0.00    +0.159 HD
ATOM     15  H   UNL     1      31.336 -22.976 -13.247  0.00  0.00    +0.159 HD
ATOM     16  H   UNL     1      32.367 -26.145 -13.952  0.00  0.00    +0.159 HD
ATOM     17  H   UNL     1      31.104 -25.098 -13.490  0.00  0.00    +0.159 HD
ENDBRANCH  10  13
ENDBRANCH   8  10
TORSDOF 2
ENDMDL
MODEL 7
REMARK VINA RESULT:      -5.9      2.915      3.815
REMARK  Name = 71655
REMARK  2 active torsions:
REMARK  status: ('A' for Active; 'I' for Inactive)
REMARK    1  A    between atoms: C_8  and  N_10
REMARK    2  A    between atoms: N_10  and  C_13
REMARK                            x       y       z     vdW  Elec       q    Type
REMARK                         _______ _______ _______ _____ _____    ______ ____
ROOT
ATOM      1  O   UNL     1      34.566 -17.334 -25.654  0.00  0.00    -0.350 OA
ATOM      2  N   UNL     1      34.976 -17.921 -22.943  0.00  0.00    -0.273 N 
ATOM      3  N   UNL     1      34.988 -17.239 -20.708  0.00  0.00    -0.269 NA
ATOM      4  C   UNL     1      35.310 -16.597 -23.466  0.00  0.00    +0.126 C 
ATOM      5  C   UNL     1      34.993 -18.993 -23.937  0.00  0.00    +0.126 C 
ATOM      6  C   UNL     1      34.435 -16.297 -24.678  0.00  0.00    +0.164 C 
ATOM      7  C   UNL     1      34.131 -18.590 -25.128  0.00  0.00    +0.164 C 
ATOM      8  C   UNL     1      34.835 -18.165 -21.608  0.00  0.00    +0.215 C 
ATOM      9  H   UNL     1      35.195 -16.316 -20.982  0.00  0.00    +0.190 HD
ENDROOT
BRANCH   8  10
ATOM     10  N   UNL     1      34.548 -19.429 -21.144  0.00  0.00    -0.182 NA
BRANCH  10  13
ATOM     11  N   UNL     1      35.203 -21.257 -19.854  0.00  0.00    -0.370 N 
ATOM     12  N   UNL     1      36.781 -19.664 -20.282  0.00  0.00    -0.370 N 
ATOM     13  C   UNL     1      35.476 -20.059 -20.469  0.00  0.00    +0.195 C 
ATOM     14  H   UNL     1      34.301 -21.648 -19.914  0.00  0.00    +0.159 HD
ATOM     15  H   UNL     1      35.909 -21.724 -19.352  0.00  0.00    +0.159 HD
ATOM     16  H   UNL     1      37.101 -18.820 -20.674  0.00  0.00    +0.159 HD
ATOM     17  H   UNL     1      37.395 -20.225 -19.755  0.00  0.00    +0.159 HD
ENDBRANCH  10  13
ENDBRANCH   8  10
TORSDOF 2
ENDMDL
MODEL 8
REMARK VINA RESULT:      -5.8      2.898      4.948
REMARK  Name = 71655
REMARK  2 active torsions:
REMARK  status: ('A' for Active; 'I' for Inactive)
REMARK    1  A    between atoms: C_8  and  N_10
REMARK    2  A    between atoms: N_10  and  C_13
REMARK                            x       y       z     vdW  Elec       q    Type
REMARK                         _______ _______ _______ _____ _____    ______ ____
ROOT
ATOM      1  O   UNL     1      35.181 -19.239 -23.661  0.00  0.00    -0.350 OA
ATOM      2  N   UNL     1      34.550 -16.536 -24.060  0.00  0.00    -0.273 N 
ATOM      3  N   UNL     1      33.367 -14.888 -25.219  0.00  0.00    -0.269 NA
ATOM      4  C   UNL     1      34.611 -17.452 -25.198  0.00  0.00    +0.126 C 
ATOM      5  C   UNL     1      35.354 -16.940 -22.907  0.00  0.00    +0.126 C 
ATOM      6  C   UNL     1      34.301 -18.867 -24.724  0.00  0.00    +0.164 C 
ATOM      7  C   UNL     1      35.011 -18.377 -22.532  0.00  0.00    +0.164 C 
ATOM      8  C   UNL     1      33.938 -15.319 -24.133  0.00  0.00    +0.215 C 
ATOM      9  H   UNL     1      33.347 -15.455 -26.024  0.00  0.00    +0.190 HD
ENDROOT
BRANCH   8  10
ATOM     10  N   UNL     1      33.922 -14.466 -23.053  0.00  0.00    -0.182 NA
BRANCH  10  13
ATOM     11  N   UNL     1      33.916 -12.241 -23.750  0.00  0.00    -0.370 N 
ATOM     12  N   UNL     1      32.000 -13.043 -22.804  0.00  0.00    -0.370 N 
ATOM     13  C   UNL     1      33.293 -13.326 -23.181  0.00  0.00    +0.195 C 
ATOM     14  H   UNL     1      34.847 -12.316 -24.063  0.00  0.00    +0.159 HD
ATOM     15  H   UNL     1      33.432 -11.389 -23.845  0.00  0.00    +0.159 HD
ATOM     16  H   UNL     1      31.446 -13.739 -22.382  0.00  0.00    +0.159 HD
ATOM     17  H   UNL     1      31.628 -12.143 -22.954  0.00  0.00    +0.159 HD
ENDBRANCH  10  13
ENDBRANCH   8  10
TORSDOF 2
ENDMDL
MODEL 9
REMARK VINA RESULT:      -5.8      8.036     10.228
REMARK  Name = 71655
REMARK  2 active torsions:
REMARK  status: ('A' for Active; 'I' for Inactive)
REMARK    1  A    between atoms: C_8  and  N_10
REMARK    2  A    between atoms: N_10  and  C_13
REMARK                            x       y       z     vdW  Elec       q    Type
REMARK                         _______ _______ _______ _____ _____    ______ ____
ROOT
ATOM      1  O   UNL     1      30.605 -24.136 -14.354  0.00  0.00    -0.350 OA
ATOM      2  N   UNL     1      32.698 -23.406 -16.071  0.00  0.00    -0.273 N 
ATOM      3  N   UNL     1      34.975 -23.414 -16.596  0.00  0.00    -0.269 NA
ATOM      4  C   UNL     1      32.916 -23.454 -14.625  0.00  0.00    +0.126 C 
ATOM      5  C   UNL     1      31.310 -23.187 -16.472  0.00  0.00    +0.126 C 
ATOM      6  C   UNL     1      31.953 -24.458 -14.003  0.00  0.00    +0.164 C 
ATOM      7  C   UNL     1      30.415 -24.202 -15.769  0.00  0.00    +0.164 C 
ATOM      8  C   UNL     1      33.729 -23.389 -16.965  0.00  0.00    +0.215 C 
ATOM      9  H   UNL     1      35.205 -23.467 -15.640  0.00  0.00    +0.190 HD
ENDROOT
BRANCH   8  10
ATOM     10  N   UNL     1      33.492 -23.315 -18.319  0.00  0.00    -0.182 NA
BRANCH  10  13
ATOM     11  N   UNL     1      32.974 -21.308 -19.387  0.00  0.00    -0.370 N 
ATOM     12  N   UNL     1      35.180 -21.883 -19.259  0.00  0.00    -0.370 N 
ATOM     13  C   UNL     1      33.886 -22.239 -18.952  0.00  0.00    +0.195 C 
ATOM     14  H   UNL     1      32.012 -21.448 -19.227  0.00  0.00    +0.159 HD
ATOM     15  H   UNL     1      33.282 -20.501 -19.859  0.00  0.00    +0.159 HD
ATOM     16  H   UNL     1      35.927 -22.469 -19.000  0.00  0.00    +0.159 HD
ATOM     17  H   UNL     1      35.358 -21.041 -19.739  0.00  0.00    +0.159 HD
ENDBRANCH  10  13
ENDBRANCH   8  10
TORSDOF 2
ENDMDL
