MODEL 1
REMARK VINA RESULT:      -8.3      0.000      0.000
REMARK  Name = 16122634
REMARK  4 active torsions:
REMARK  status: ('A' for Active; 'I' for Inactive)
REMARK    1  A    between atoms: C_1  and  C_14
REMARK    2  A    between atoms: C_2  and  C_9
REMARK    3  A    between atoms: C_14  and  C_15
REMARK    4  A    between atoms: C_15  and  N_16
REMARK                            x       y       z     vdW  Elec       q    Type
REMARK                         _______ _______ _______ _____ _____    ______ ____
ROOT
ATOM      1  C   UNL     1      34.002 -21.443 -19.568  0.00  0.00    -0.024 C 
ATOM      2  C   UNL     1      34.547 -19.248 -21.201  0.00  0.00    +0.002 C 
ATOM      3  C   UNL     1      32.958 -20.649 -20.040  0.00  0.00    -0.004 C 
ATOM      4  C   UNL     1      35.319 -21.140 -19.911  0.00  0.00    -0.004 C 
ATOM      5  C   UNL     1      33.230 -19.552 -20.857  0.00  0.00    -0.000 C 
ATOM      6  C   UNL     1      35.591 -20.042 -20.729  0.00  0.00    -0.000 C 
ENDROOT
BRANCH   2   9
ATOM      7  N   UNL     1      35.233 -16.906 -23.814  0.00  0.00    -0.240 N 
ATOM      8  N   UNL     1      35.258 -16.012 -22.810  0.00  0.00    -0.180 NA
ATOM      9  C   UNL     1      34.827 -18.120 -22.043  0.00  0.00    +0.031 C 
ATOM     10  C   UNL     1      34.979 -18.183 -23.407  0.00  0.00    +0.045 C 
ATOM     11  C   UNL     1      35.010 -16.759 -21.732  0.00  0.00    +0.118 C 
ATOM     12  C   UNL     1      34.910 -19.300 -24.367  0.00  0.00    +0.049 C 
ATOM     13  H   UNL     1      35.383 -16.661 -24.755  0.00  0.00    +0.174 HD
ENDBRANCH   2   9
BRANCH   1  14
ATOM     14  C   UNL     1      33.711 -22.616 -18.693  0.00  0.00    +0.002 C 
BRANCH  14  15
ATOM     15  C   UNL     1      34.636 -22.667 -17.469  0.00  0.00    -0.081 C 
BRANCH  15  16
ATOM     16  N   UNL     1      34.001 -23.344 -16.343  0.00  0.00    +0.381 N 
ATOM     17  H   UNL     1      33.374 -22.695 -15.866  0.00  0.00    -0.089 HD
ATOM     18  H   UNL     1      34.718 -23.666 -15.693  0.00  0.00    -0.089 HD
ATOM     19  H   UNL     1      33.468 -24.144 -16.685  0.00  0.00    -0.089 HD
ENDBRANCH  15  16
ENDBRANCH  14  15
ENDBRANCH   1  14
TORSDOF 4
ENDMDL
MODEL 2
REMARK VINA RESULT:      -8.1      0.857      1.810
REMARK  Name = 16122634
REMARK  4 active torsions:
REMARK  status: ('A' for Active; 'I' for Inactive)
REMARK    1  A    between atoms: C_1  and  C_14
REMARK    2  A    between atoms: C_2  and  C_9
REMARK    3  A    between atoms: C_14  and  C_15
REMARK    4  A    between atoms: C_15  and  N_16
REMARK                            x       y       z     vdW  Elec       q    Type
REMARK                         _______ _______ _______ _____ _____    ______ ____
ROOT
ATOM      1  C   UNL     1      34.774 -21.061 -19.785  0.00  0.00    -0.024 C 
ATOM      2  C   UNL     1      34.826 -18.874 -21.517  0.00  0.00    +0.002 C 
ATOM      3  C   UNL     1      33.580 -20.522 -20.263  0.00  0.00    -0.004 C 
ATOM      4  C   UNL     1      35.994 -20.507 -20.172  0.00  0.00    -0.004 C 
ATOM      5  C   UNL     1      33.606 -19.429 -21.129  0.00  0.00    -0.000 C 
ATOM      6  C   UNL     1      36.019 -19.413 -21.038  0.00  0.00    -0.000 C 
ENDROOT
BRANCH   2   9
ATOM      7  N   UNL     1      34.833 -15.697 -23.157  0.00  0.00    -0.240 N 
ATOM      8  N   UNL     1      34.944 -16.436 -24.275  0.00  0.00    -0.180 NA
ATOM      9  C   UNL     1      34.852 -17.750 -22.409  0.00  0.00    +0.031 C 
ATOM     10  C   UNL     1      34.774 -16.437 -22.012  0.00  0.00    +0.045 C 
ATOM     11  C   UNL     1      34.955 -17.688 -23.811  0.00  0.00    +0.118 C 
ATOM     12  C   UNL     1      34.653 -15.802 -20.687  0.00  0.00    +0.049 C 
ATOM     13  H   UNL     1      34.798 -14.714 -23.164  0.00  0.00    +0.174 HD
ENDBRANCH   2   9
BRANCH   1  14
ATOM     14  C   UNL     1      34.747 -22.230 -18.858  0.00  0.00    +0.002 C 
BRANCH  14  15
ATOM     15  C   UNL     1      33.325 -22.556 -18.383  0.00  0.00    -0.081 C 
BRANCH  15  16
ATOM     16  N   UNL     1      33.336 -23.344 -17.155  0.00  0.00    +0.381 N 
ATOM     17  H   UNL     1      33.837 -22.834 -16.427  0.00  0.00    -0.089 HD
ATOM     18  H   UNL     1      33.803 -24.235 -17.328  0.00  0.00    -0.089 HD
ATOM     19  H   UNL     1      32.377 -23.516 -16.852  0.00  0.00    -0.089 HD
ENDBRANCH  15  16
ENDBRANCH  14  15
ENDBRANCH   1  14
TORSDOF 4
ENDMDL
MODEL 3
REMARK VINA RESULT:      -8.1      2.588      6.522
REMARK  Name = 16122634
REMARK  4 active torsions:
REMARK  status: ('A' for Active; 'I' for Inactive)
REMARK    1  A    between atoms: C_1  and  C_14
REMARK    2  A    between atoms: C_2  and  C_9
REMARK    3  A    between atoms: C_14  and  C_15
REMARK    4  A    between atoms: C_15  and  N_16
REMARK                            x       y       z     vdW  Elec       q    Type
REMARK                         _______ _______ _______ _____ _____    ______ ____
ROOT
ATOM      1  C   UNL     1      34.590 -16.843 -24.402  0.00  0.00    -0.024 C 
ATOM      2  C   UNL     1      35.159 -18.544 -22.265  0.00  0.00    +0.002 C 
ATOM      3  C   UNL     1      34.841 -16.314 -23.137  0.00  0.00    -0.004 C 
ATOM      4  C   UNL     1      34.623 -18.224 -24.600  0.00  0.00    -0.004 C 
ATOM      5  C   UNL     1      35.126 -17.164 -22.069  0.00  0.00    -0.000 C 
ATOM      6  C   UNL     1      34.908 -19.074 -23.531  0.00  0.00    -0.000 C 
ENDROOT
BRANCH   2   9
ATOM      7  N   UNL     1      35.205 -20.840 -19.525  0.00  0.00    -0.240 N 
ATOM      8  N   UNL     1      36.529 -20.607 -19.539  0.00  0.00    -0.180 NA
ATOM      9  C   UNL     1      35.453 -19.420 -21.166  0.00  0.00    +0.031 C 
ATOM     10  C   UNL     1      34.515 -20.152 -20.480  0.00  0.00    +0.045 C 
ATOM     11  C   UNL     1      36.674 -19.740 -20.543  0.00  0.00    +0.118 C 
ATOM     12  C   UNL     1      33.053 -20.280 -20.620  0.00  0.00    +0.049 C 
ATOM     13  H   UNL     1      34.773 -21.450 -18.884  0.00  0.00    +0.174 HD
ENDBRANCH   2   9
BRANCH   1  14
ATOM     14  C   UNL     1      34.285 -15.934 -25.545  0.00  0.00    +0.002 C 
BRANCH  14  15
ATOM     15  C   UNL     1      33.267 -14.850 -25.164  0.00  0.00    -0.081 C 
BRANCH  15  16
ATOM     16  N   UNL     1      32.415 -14.493 -26.293  0.00  0.00    +0.381 N 
ATOM     17  H   UNL     1      32.657 -15.071 -27.099  0.00  0.00    -0.089 HD
ATOM     18  H   UNL     1      32.555 -13.509 -26.526  0.00  0.00    -0.089 HD
ATOM     19  H   UNL     1      31.438 -14.647 -26.044  0.00  0.00    -0.089 HD
ENDBRANCH  15  16
ENDBRANCH  14  15
ENDBRANCH   1  14
TORSDOF 4
ENDMDL
MODEL 4
REMARK VINA RESULT:      -7.8      1.931      6.301
REMARK  Name = 16122634
REMARK  4 active torsions:
REMARK  status: ('A' for Active; 'I' for Inactive)
REMARK    1  A    between atoms: C_1  and  C_14
REMARK    2  A    between atoms: C_2  and  C_9
REMARK    3  A    between atoms: C_14  and  C_15
REMARK    4  A    between atoms: C_15  and  N_16
REMARK                            x       y       z     vdW  Elec       q    Type
REMARK                         _______ _______ _______ _____ _____    ______ ____
ROOT
ATOM      1  C   UNL     1      34.739 -16.927 -23.128  0.00  0.00    -0.024 C 
ATOM      2  C   UNL     1      34.300 -19.099 -21.433  0.00  0.00    +0.002 C 
ATOM      3  C   UNL     1      34.818 -18.227 -23.626  0.00  0.00    -0.004 C 
ATOM      4  C   UNL     1      34.441 -16.712 -21.783  0.00  0.00    -0.004 C 
ATOM      5  C   UNL     1      34.598 -19.313 -22.779  0.00  0.00    -0.000 C 
ATOM      6  C   UNL     1      34.221 -17.798 -20.935  0.00  0.00    -0.000 C 
ENDROOT
BRANCH   2   9
ATOM      7  N   UNL     1      34.426 -21.900 -19.214  0.00  0.00    -0.240 N 
ATOM      8  N   UNL     1      33.086 -21.856 -19.314  0.00  0.00    -0.180 NA
ATOM      9  C   UNL     1      34.072 -20.216 -20.561  0.00  0.00    +0.031 C 
ATOM     10  C   UNL     1      35.064 -20.938 -19.943  0.00  0.00    +0.045 C 
ATOM     11  C   UNL     1      32.876 -20.826 -20.137  0.00  0.00    +0.118 C 
ATOM     12  C   UNL     1      36.534 -20.827 -19.957  0.00  0.00    +0.049 C 
ATOM     13  H   UNL     1      34.903 -22.564 -18.667  0.00  0.00    +0.174 HD
ENDBRANCH   2   9
BRANCH   1  14
ATOM     14  C   UNL     1      34.975 -15.766 -24.034  0.00  0.00    +0.002 C 
BRANCH  14  15
ATOM     15  C   UNL     1      33.801 -14.777 -24.024  0.00  0.00    -0.081 C 
BRANCH  15  16
ATOM     16  N   UNL     1      34.186 -13.492 -23.451  0.00  0.00    +0.381 N 
ATOM     17  H   UNL     1      34.058 -12.756 -24.146  0.00  0.00    -0.089 HD
ATOM     18  H   UNL     1      35.166 -13.526 -23.168  0.00  0.00    -0.089 HD
ATOM     19  H   UNL     1      33.605 -13.295 -22.636  0.00  0.00    -0.089 HD
ENDBRANCH  15  16
ENDBRANCH  14  15
ENDBRANCH   1  14
TORSDOF 4
ENDMDL
MODEL 5
REMARK VINA RESULT:      -7.7      2.726      6.401
REMARK  Name = 16122634
REMARK  4 active torsions:
REMARK  status: ('A' for Active; 'I' for Inactive)
REMARK    1  A    between atoms: C_1  and  C_14
REMARK    2  A    between atoms: C_2  and  C_9
REMARK    3  A    between atoms: C_14  and  C_15
REMARK    4  A    between atoms: C_15  and  N_16
REMARK                            x       y       z     vdW  Elec       q    Type
REMARK                         _______ _______ _______ _____ _____    ______ ____
ROOT
ATOM      1  C   UNL     1      34.457 -15.285 -22.761  0.00  0.00    -0.024 C 
ATOM      2  C   UNL     1      35.053 -17.742 -21.583  0.00  0.00    +0.002 C 
ATOM      3  C   UNL     1      34.688 -16.404 -23.561  0.00  0.00    -0.004 C 
ATOM      4  C   UNL     1      34.524 -15.394 -21.373  0.00  0.00    -0.004 C 
ATOM      5  C   UNL     1      34.986 -17.633 -22.972  0.00  0.00    -0.000 C 
ATOM      6  C   UNL     1      34.822 -16.623 -20.783  0.00  0.00    -0.000 C 
ENDROOT
BRANCH   2   9
ATOM      7  N   UNL     1      35.124 -20.985 -20.079  0.00  0.00    -0.240 N 
ATOM      8  N   UNL     1      36.454 -20.792 -20.066  0.00  0.00    -0.180 NA
ATOM      9  C   UNL     1      35.358 -19.007 -20.976  0.00  0.00    +0.031 C 
ATOM     10  C   UNL     1      34.422 -19.945 -20.614  0.00  0.00    +0.045 C 
ATOM     11  C   UNL     1      36.591 -19.583 -20.614  0.00  0.00    +0.118 C 
ATOM     12  C   UNL     1      32.951 -19.976 -20.716  0.00  0.00    +0.049 C 
ATOM     13  H   UNL     1      34.696 -21.802 -19.735  0.00  0.00    +0.174 HD
ENDBRANCH   2   9
BRANCH   1  14
ATOM     14  C   UNL     1      34.139 -13.971 -23.392  0.00  0.00    +0.002 C 
BRANCH  14  15
ATOM     15  C   UNL     1      32.637 -13.808 -23.661  0.00  0.00    -0.081 C 
BRANCH  15  16
ATOM     16  N   UNL     1      31.970 -13.101 -22.572  0.00  0.00    +0.381 N 
ATOM     17  H   UNL     1      31.672 -13.771 -21.863  0.00  0.00    -0.089 HD
ATOM     18  H   UNL     1      31.155 -12.607 -22.938  0.00  0.00    -0.089 HD
ATOM     19  H   UNL     1      32.616 -12.430 -22.157  0.00  0.00    -0.089 HD
ENDBRANCH  15  16
ENDBRANCH  14  15
ENDBRANCH   1  14
TORSDOF 4
ENDMDL
MODEL 6
REMARK VINA RESULT:      -7.3      2.574      7.813
REMARK  Name = 16122634
REMARK  4 active torsions:
REMARK  status: ('A' for Active; 'I' for Inactive)
REMARK    1  A    between atoms: C_1  and  C_14
REMARK    2  A    between atoms: C_2  and  C_9
REMARK    3  A    between atoms: C_14  and  C_15
REMARK    4  A    between atoms: C_15  and  N_16
REMARK                            x       y       z     vdW  Elec       q    Type
REMARK                         _______ _______ _______ _____ _____    ______ ____
ROOT
ATOM      1  C   UNL     1      35.923 -21.721 -18.779  0.00  0.00    -0.024 C 
ATOM      2  C   UNL     1      34.854 -22.949 -16.513  0.00  0.00    +0.002 C 
ATOM      3  C   UNL     1      34.622 -22.224 -18.806  0.00  0.00    -0.004 C 
ATOM      4  C   UNL     1      36.689 -21.832 -17.619  0.00  0.00    -0.004 C 
ATOM      5  C   UNL     1      34.088 -22.838 -17.674  0.00  0.00    -0.000 C 
ATOM      6  C   UNL     1      36.154 -22.446 -16.486  0.00  0.00    -0.000 C 
ENDROOT
BRANCH   2   9
ATOM      7  N   UNL     1      34.032 -24.946 -13.663  0.00  0.00    -0.240 N 
ATOM      8  N   UNL     1      32.976 -24.118 -13.568  0.00  0.00    -0.180 NA
ATOM      9  C   UNL     1      34.304 -23.579 -15.346  0.00  0.00    +0.031 C 
ATOM     10  C   UNL     1      34.858 -24.665 -14.712  0.00  0.00    +0.045 C 
ATOM     11  C   UNL     1      33.148 -23.287 -14.598  0.00  0.00    +0.118 C 
ATOM     12  C   UNL     1      36.069 -25.464 -14.977  0.00  0.00    +0.049 C 
ATOM     13  H   UNL     1      34.193 -25.685 -13.034  0.00  0.00    +0.174 HD
ENDBRANCH   2   9
BRANCH   1  14
ATOM     14  C   UNL     1      36.494 -21.065 -19.990  0.00  0.00    +0.002 C 
BRANCH  14  15
ATOM     15  C   UNL     1      35.475 -20.156 -20.690  0.00  0.00    -0.081 C 
BRANCH  15  16
ATOM     16  N   UNL     1      35.909 -18.762 -20.689  0.00  0.00    +0.381 N 
ATOM     17  H   UNL     1      36.727 -18.661 -20.089  0.00  0.00    -0.089 HD
ATOM     18  H   UNL     1      35.154 -18.172 -20.339  0.00  0.00    -0.089 HD
ATOM     19  H   UNL     1      36.147 -18.480 -21.640  0.00  0.00    -0.089 HD
ENDBRANCH  15  16
ENDBRANCH  14  15
ENDBRANCH   1  14
TORSDOF 4
ENDMDL
MODEL 7
REMARK VINA RESULT:      -7.2      5.658      8.977
REMARK  Name = 16122634
REMARK  4 active torsions:
REMARK  status: ('A' for Active; 'I' for Inactive)
REMARK    1  A    between atoms: C_1  and  C_14
REMARK    2  A    between atoms: C_2  and  C_9
REMARK    3  A    between atoms: C_14  and  C_15
REMARK    4  A    between atoms: C_15  and  N_16
REMARK                            x       y       z     vdW  Elec       q    Type
REMARK                         _______ _______ _______ _____ _____    ______ ____
ROOT
ATOM      1  C   UNL     1      32.592 -10.768 -22.791  0.00  0.00    -0.024 C 
ATOM      2  C   UNL     1      33.162 -13.213 -24.009  0.00  0.00    +0.002 C 
ATOM      3  C   UNL     1      33.471 -10.820 -23.871  0.00  0.00    -0.004 C 
ATOM      4  C   UNL     1      31.997 -11.938 -22.318  0.00  0.00    -0.004 C 
ATOM      5  C   UNL     1      33.756 -12.042 -24.481  0.00  0.00    -0.000 C 
ATOM      6  C   UNL     1      32.283 -13.161 -22.928  0.00  0.00    -0.000 C 
ENDROOT
BRANCH   2   9
ATOM      7  N   UNL     1      34.200 -16.497 -24.967  0.00  0.00    -0.240 N 
ATOM      8  N   UNL     1      33.601 -16.191 -26.131  0.00  0.00    -0.180 NA
ATOM      9  C   UNL     1      33.454 -14.470 -24.636  0.00  0.00    +0.031 C 
ATOM     10  C   UNL     1      34.140 -15.500 -24.038  0.00  0.00    +0.045 C 
ATOM     11  C   UNL     1      33.148 -14.952 -25.923  0.00  0.00    +0.118 C 
ATOM     12  C   UNL     1      34.741 -15.653 -22.700  0.00  0.00    +0.049 C 
ATOM     13  H   UNL     1      34.641 -17.361 -24.801  0.00  0.00    +0.174 HD
ENDBRANCH   2   9
BRANCH   1  14
ATOM     14  C   UNL     1      32.287  -9.462 -22.139  0.00  0.00    +0.002 C 
BRANCH  14  15
ATOM     15  C   UNL     1      31.874  -9.632 -20.670  0.00  0.00    -0.081 C 
BRANCH  15  16
ATOM     16  N   UNL     1      32.580  -8.694 -19.802  0.00  0.00    +0.381 N 
ATOM     17  H   UNL     1      33.586  -8.821 -19.910  0.00  0.00    -0.089 HD
ATOM     18  H   UNL     1      32.317  -8.868 -18.831  0.00  0.00    -0.089 HD
ATOM     19  H   UNL     1      32.327  -7.739 -20.057  0.00  0.00    -0.089 HD
ENDBRANCH  15  16
ENDBRANCH  14  15
ENDBRANCH   1  14
TORSDOF 4
ENDMDL
MODEL 8
REMARK VINA RESULT:      -7.2      6.532      7.837
REMARK  Name = 16122634
REMARK  4 active torsions:
REMARK  status: ('A' for Active; 'I' for Inactive)
REMARK    1  A    between atoms: C_1  and  C_14
REMARK    2  A    between atoms: C_2  and  C_9
REMARK    3  A    between atoms: C_14  and  C_15
REMARK    4  A    between atoms: C_15  and  N_16
REMARK                            x       y       z     vdW  Elec       q    Type
REMARK                         _______ _______ _______ _____ _____    ______ ____
ROOT
ATOM      1  C   UNL     1      31.535 -23.342 -15.500  0.00  0.00    -0.024 C 
ATOM      2  C   UNL     1      34.324 -23.346 -15.580  0.00  0.00    +0.002 C 
ATOM      3  C   UNL     1      32.266 -23.439 -14.317  0.00  0.00    -0.004 C 
ATOM      4  C   UNL     1      32.198 -23.247 -16.724  0.00  0.00    -0.004 C 
ATOM      5  C   UNL     1      33.660 -23.441 -14.356  0.00  0.00    -0.000 C 
ATOM      6  C   UNL     1      33.593 -23.249 -16.763  0.00  0.00    -0.000 C 
ENDROOT
BRANCH   2   9
ATOM      7  N   UNL     1      37.835 -24.014 -15.491  0.00  0.00    -0.240 N 
ATOM      8  N   UNL     1      37.944 -22.724 -15.857  0.00  0.00    -0.180 NA
ATOM      9  C   UNL     1      35.759 -23.347 -15.621  0.00  0.00    +0.031 C 
ATOM     10  C   UNL     1      36.547 -24.435 -15.336  0.00  0.00    +0.045 C 
ATOM     11  C   UNL     1      36.673 -22.323 -15.935  0.00  0.00    +0.118 C 
ATOM     12  C   UNL     1      36.229 -25.819 -14.939  0.00  0.00    +0.049 C 
ATOM     13  H   UNL     1      38.613 -24.599 -15.348  0.00  0.00    +0.174 HD
ENDBRANCH   2   9
BRANCH   1  14
ATOM     14  C   UNL     1      30.044 -23.341 -15.458  0.00  0.00    +0.002 C 
BRANCH  14  15
ATOM     15  C   UNL     1      29.459 -24.743 -15.674  0.00  0.00    -0.081 C 
BRANCH  15  16
ATOM     16  N   UNL     1      29.205 -25.421 -14.407  0.00  0.00    +0.381 N 
ATOM     17  H   UNL     1      28.659 -24.811 -13.798  0.00  0.00    -0.089 HD
ATOM     18  H   UNL     1      30.094 -25.644 -13.957  0.00  0.00    -0.089 HD
ATOM     19  H   UNL     1      28.686 -26.282 -14.580  0.00  0.00    -0.089 HD
ENDBRANCH  15  16
ENDBRANCH  14  15
ENDBRANCH   1  14
TORSDOF 4
ENDMDL
MODEL 9
REMARK VINA RESULT:      -7.1      1.263      6.360
REMARK  Name = 16122634
REMARK  4 active torsions:
REMARK  status: ('A' for Active; 'I' for Inactive)
REMARK    1  A    between atoms: C_1  and  C_14
REMARK    2  A    between atoms: C_2  and  C_9
REMARK    3  A    between atoms: C_14  and  C_15
REMARK    4  A    between atoms: C_15  and  N_16
REMARK                            x       y       z     vdW  Elec       q    Type
REMARK                         _______ _______ _______ _____ _____    ______ ____
ROOT
ATOM      1  C   UNL     1      34.764 -19.380 -21.616  0.00  0.00    -0.024 C 
ATOM      2  C   UNL     1      34.635 -21.200 -19.506  0.00  0.00    +0.002 C 
ATOM      3  C   UNL     1      33.526 -19.774 -21.110  0.00  0.00    -0.004 C 
ATOM      4  C   UNL     1      35.938 -19.896 -21.068  0.00  0.00    -0.004 C 
ATOM      5  C   UNL     1      33.461 -20.684 -20.055  0.00  0.00    -0.000 C 
ATOM      6  C   UNL     1      35.873 -20.806 -20.013  0.00  0.00    -0.000 C 
ENDROOT
BRANCH   2   9
ATOM      7  N   UNL     1      35.103 -23.283 -16.638  0.00  0.00    -0.240 N 
ATOM      8  N   UNL     1      33.886 -23.755 -16.961  0.00  0.00    -0.180 NA
ATOM      9  C   UNL     1      34.570 -22.136 -18.419  0.00  0.00    +0.031 C 
ATOM     10  C   UNL     1      35.557 -22.311 -17.481  0.00  0.00    +0.045 C 
ATOM     11  C   UNL     1      33.566 -23.051 -18.049  0.00  0.00    +0.118 C 
ATOM     12  C   UNL     1      36.872 -21.672 -17.285  0.00  0.00    +0.049 C 
ATOM     13  H   UNL     1      35.618 -23.608 -15.865  0.00  0.00    +0.174 HD
ENDBRANCH   2   9
BRANCH   1  14
ATOM     14  C   UNL     1      34.832 -18.408 -22.746  0.00  0.00    +0.002 C 
BRANCH  14  15
ATOM     15  C   UNL     1      34.747 -19.102 -24.112  0.00  0.00    -0.081 C 
BRANCH  15  16
ATOM     16  N   UNL     1      34.439 -18.154 -25.178  0.00  0.00    +0.381 N 
ATOM     17  H   UNL     1      33.548 -18.404 -25.609  0.00  0.00    -0.089 HD
ATOM     18  H   UNL     1      35.178 -18.183 -25.881  0.00  0.00    -0.089 HD
ATOM     19  H   UNL     1      34.376 -17.214 -24.788  0.00  0.00    -0.089 HD
ENDBRANCH  15  16
ENDBRANCH  14  15
ENDBRANCH   1  14
TORSDOF 4
ENDMDL
