MODEL 1
REMARK VINA RESULT:      -7.5      0.000      0.000
REMARK  Name = 3637
REMARK  1 active torsions:
REMARK  status: ('A' for Active; 'I' for Inactive)
REMARK    1  A    between atoms: N_1  and  N_13
REMARK                            x       y       z     vdW  Elec       q    Type
REMARK                         _______ _______ _______ _____ _____    ______ ____
ROOT
ATOM      1  N   UNL     1      32.779 -22.449 -18.354  0.00  0.00    -0.266 N 
ATOM      2  N   UNL     1      35.124 -22.512 -18.107  0.00  0.00    -0.132 NA
ATOM      3  N   UNL     1      36.374 -22.100 -18.447  0.00  0.00    -0.145 NA
ATOM      4  C   UNL     1      34.165 -21.027 -19.748  0.00  0.00    +0.036 C 
ATOM      5  C   UNL     1      35.455 -20.602 -20.099  0.00  0.00    +0.024 C 
ATOM      6  C   UNL     1      34.058 -21.984 -18.746  0.00  0.00    +0.163 C 
ATOM      7  C   UNL     1      33.051 -20.483 -20.410  0.00  0.00    +0.003 C 
ATOM      8  C   UNL     1      35.619 -19.636 -21.106  0.00  0.00    +0.002 C 
ATOM      9  C   UNL     1      33.224 -19.524 -21.409  0.00  0.00    +0.000 C 
ATOM     10  C   UNL     1      36.524 -21.171 -19.416  0.00  0.00    +0.122 C 
ATOM     11  C   UNL     1      34.506 -19.102 -21.756  0.00  0.00    +0.000 C 
ATOM     12  H   UNL     1      31.980 -21.934 -18.612  0.00  0.00    +0.168 HD
ENDROOT
BRANCH   1  13
ATOM     13  N   UNL     1      32.626 -23.601 -17.623  0.00  0.00    -0.255 NA
ATOM     14  H   UNL     1      31.665 -23.932 -17.708  0.00  0.00    +0.140 HD
ATOM     15  H   UNL     1      32.836 -23.411 -16.643  0.00  0.00    +0.140 HD
ENDBRANCH   1  13
TORSDOF 1
ENDMDL
MODEL 2
REMARK VINA RESULT:      -7.5      4.138      5.605
REMARK  Name = 3637
REMARK  1 active torsions:
REMARK  status: ('A' for Active; 'I' for Inactive)
REMARK    1  A    between atoms: N_1  and  N_13
REMARK                            x       y       z     vdW  Elec       q    Type
REMARK                         _______ _______ _______ _____ _____    ______ ____
ROOT
ATOM      1  N   UNL     1      35.778 -19.001 -21.379  0.00  0.00    -0.266 N 
ATOM      2  N   UNL     1      35.267 -16.893 -20.454  0.00  0.00    -0.132 NA
ATOM      3  N   UNL     1      34.819 -15.614 -20.566  0.00  0.00    -0.145 NA
ATOM      4  C   UNL     1      34.904 -17.249 -22.812  0.00  0.00    +0.036 C 
ATOM      5  C   UNL     1      34.443 -15.929 -22.927  0.00  0.00    +0.024 C 
ATOM      6  C   UNL     1      35.303 -17.679 -21.552  0.00  0.00    +0.163 C 
ATOM      7  C   UNL     1      34.945 -18.073 -23.950  0.00  0.00    +0.003 C 
ATOM      8  C   UNL     1      34.026 -15.446 -24.178  0.00  0.00    +0.002 C 
ATOM      9  C   UNL     1      34.530 -17.582 -25.189  0.00  0.00    +0.000 C 
ATOM     10  C   UNL     1      34.421 -15.156 -21.772  0.00  0.00    +0.122 C 
ATOM     11  C   UNL     1      34.071 -16.271 -25.303  0.00  0.00    +0.000 C 
ATOM     12  H   UNL     1      35.601 -19.671 -22.079  0.00  0.00    +0.168 HD
ENDROOT
BRANCH   1  13
ATOM     13  N   UNL     1      36.479 -19.373 -20.259  0.00  0.00    -0.255 NA
ATOM     14  H   UNL     1      37.203 -20.043 -20.518  0.00  0.00    +0.140 HD
ATOM     15  H   UNL     1      35.842 -19.802 -19.587  0.00  0.00    +0.140 HD
ENDBRANCH   1  13
TORSDOF 1
ENDMDL
MODEL 3
REMARK VINA RESULT:      -7.4      7.621      8.247
REMARK  Name = 3637
REMARK  1 active torsions:
REMARK  status: ('A' for Active; 'I' for Inactive)
REMARK    1  A    between atoms: N_1  and  N_13
REMARK                            x       y       z     vdW  Elec       q    Type
REMARK                         _______ _______ _______ _____ _____    ______ ____
ROOT
ATOM      1  N   UNL     1      36.362 -26.823 -15.427  0.00  0.00    -0.266 N 
ATOM      2  N   UNL     1      38.657 -26.726 -14.891  0.00  0.00    -0.132 NA
ATOM      3  N   UNL     1      39.697 -26.225 -14.174  0.00  0.00    -0.145 NA
ATOM      4  C   UNL     1      37.121 -25.295 -13.702  0.00  0.00    +0.036 C 
ATOM      5  C   UNL     1      38.196 -24.778 -12.963  0.00  0.00    +0.024 C 
ATOM      6  C   UNL     1      37.409 -26.267 -14.653  0.00  0.00    +0.163 C 
ATOM      7  C   UNL     1      35.820 -24.822 -13.460  0.00  0.00    +0.003 C 
ATOM      8  C   UNL     1      37.959 -23.793 -11.989  0.00  0.00    +0.002 C 
ATOM      9  C   UNL     1      35.596 -23.844 -12.491  0.00  0.00    +0.000 C 
ATOM     10  C   UNL     1      39.462 -25.278 -13.240  0.00  0.00    +0.122 C 
ATOM     11  C   UNL     1      36.663 -23.330 -11.757  0.00  0.00    +0.000 C 
ATOM     12  H   UNL     1      35.430 -26.702 -15.132  0.00  0.00    +0.168 HD
ENDROOT
BRANCH   1  13
ATOM     13  N   UNL     1      36.615 -27.527 -16.578  0.00  0.00    -0.255 NA
ATOM     14  H   UNL     1      36.023 -27.173 -17.330  0.00  0.00    +0.140 HD
ATOM     15  H   UNL     1      36.414 -28.515 -16.423  0.00  0.00    +0.140 HD
ENDBRANCH   1  13
TORSDOF 1
ENDMDL
MODEL 4
REMARK VINA RESULT:      -7.4      5.786      6.941
REMARK  Name = 3637
REMARK  1 active torsions:
REMARK  status: ('A' for Active; 'I' for Inactive)
REMARK    1  A    between atoms: N_1  and  N_13
REMARK                            x       y       z     vdW  Elec       q    Type
REMARK                         _______ _______ _______ _____ _____    ______ ____
ROOT
ATOM      1  N   UNL     1      34.321 -13.985 -23.772  0.00  0.00    -0.266 N 
ATOM      2  N   UNL     1      34.636 -14.699 -21.546  0.00  0.00    -0.132 NA
ATOM      3  N   UNL     1      34.835 -15.673 -20.620  0.00  0.00    -0.145 NA
ATOM      4  C   UNL     1      34.607 -16.349 -23.306  0.00  0.00    +0.036 C 
ATOM      5  C   UNL     1      34.812 -17.354 -22.349  0.00  0.00    +0.024 C 
ATOM      6  C   UNL     1      34.527 -15.038 -22.849  0.00  0.00    +0.163 C 
ATOM      7  C   UNL     1      34.492 -16.694 -24.663  0.00  0.00    +0.003 C 
ATOM      8  C   UNL     1      34.901 -18.695 -22.758  0.00  0.00    +0.002 C 
ATOM      9  C   UNL     1      34.581 -18.030 -25.059  0.00  0.00    +0.000 C 
ATOM     10  C   UNL     1      34.919 -16.960 -21.020  0.00  0.00    +0.122 C 
ATOM     11  C   UNL     1      34.785 -19.028 -24.108  0.00  0.00    +0.000 C 
ATOM     12  H   UNL     1      34.474 -14.149 -24.731  0.00  0.00    +0.168 HD
ENDROOT
BRANCH   1  13
ATOM     13  N   UNL     1      33.914 -12.739 -23.363  0.00  0.00    -0.255 NA
ATOM     14  H   UNL     1      34.558 -12.036 -23.725  0.00  0.00    +0.140 HD
ATOM     15  H   UNL     1      33.907 -12.702 -22.343  0.00  0.00    +0.140 HD
ENDBRANCH   1  13
TORSDOF 1
ENDMDL
MODEL 5
REMARK VINA RESULT:      -7.4      6.758      7.897
REMARK  Name = 3637
REMARK  1 active torsions:
REMARK  status: ('A' for Active; 'I' for Inactive)
REMARK    1  A    between atoms: N_1  and  N_13
REMARK                            x       y       z     vdW  Elec       q    Type
REMARK                         _______ _______ _______ _____ _____    ______ ____
ROOT
ATOM      1  N   UNL     1      33.068 -14.161 -25.382  0.00  0.00    -0.266 N 
ATOM      2  N   UNL     1      33.968 -16.273 -25.920  0.00  0.00    -0.132 NA
ATOM      3  N   UNL     1      34.579 -17.436 -25.573  0.00  0.00    -0.145 NA
ATOM      4  C   UNL     1      34.029 -15.531 -23.626  0.00  0.00    +0.036 C 
ATOM      5  C   UNL     1      34.660 -16.732 -23.268  0.00  0.00    +0.024 C 
ATOM      6  C   UNL     1      33.705 -15.354 -24.966  0.00  0.00    +0.163 C 
ATOM      7  C   UNL     1      33.753 -14.570 -22.638  0.00  0.00    +0.003 C 
ATOM      8  C   UNL     1      35.009 -16.961 -21.927  0.00  0.00    +0.002 C 
ATOM      9  C   UNL     1      34.104 -14.807 -21.309  0.00  0.00    +0.000 C 
ATOM     10  C   UNL     1      34.911 -17.650 -24.282  0.00  0.00    +0.122 C 
ATOM     11  C   UNL     1      34.731 -16.000 -20.953  0.00  0.00    +0.000 C 
ATOM     12  H   UNL     1      32.647 -13.580 -24.706  0.00  0.00    +0.168 HD
ENDROOT
BRANCH   1  13
ATOM     13  N   UNL     1      33.020 -13.793 -26.704  0.00  0.00    -0.255 NA
ATOM     14  H   UNL     1      32.097 -13.418 -26.919  0.00  0.00    +0.140 HD
ATOM     15  H   UNL     1      33.203 -14.608 -27.290  0.00  0.00    +0.140 HD
ENDBRANCH   1  13
TORSDOF 1
ENDMDL
MODEL 6
REMARK VINA RESULT:      -7.4      6.167      7.293
REMARK  Name = 3637
REMARK  1 active torsions:
REMARK  status: ('A' for Active; 'I' for Inactive)
REMARK    1  A    between atoms: N_1  and  N_13
REMARK                            x       y       z     vdW  Elec       q    Type
REMARK                         _______ _______ _______ _____ _____    ______ ____
ROOT
ATOM      1  N   UNL     1      34.151 -14.248 -23.024  0.00  0.00    -0.266 N 
ATOM      2  N   UNL     1      33.987 -15.389 -25.082  0.00  0.00    -0.132 NA
ATOM      3  N   UNL     1      34.079 -16.517 -25.834  0.00  0.00    -0.145 NA
ATOM      4  C   UNL     1      34.642 -16.622 -23.115  0.00  0.00    +0.036 C 
ATOM      5  C   UNL     1      34.737 -17.785 -23.892  0.00  0.00    +0.024 C 
ATOM      6  C   UNL     1      34.262 -15.451 -23.761  0.00  0.00    +0.163 C 
ATOM      7  C   UNL     1      34.927 -16.679 -21.740  0.00  0.00    +0.003 C 
ATOM      8  C   UNL     1      35.116 -18.996 -23.287  0.00  0.00    +0.002 C 
ATOM      9  C   UNL     1      35.304 -17.885 -21.149  0.00  0.00    +0.000 C 
ATOM     10  C   UNL     1      34.444 -17.677 -25.246  0.00  0.00    +0.122 C 
ATOM     11  C   UNL     1      35.398 -19.042 -21.921  0.00  0.00    +0.000 C 
ATOM     12  H   UNL     1      34.106 -14.288 -22.041  0.00  0.00    +0.168 HD
ENDROOT
BRANCH   1  13
ATOM     13  N   UNL     1      34.103 -13.025 -23.647  0.00  0.00    -0.255 NA
ATOM     14  H   UNL     1      34.352 -12.294 -22.981  0.00  0.00    +0.140 HD
ATOM     15  H   UNL     1      33.160 -12.859 -23.998  0.00  0.00    +0.140 HD
ENDBRANCH   1  13
TORSDOF 1
ENDMDL
MODEL 7
REMARK VINA RESULT:      -7.3      1.234      2.796
REMARK  Name = 3637
REMARK  1 active torsions:
REMARK  status: ('A' for Active; 'I' for Inactive)
REMARK    1  A    between atoms: N_1  and  N_13
REMARK                            x       y       z     vdW  Elec       q    Type
REMARK                         _______ _______ _______ _____ _____    ______ ____
ROOT
ATOM      1  N   UNL     1      36.337 -21.798 -18.584  0.00  0.00    -0.266 N 
ATOM      2  N   UNL     1      34.014 -21.950 -18.963  0.00  0.00    -0.132 NA
ATOM      3  N   UNL     1      32.879 -21.563 -19.603  0.00  0.00    -0.145 NA
ATOM      4  C   UNL     1      35.301 -20.358 -20.239  0.00  0.00    +0.036 C 
ATOM      5  C   UNL     1      34.130 -19.959 -20.899  0.00  0.00    +0.024 C 
ATOM      6  C   UNL     1      35.186 -21.358 -19.280  0.00  0.00    +0.163 C 
ATOM      7  C   UNL     1      36.525 -19.747 -20.563  0.00  0.00    +0.003 C 
ATOM      8  C   UNL     1      34.191 -18.953 -21.877  0.00  0.00    +0.002 C 
ATOM      9  C   UNL     1      36.575 -18.747 -21.536  0.00  0.00    +0.000 C 
ATOM     10  C   UNL     1      32.946 -20.595 -20.542  0.00  0.00    +0.122 C 
ATOM     11  C   UNL     1      35.411 -18.351 -22.192  0.00  0.00    +0.000 C 
ATOM     12  H   UNL     1      37.229 -21.577 -18.940  0.00  0.00    +0.168 HD
ENDROOT
BRANCH   1  13
ATOM     13  N   UNL     1      36.241 -22.528 -17.425  0.00  0.00    -0.255 NA
ATOM     14  H   UNL     1      36.379 -23.517 -17.634  0.00  0.00    +0.140 HD
ATOM     15  H   UNL     1      35.318 -22.392 -17.013  0.00  0.00    +0.140 HD
ENDBRANCH   1  13
TORSDOF 1
ENDMDL
MODEL 8
REMARK VINA RESULT:      -7.1      6.143      7.247
REMARK  Name = 3637
REMARK  1 active torsions:
REMARK  status: ('A' for Active; 'I' for Inactive)
REMARK    1  A    between atoms: N_1  and  N_13
REMARK                            x       y       z     vdW  Elec       q    Type
REMARK                         _______ _______ _______ _____ _____    ______ ____
ROOT
ATOM      1  N   UNL     1      34.081 -16.159 -25.604  0.00  0.00    -0.266 N 
ATOM      2  N   UNL     1      34.009 -14.488 -23.941  0.00  0.00    -0.132 NA
ATOM      3  N   UNL     1      34.140 -14.077 -22.653  0.00  0.00    -0.145 NA
ATOM      4  C   UNL     1      34.593 -16.739 -23.305  0.00  0.00    +0.036 C 
ATOM      5  C   UNL     1      34.728 -16.315 -21.975  0.00  0.00    +0.024 C 
ATOM      6  C   UNL     1      34.232 -15.784 -24.248  0.00  0.00    +0.163 C 
ATOM      7  C   UNL     1      34.823 -18.087 -23.631  0.00  0.00    +0.003 C 
ATOM      8  C   UNL     1      35.093 -17.241 -20.983  0.00  0.00    +0.002 C 
ATOM      9  C   UNL     1      35.184 -19.000 -22.638  0.00  0.00    +0.000 C 
ATOM     10  C   UNL     1      34.491 -14.972 -21.705  0.00  0.00    +0.122 C 
ATOM     11  C   UNL     1      35.319 -18.577 -21.317  0.00  0.00    +0.000 C 
ATOM     12  H   UNL     1      34.458 -17.016 -25.911  0.00  0.00    +0.168 HD
ENDROOT
BRANCH   1  13
ATOM     13  N   UNL     1      33.422 -15.357 -26.503  0.00  0.00    -0.255 NA
ATOM     14  H   UNL     1      32.487 -15.728 -26.669  0.00  0.00    +0.140 HD
ATOM     15  H   UNL     1      33.941 -15.333 -27.381  0.00  0.00    +0.140 HD
ENDBRANCH   1  13
TORSDOF 1
ENDMDL
MODEL 9
REMARK VINA RESULT:      -7.1      3.398      4.422
REMARK  Name = 3637
REMARK  1 active torsions:
REMARK  status: ('A' for Active; 'I' for Inactive)
REMARK    1  A    between atoms: N_1  and  N_13
REMARK                            x       y       z     vdW  Elec       q    Type
REMARK                         _______ _______ _______ _____ _____    ______ ____
ROOT
ATOM      1  N   UNL     1      34.936 -17.641 -22.678  0.00  0.00    -0.266 N 
ATOM      2  N   UNL     1      36.935 -18.514 -21.779  0.00  0.00    -0.132 NA
ATOM      3  N   UNL     1      37.607 -19.383 -20.980  0.00  0.00    -0.145 NA
ATOM      4  C   UNL     1      34.832 -19.480 -21.098  0.00  0.00    +0.036 C 
ATOM      5  C   UNL     1      35.526 -20.376 -20.273  0.00  0.00    +0.024 C 
ATOM      6  C   UNL     1      35.586 -18.569 -21.830  0.00  0.00    +0.163 C 
ATOM      7  C   UNL     1      33.429 -19.532 -21.155  0.00  0.00    +0.003 C 
ATOM      8  C   UNL     1      34.812 -21.317 -19.513  0.00  0.00    +0.002 C 
ATOM      9  C   UNL     1      32.728 -20.469 -20.396  0.00  0.00    +0.000 C 
ATOM     10  C   UNL     1      36.913 -20.284 -20.252  0.00  0.00    +0.122 C 
ATOM     11  C   UNL     1      33.418 -21.361 -19.576  0.00  0.00    +0.000 C 
ATOM     12  H   UNL     1      33.996 -17.796 -22.930  0.00  0.00    +0.168 HD
ENDROOT
BRANCH   1  13
ATOM     13  N   UNL     1      35.584 -16.531 -23.160  0.00  0.00    -0.255 NA
ATOM     14  H   UNL     1      34.916 -15.768 -23.270  0.00  0.00    +0.140 HD
ATOM     15  H   UNL     1      36.004 -16.749 -24.064  0.00  0.00    +0.140 HD
ENDBRANCH   1  13
TORSDOF 1
ENDMDL
