MODEL 1
REMARK VINA RESULT:      -8.7      0.000      0.000
REMARK  Name = 5578
REMARK  5 active torsions:
REMARK  status: ('A' for Active; 'I' for Inactive)
REMARK    1  A    between atoms: C_1  and  C_6
REMARK    2  A    between atoms: C_1  and  C_14
REMARK    3  A    between atoms: C_17  and  O_20
REMARK    4  A    between atoms: C_18  and  O_22
REMARK    5  A    between atoms: C_19  and  O_24
REMARK                            x       y       z     vdW  Elec       q    Type
REMARK                         _______ _______ _______ _____ _____    ______ ____
ROOT
ATOM      1  C   UNL     1      35.844 -18.417 -22.371  0.00  0.00    +0.058 C 
ENDROOT
BRANCH   1   6
ATOM      2  N   UNL     1      34.860 -20.830 -19.634  0.00  0.00    -0.323 NA
ATOM      3  N   UNL     1      32.908 -20.265 -20.930  0.00  0.00    -0.170 NA
ATOM      4  N   UNL     1      36.969 -19.893 -20.180  0.00  0.00    -0.332 N 
ATOM      5  N   UNL     1      32.762 -21.744 -19.115  0.00  0.00    -0.293 N 
ATOM      6  C   UNL     1      35.029 -19.326 -21.473  0.00  0.00    +0.047 C 
ATOM      7  C   UNL     1      35.581 -20.020 -20.436  0.00  0.00    +0.188 C 
ATOM      8  C   UNL     1      33.690 -19.472 -21.692  0.00  0.00    +0.112 C 
ATOM      9  C   UNL     1      33.548 -20.906 -19.934  0.00  0.00    +0.143 C 
ATOM     10  H   UNL     1      37.379 -20.389 -19.434  0.00  0.00    +0.145 HD
ATOM     11  H   UNL     1      37.523 -19.310 -20.748  0.00  0.00    +0.145 HD
ATOM     12  H   UNL     1      33.178 -22.238 -18.372  0.00  0.00    +0.155 HD
ATOM     13  H   UNL     1      31.798 -21.837 -19.289  0.00  0.00    +0.155 HD
ENDBRANCH   1   6
BRANCH   1  14
ATOM     14  C   UNL     1      35.104 -17.211 -22.842  0.00  0.00    -0.011 C 
ATOM     15  C   UNL     1      34.897 -17.008 -24.206  0.00  0.00    +0.036 C 
ATOM     16  C   UNL     1      34.621 -16.284 -21.917  0.00  0.00    +0.036 C 
ATOM     17  C   UNL     1      33.930 -15.156 -22.357  0.00  0.00    +0.175 C 
ATOM     18  C   UNL     1      34.205 -15.878 -24.645  0.00  0.00    +0.175 C 
ATOM     19  C   UNL     1      33.722 -14.953 -23.721  0.00  0.00    +0.206 C 
BRANCH  17  20
ATOM     20  O   UNL     1      33.463 -14.259 -21.444  0.00  0.00    -0.468 OA
ATOM     21  C   UNL     1      32.740 -14.784 -20.331  0.00  0.00    +0.253 C 
ENDBRANCH  17  20
BRANCH  18  22
ATOM     22  O   UNL     1      34.009 -15.693 -25.981  0.00  0.00    -0.468 OA
ATOM     23  C   UNL     1      32.690 -15.906 -26.478  0.00  0.00    +0.253 C 
ENDBRANCH  18  22
BRANCH  19  24
ATOM     24  O   UNL     1      33.046 -13.849 -24.152  0.00  0.00    -0.465 OA
ATOM     25  C   UNL     1      33.812 -12.668 -24.375  0.00  0.00    +0.253 C 
ENDBRANCH  19  24
ENDBRANCH   1  14
TORSDOF 5
ENDMDL
MODEL 2
REMARK VINA RESULT:      -8.7      0.052      2.649
REMARK  Name = 5578
REMARK  5 active torsions:
REMARK  status: ('A' for Active; 'I' for Inactive)
REMARK    1  A    between atoms: C_1  and  C_6
REMARK    2  A    between atoms: C_1  and  C_14
REMARK    3  A    between atoms: C_17  and  O_20
REMARK    4  A    between atoms: C_18  and  O_22
REMARK    5  A    between atoms: C_19  and  O_24
REMARK                            x       y       z     vdW  Elec       q    Type
REMARK                         _______ _______ _______ _____ _____    ______ ____
ROOT
ATOM      1  C   UNL     1      35.839 -18.446 -22.326  0.00  0.00    +0.058 C 
ENDROOT
BRANCH   1   6
ATOM      2  N   UNL     1      34.848 -20.874 -19.605  0.00  0.00    -0.323 NA
ATOM      3  N   UNL     1      32.897 -20.289 -20.894  0.00  0.00    -0.170 NA
ATOM      4  N   UNL     1      36.961 -19.943 -20.147  0.00  0.00    -0.332 N 
ATOM      5  N   UNL     1      32.747 -21.781 -19.089  0.00  0.00    -0.293 N 
ATOM      6  C   UNL     1      35.022 -19.357 -21.433  0.00  0.00    +0.047 C 
ATOM      7  C   UNL     1      35.573 -20.062 -20.402  0.00  0.00    +0.188 C 
ATOM      8  C   UNL     1      33.681 -19.494 -21.651  0.00  0.00    +0.112 C 
ATOM      9  C   UNL     1      33.536 -20.941 -19.903  0.00  0.00    +0.143 C 
ATOM     10  H   UNL     1      37.370 -20.446 -19.406  0.00  0.00    +0.145 HD
ATOM     11  H   UNL     1      37.517 -19.359 -20.712  0.00  0.00    +0.145 HD
ATOM     12  H   UNL     1      33.162 -22.282 -18.350  0.00  0.00    +0.155 HD
ATOM     13  H   UNL     1      31.781 -21.868 -19.262  0.00  0.00    +0.155 HD
ENDBRANCH   1   6
BRANCH   1  14
ATOM     14  C   UNL     1      35.100 -17.240 -22.799  0.00  0.00    -0.011 C 
ATOM     15  C   UNL     1      34.604 -16.320 -21.877  0.00  0.00    +0.036 C 
ATOM     16  C   UNL     1      34.904 -17.034 -24.165  0.00  0.00    +0.036 C 
ATOM     17  C   UNL     1      34.212 -15.907 -24.608  0.00  0.00    +0.175 C 
ATOM     18  C   UNL     1      33.912 -15.192 -22.321  0.00  0.00    +0.175 C 
ATOM     19  C   UNL     1      33.716 -14.986 -23.686  0.00  0.00    +0.206 C 
BRANCH  17  20
ATOM     20  O   UNL     1      34.028 -15.717 -25.945  0.00  0.00    -0.468 OA
ATOM     21  C   UNL     1      32.710 -15.916 -26.451  0.00  0.00    +0.253 C 
ENDBRANCH  17  20
BRANCH  18  22
ATOM     22  O   UNL     1      33.434 -14.300 -21.408  0.00  0.00    -0.468 OA
ATOM     23  C   UNL     1      32.712 -14.832 -20.300  0.00  0.00    +0.253 C 
ENDBRANCH  18  22
BRANCH  19  24
ATOM     24  O   UNL     1      33.040 -13.884 -24.118  0.00  0.00    -0.465 OA
ATOM     25  C   UNL     1      33.804 -12.701 -24.340  0.00  0.00    +0.253 C 
ENDBRANCH  19  24
ENDBRANCH   1  14
TORSDOF 5
ENDMDL
MODEL 3
REMARK VINA RESULT:      -8.5      1.719      2.868
REMARK  Name = 5578
REMARK  5 active torsions:
REMARK  status: ('A' for Active; 'I' for Inactive)
REMARK    1  A    between atoms: C_1  and  C_6
REMARK    2  A    between atoms: C_1  and  C_14
REMARK    3  A    between atoms: C_17  and  O_20
REMARK    4  A    between atoms: C_18  and  O_22
REMARK    5  A    between atoms: C_19  and  O_24
REMARK                            x       y       z     vdW  Elec       q    Type
REMARK                         _______ _______ _______ _____ _____    ______ ____
ROOT
ATOM      1  C   UNL     1      33.587 -20.330 -20.962  0.00  0.00    +0.058 C 
ENDROOT
BRANCH   1   6
ATOM      2  N   UNL     1      35.051 -22.308 -18.094  0.00  0.00    -0.323 NA
ATOM      3  N   UNL     1      36.776 -20.939 -19.073  0.00  0.00    -0.170 NA
ATOM      4  N   UNL     1      32.846 -22.256 -18.965  0.00  0.00    -0.332 N 
ATOM      5  N   UNL     1      37.240 -22.341 -17.250  0.00  0.00    -0.293 N 
ATOM      6  C   UNL     1      34.559 -20.891 -19.944  0.00  0.00    +0.047 C 
ATOM      7  C   UNL     1      34.189 -21.806 -19.002  0.00  0.00    +0.188 C 
ATOM      8  C   UNL     1      35.861 -20.479 -19.951  0.00  0.00    +0.112 C 
ATOM      9  C   UNL     1      36.310 -21.837 -18.184  0.00  0.00    +0.143 C 
ATOM     10  H   UNL     1      32.566 -22.916 -18.290  0.00  0.00    +0.145 HD
ATOM     11  H   UNL     1      32.192 -21.908 -19.614  0.00  0.00    +0.145 HD
ATOM     12  H   UNL     1      36.954 -23.000 -16.577  0.00  0.00    +0.155 HD
ATOM     13  H   UNL     1      38.175 -22.032 -17.270  0.00  0.00    +0.155 HD
ENDBRANCH   1   6
BRANCH   1  14
ATOM     14  C   UNL     1      33.987 -19.003 -21.513  0.00  0.00    -0.011 C 
ATOM     15  C   UNL     1      34.470 -18.906 -22.817  0.00  0.00    +0.036 C 
ATOM     16  C   UNL     1      33.879 -17.858 -20.722  0.00  0.00    +0.036 C 
ATOM     17  C   UNL     1      34.253 -16.617 -21.236  0.00  0.00    +0.175 C 
ATOM     18  C   UNL     1      34.844 -17.664 -23.332  0.00  0.00    +0.175 C 
ATOM     19  C   UNL     1      34.736 -16.520 -22.541  0.00  0.00    +0.206 C 
BRANCH  17  20
ATOM     20  O   UNL     1      34.143 -15.507 -20.454  0.00  0.00    -0.468 OA
ATOM     21  C   UNL     1      32.838 -14.953 -20.298  0.00  0.00    +0.253 C 
ENDBRANCH  17  20
BRANCH  18  22
ATOM     22  O   UNL     1      35.313 -17.584 -24.609  0.00  0.00    -0.468 OA
ATOM     23  C   UNL     1      34.345 -17.570 -25.655  0.00  0.00    +0.253 C 
ENDBRANCH  18  22
BRANCH  19  24
ATOM     24  O   UNL     1      35.102 -15.307 -23.045  0.00  0.00    -0.465 OA
ATOM     25  C   UNL     1      34.083 -14.533 -23.673  0.00  0.00    +0.253 C 
ENDBRANCH  19  24
ENDBRANCH   1  14
TORSDOF 5
ENDMDL
MODEL 4
REMARK VINA RESULT:      -8.5      1.736      3.871
REMARK  Name = 5578
REMARK  5 active torsions:
REMARK  status: ('A' for Active; 'I' for Inactive)
REMARK    1  A    between atoms: C_1  and  C_6
REMARK    2  A    between atoms: C_1  and  C_14
REMARK    3  A    between atoms: C_17  and  O_20
REMARK    4  A    between atoms: C_18  and  O_22
REMARK    5  A    between atoms: C_19  and  O_24
REMARK                            x       y       z     vdW  Elec       q    Type
REMARK                         _______ _______ _______ _____ _____    ______ ____
ROOT
ATOM      1  C   UNL     1      33.575 -20.343 -20.921  0.00  0.00    +0.058 C 
ENDROOT
BRANCH   1   6
ATOM      2  N   UNL     1      35.065 -22.338 -18.077  0.00  0.00    -0.323 NA
ATOM      3  N   UNL     1      36.773 -20.939 -19.042  0.00  0.00    -0.170 NA
ATOM      4  N   UNL     1      32.857 -22.300 -18.945  0.00  0.00    -0.332 N 
ATOM      5  N   UNL     1      37.255 -22.357 -17.236  0.00  0.00    -0.293 N 
ATOM      6  C   UNL     1      34.555 -20.906 -19.911  0.00  0.00    +0.047 C 
ATOM      7  C   UNL     1      34.195 -21.835 -18.978  0.00  0.00    +0.188 C 
ATOM      8  C   UNL     1      35.852 -20.479 -19.914  0.00  0.00    +0.112 C 
ATOM      9  C   UNL     1      36.318 -21.853 -18.164  0.00  0.00    +0.143 C 
ATOM     10  H   UNL     1      32.586 -22.972 -18.278  0.00  0.00    +0.145 HD
ATOM     11  H   UNL     1      32.200 -21.952 -19.589  0.00  0.00    +0.145 HD
ATOM     12  H   UNL     1      36.977 -23.027 -16.571  0.00  0.00    +0.155 HD
ATOM     13  H   UNL     1      38.186 -22.038 -17.254  0.00  0.00    +0.155 HD
ENDBRANCH   1   6
BRANCH   1  14
ATOM     14  C   UNL     1      33.982 -19.026 -21.489  0.00  0.00    -0.011 C 
ATOM     15  C   UNL     1      33.880 -17.871 -20.714  0.00  0.00    +0.036 C 
ATOM     16  C   UNL     1      34.464 -18.948 -22.795  0.00  0.00    +0.036 C 
ATOM     17  C   UNL     1      34.844 -17.716 -23.327  0.00  0.00    +0.175 C 
ATOM     18  C   UNL     1      34.260 -16.638 -21.246  0.00  0.00    +0.175 C 
ATOM     19  C   UNL     1      34.741 -16.562 -22.553  0.00  0.00    +0.206 C 
BRANCH  17  20
ATOM     20  O   UNL     1      35.313 -17.655 -24.605  0.00  0.00    -0.468 OA
ATOM     21  C   UNL     1      34.343 -17.599 -25.649  0.00  0.00    +0.253 C 
ENDBRANCH  17  20
BRANCH  18  22
ATOM     22  O   UNL     1      34.155 -15.518 -20.478  0.00  0.00    -0.468 OA
ATOM     23  C   UNL     1      32.851 -14.966 -20.310  0.00  0.00    +0.253 C 
ENDBRANCH  18  22
BRANCH  19  24
ATOM     24  O   UNL     1      35.113 -15.356 -23.072  0.00  0.00    -0.465 OA
ATOM     25  C   UNL     1      34.091 -14.572 -23.681  0.00  0.00    +0.253 C 
ENDBRANCH  19  24
ENDBRANCH   1  14
TORSDOF 5
ENDMDL
MODEL 5
REMARK VINA RESULT:      -8.4      6.825      9.547
REMARK  Name = 5578
REMARK  5 active torsions:
REMARK  status: ('A' for Active; 'I' for Inactive)
REMARK    1  A    between atoms: C_1  and  C_6
REMARK    2  A    between atoms: C_1  and  C_14
REMARK    3  A    between atoms: C_17  and  O_20
REMARK    4  A    between atoms: C_18  and  O_22
REMARK    5  A    between atoms: C_19  and  O_24
REMARK                            x       y       z     vdW  Elec       q    Type
REMARK                         _______ _______ _______ _____ _____    ______ ____
ROOT
ATOM      1  C   UNL     1      35.070 -23.814 -14.306  0.00  0.00    +0.058 C 
ENDROOT
BRANCH   1   6
ATOM      2  N   UNL     1      37.830 -26.324 -14.910  0.00  0.00    -0.323 NA
ATOM      3  N   UNL     1      38.793 -24.266 -14.106  0.00  0.00    -0.170 NA
ATOM      4  N   UNL     1      35.483 -26.512 -15.200  0.00  0.00    -0.332 N 
ATOM      5  N   UNL     1      40.148 -26.113 -14.615  0.00  0.00    -0.293 N 
ATOM      6  C   UNL     1      36.437 -24.461 -14.400  0.00  0.00    +0.047 C 
ATOM      7  C   UNL     1      36.614 -25.745 -14.826  0.00  0.00    +0.188 C 
ATOM      8  C   UNL     1      37.548 -23.750 -14.047  0.00  0.00    +0.112 C 
ATOM      9  C   UNL     1      38.861 -25.540 -14.539  0.00  0.00    +0.143 C 
ATOM     10  H   UNL     1      35.598 -27.440 -15.510  0.00  0.00    +0.145 HD
ATOM     11  H   UNL     1      34.583 -26.118 -15.149  0.00  0.00    +0.145 HD
ATOM     12  H   UNL     1      40.256 -27.041 -14.925  0.00  0.00    +0.155 HD
ATOM     13  H   UNL     1      40.938 -25.585 -14.356  0.00  0.00    +0.155 HD
ENDBRANCH   1   6
BRANCH   1  14
ATOM     14  C   UNL     1      34.502 -23.406 -15.624  0.00  0.00    -0.011 C 
ATOM     15  C   UNL     1      33.121 -23.385 -15.811  0.00  0.00    +0.036 C 
ATOM     16  C   UNL     1      35.353 -23.047 -16.669  0.00  0.00    +0.036 C 
ATOM     17  C   UNL     1      34.823 -22.666 -17.901  0.00  0.00    +0.175 C 
ATOM     18  C   UNL     1      32.590 -23.003 -17.044  0.00  0.00    +0.175 C 
ATOM     19  C   UNL     1      33.442 -22.645 -18.089  0.00  0.00    +0.206 C 
BRANCH  17  20
ATOM     20  O   UNL     1      35.666 -22.318 -18.914  0.00  0.00    -0.468 OA
ATOM     21  C   UNL     1      36.639 -21.315 -18.630  0.00  0.00    +0.253 C 
ENDBRANCH  17  20
BRANCH  18  22
ATOM     22  O   UNL     1      31.238 -22.986 -17.213  0.00  0.00    -0.468 OA
ATOM     23  C   UNL     1      30.438 -22.941 -16.034  0.00  0.00    +0.253 C 
ENDBRANCH  18  22
BRANCH  19  24
ATOM     24  O   UNL     1      32.922 -22.272 -19.294  0.00  0.00    -0.465 OA
ATOM     25  C   UNL     1      32.960 -20.884 -19.613  0.00  0.00    +0.253 C 
ENDBRANCH  19  24
ENDBRANCH   1  14
TORSDOF 5
ENDMDL
MODEL 6
REMARK VINA RESULT:      -8.4      8.286     10.851
REMARK  Name = 5578
REMARK  5 active torsions:
REMARK  status: ('A' for Active; 'I' for Inactive)
REMARK    1  A    between atoms: C_1  and  C_6
REMARK    2  A    between atoms: C_1  and  C_14
REMARK    3  A    between atoms: C_17  and  O_20
REMARK    4  A    between atoms: C_18  and  O_22
REMARK    5  A    between atoms: C_19  and  O_24
REMARK                            x       y       z     vdW  Elec       q    Type
REMARK                         _______ _______ _______ _____ _____    ______ ____
ROOT
ATOM      1  C   UNL     1      31.264 -23.530 -13.755  0.00  0.00    +0.058 C 
ENDROOT
BRANCH   1   6
ATOM      2  N   UNL     1      28.587 -24.399 -16.277  0.00  0.00    -0.323 NA
ATOM      3  N   UNL     1      29.057 -22.038 -16.403  0.00  0.00    -0.170 NA
ATOM      4  N   UNL     1      29.752 -25.768 -14.730  0.00  0.00    -0.332 N 
ATOM      5  N   UNL     1      27.449 -23.023 -17.799  0.00  0.00    -0.293 N 
ATOM      6  C   UNL     1      30.223 -23.419 -14.850  0.00  0.00    +0.047 C 
ATOM      7  C   UNL     1      29.514 -24.494 -15.302  0.00  0.00    +0.188 C 
ATOM      8  C   UNL     1      29.970 -22.206 -15.423  0.00  0.00    +0.112 C 
ATOM      9  C   UNL     1      28.412 -23.160 -16.777  0.00  0.00    +0.143 C 
ATOM     10  H   UNL     1      29.246 -26.552 -15.046  0.00  0.00    +0.145 HD
ATOM     11  H   UNL     1      30.422 -25.870 -14.017  0.00  0.00    +0.145 HD
ATOM     12  H   UNL     1      26.948 -23.810 -18.112  0.00  0.00    +0.155 HD
ATOM     13  H   UNL     1      27.280 -22.140 -18.201  0.00  0.00    +0.155 HD
ENDBRANCH   1   6
BRANCH   1  14
ATOM     14  C   UNL     1      32.657 -23.705 -14.259  0.00  0.00    -0.011 C 
ATOM     15  C   UNL     1      32.964 -23.390 -15.582  0.00  0.00    +0.036 C 
ATOM     16  C   UNL     1      33.651 -24.186 -13.407  0.00  0.00    +0.036 C 
ATOM     17  C   UNL     1      34.954 -24.350 -13.878  0.00  0.00    +0.175 C 
ATOM     18  C   UNL     1      34.268 -23.554 -16.053  0.00  0.00    +0.175 C 
ATOM     19  C   UNL     1      35.261 -24.034 -15.200  0.00  0.00    +0.206 C 
BRANCH  17  20
ATOM     20  O   UNL     1      35.916 -24.820 -13.035  0.00  0.00    -0.468 OA
ATOM     21  C   UNL     1      35.711 -24.613 -11.639  0.00  0.00    +0.253 C 
ENDBRANCH  17  20
BRANCH  18  22
ATOM     22  O   UNL     1      34.554 -23.241 -17.347  0.00  0.00    -0.468 OA
ATOM     23  C   UNL     1      33.472 -22.793 -18.161  0.00  0.00    +0.253 C 
ENDBRANCH  18  22
BRANCH  19  24
ATOM     24  O   UNL     1      36.535 -24.194 -15.662  0.00  0.00    -0.465 OA
ATOM     25  C   UNL     1      37.407 -23.071 -15.559  0.00  0.00    +0.253 C 
ENDBRANCH  19  24
ENDBRANCH   1  14
TORSDOF 5
ENDMDL
MODEL 7
REMARK VINA RESULT:      -8.4      8.301     11.113
REMARK  Name = 5578
REMARK  5 active torsions:
REMARK  status: ('A' for Active; 'I' for Inactive)
REMARK    1  A    between atoms: C_1  and  C_6
REMARK    2  A    between atoms: C_1  and  C_14
REMARK    3  A    between atoms: C_17  and  O_20
REMARK    4  A    between atoms: C_18  and  O_22
REMARK    5  A    between atoms: C_19  and  O_24
REMARK                            x       y       z     vdW  Elec       q    Type
REMARK                         _______ _______ _______ _____ _____    ______ ____
ROOT
ATOM      1  C   UNL     1      31.292 -23.574 -13.758  0.00  0.00    +0.058 C 
ENDROOT
BRANCH   1   6
ATOM      2  N   UNL     1      28.596 -24.381 -16.281  0.00  0.00    -0.323 NA
ATOM      3  N   UNL     1      29.112 -22.030 -16.399  0.00  0.00    -0.170 NA
ATOM      4  N   UNL     1      29.735 -25.779 -14.740  0.00  0.00    -0.332 N 
ATOM      5  N   UNL     1      27.483 -22.978 -17.797  0.00  0.00    -0.293 N 
ATOM      6  C   UNL     1      30.252 -23.438 -14.852  0.00  0.00    +0.047 C 
ATOM      7  C   UNL     1      29.522 -24.498 -15.307  0.00  0.00    +0.188 C 
ATOM      8  C   UNL     1      30.022 -22.219 -15.421  0.00  0.00    +0.112 C 
ATOM      9  C   UNL     1      28.444 -23.137 -16.776  0.00  0.00    +0.143 C 
ATOM     10  H   UNL     1      29.214 -26.551 -15.059  0.00  0.00    +0.145 HD
ATOM     11  H   UNL     1      30.404 -25.897 -14.028  0.00  0.00    +0.145 HD
ATOM     12  H   UNL     1      26.966 -23.754 -18.112  0.00  0.00    +0.155 HD
ATOM     13  H   UNL     1      27.331 -22.091 -18.195  0.00  0.00    +0.155 HD
ENDBRANCH   1   6
BRANCH   1  14
ATOM     14  C   UNL     1      32.686 -23.730 -14.264  0.00  0.00    -0.011 C 
ATOM     15  C   UNL     1      33.687 -24.202 -13.416  0.00  0.00    +0.036 C 
ATOM     16  C   UNL     1      32.989 -23.404 -15.587  0.00  0.00    +0.036 C 
ATOM     17  C   UNL     1      34.292 -23.550 -16.060  0.00  0.00    +0.175 C 
ATOM     18  C   UNL     1      34.991 -24.348 -13.890  0.00  0.00    +0.175 C 
ATOM     19  C   UNL     1      35.293 -24.021 -15.212  0.00  0.00    +0.206 C 
BRANCH  17  20
ATOM     20  O   UNL     1      34.575 -23.228 -17.354  0.00  0.00    -0.468 OA
ATOM     21  C   UNL     1      33.474 -22.863 -18.185  0.00  0.00    +0.253 C 
ENDBRANCH  17  20
BRANCH  18  22
ATOM     22  O   UNL     1      35.959 -24.810 -13.050  0.00  0.00    -0.468 OA
ATOM     23  C   UNL     1      35.787 -24.553 -11.658  0.00  0.00    +0.253 C 
ENDBRANCH  18  22
BRANCH  19  24
ATOM     24  O   UNL     1      36.569 -24.164 -15.674  0.00  0.00    -0.465 OA
ATOM     25  C   UNL     1      37.417 -23.022 -15.595  0.00  0.00    +0.253 C 
ENDBRANCH  19  24
ENDBRANCH   1  14
TORSDOF 5
ENDMDL
MODEL 8
REMARK VINA RESULT:      -8.3      5.647      7.666
REMARK  Name = 5578
REMARK  5 active torsions:
REMARK  status: ('A' for Active; 'I' for Inactive)
REMARK    1  A    between atoms: C_1  and  C_6
REMARK    2  A    between atoms: C_1  and  C_14
REMARK    3  A    between atoms: C_17  and  O_20
REMARK    4  A    between atoms: C_18  and  O_22
REMARK    5  A    between atoms: C_19  and  O_24
REMARK                            x       y       z     vdW  Elec       q    Type
REMARK                         _______ _______ _______ _____ _____    ______ ____
ROOT
ATOM      1  C   UNL     1      31.169 -12.050 -21.396  0.00  0.00    +0.058 C 
ENDROOT
BRANCH   1   6
ATOM      2  N   UNL     1      32.155  -9.119 -19.225  0.00  0.00    -0.323 NA
ATOM      3  N   UNL     1      32.480  -8.533 -21.540  0.00  0.00    -0.170 NA
ATOM      4  N   UNL     1      31.331 -11.264 -18.639  0.00  0.00    -0.332 N 
ATOM      5  N   UNL     1      32.968  -7.003 -19.830  0.00  0.00    -0.293 N 
ATOM      6  C   UNL     1      31.654 -10.687 -20.945  0.00  0.00    +0.047 C 
ATOM      7  C   UNL     1      31.724 -10.331 -19.630  0.00  0.00    +0.188 C 
ATOM      8  C   UNL     1      32.040  -9.764 -21.874  0.00  0.00    +0.112 C 
ATOM      9  C   UNL     1      32.512  -8.280 -20.217  0.00  0.00    +0.143 C 
ATOM     10  H   UNL     1      31.378 -11.019 -17.686  0.00  0.00    +0.145 HD
ATOM     11  H   UNL     1      31.012 -12.157 -18.903  0.00  0.00    +0.145 HD
ATOM     12  H   UNL     1      33.011  -6.763 -18.876  0.00  0.00    +0.155 HD
ATOM     13  H   UNL     1      33.242  -6.349 -20.514  0.00  0.00    +0.155 HD
ENDBRANCH   1   6
BRANCH   1  14
ATOM     14  C   UNL     1      32.243 -12.919 -21.959  0.00  0.00    -0.011 C 
ATOM     15  C   UNL     1      32.467 -12.948 -23.334  0.00  0.00    +0.036 C 
ATOM     16  C   UNL     1      33.022 -13.703 -21.108  0.00  0.00    +0.036 C 
ATOM     17  C   UNL     1      34.026 -14.516 -21.633  0.00  0.00    +0.175 C 
ATOM     18  C   UNL     1      33.472 -13.761 -23.860  0.00  0.00    +0.175 C 
ATOM     19  C   UNL     1      34.250 -14.545 -23.009  0.00  0.00    +0.206 C 
BRANCH  17  20
ATOM     20  O   UNL     1      34.780 -15.277 -20.792  0.00  0.00    -0.468 OA
ATOM     21  C   UNL     1      34.395 -16.641 -20.631  0.00  0.00    +0.253 C 
ENDBRANCH  17  20
BRANCH  18  22
ATOM     22  O   UNL     1      33.681 -13.779 -25.206  0.00  0.00    -0.468 OA
ATOM     23  C   UNL     1      32.704 -14.444 -26.005  0.00  0.00    +0.253 C 
ENDBRANCH  18  22
BRANCH  19  24
ATOM     24  O   UNL     1      35.232 -15.340 -23.524  0.00  0.00    -0.465 OA
ATOM     25  C   UNL     1      34.836 -16.613 -24.030  0.00  0.00    +0.253 C 
ENDBRANCH  19  24
ENDBRANCH   1  14
TORSDOF 5
ENDMDL
MODEL 9
REMARK VINA RESULT:      -8.3      5.679      8.049
REMARK  Name = 5578
REMARK  5 active torsions:
REMARK  status: ('A' for Active; 'I' for Inactive)
REMARK    1  A    between atoms: C_1  and  C_6
REMARK    2  A    between atoms: C_1  and  C_14
REMARK    3  A    between atoms: C_17  and  O_20
REMARK    4  A    between atoms: C_18  and  O_22
REMARK    5  A    between atoms: C_19  and  O_24
REMARK                            x       y       z     vdW  Elec       q    Type
REMARK                         _______ _______ _______ _____ _____    ______ ____
ROOT
ATOM      1  C   UNL     1      31.121 -11.940 -21.481  0.00  0.00    +0.058 C 
ENDROOT
BRANCH   1   6
ATOM      2  N   UNL     1      32.188  -9.082 -19.251  0.00  0.00    -0.323 NA
ATOM      3  N   UNL     1      32.483  -8.440 -21.555  0.00  0.00    -0.170 NA
ATOM      4  N   UNL     1      31.342 -11.230 -18.707  0.00  0.00    -0.332 N 
ATOM      5  N   UNL     1      33.023  -6.963 -19.814  0.00  0.00    -0.293 N 
ATOM      6  C   UNL     1      31.634 -10.597 -21.003  0.00  0.00    +0.047 C 
ATOM      7  C   UNL     1      31.732 -10.276 -19.680  0.00  0.00    +0.188 C 
ATOM      8  C   UNL     1      32.018  -9.655 -21.914  0.00  0.00    +0.112 C 
ATOM      9  C   UNL     1      32.540  -8.223 -20.227  0.00  0.00    +0.143 C 
ATOM     10  H   UNL     1      31.408 -11.011 -17.749  0.00  0.00    +0.145 HD
ATOM     11  H   UNL     1      31.004 -12.110 -18.989  0.00  0.00    +0.145 HD
ATOM     12  H   UNL     1      33.086  -6.749 -18.855  0.00  0.00    +0.155 HD
ATOM     13  H   UNL     1      33.294  -6.296 -20.485  0.00  0.00    +0.155 HD
ENDBRANCH   1   6
BRANCH   1  14
ATOM     14  C   UNL     1      32.182 -12.833 -22.029  0.00  0.00    -0.011 C 
ATOM     15  C   UNL     1      32.897 -13.673 -21.175  0.00  0.00    +0.036 C 
ATOM     16  C   UNL     1      32.461 -12.827 -23.396  0.00  0.00    +0.036 C 
ATOM     17  C   UNL     1      33.454 -13.662 -23.909  0.00  0.00    +0.175 C 
ATOM     18  C   UNL     1      33.890 -14.508 -21.689  0.00  0.00    +0.175 C 
ATOM     19  C   UNL     1      34.168 -14.502 -23.055  0.00  0.00    +0.206 C 
BRANCH  17  20
ATOM     20  O   UNL     1      33.716 -13.647 -25.246  0.00  0.00    -0.468 OA
ATOM     21  C   UNL     1      32.752 -14.258 -26.102  0.00  0.00    +0.253 C 
ENDBRANCH  17  20
BRANCH  18  22
ATOM     22  O   UNL     1      34.579 -15.324 -20.843  0.00  0.00    -0.468 OA
ATOM     23  C   UNL     1      34.077 -16.646 -20.666  0.00  0.00    +0.253 C 
ENDBRANCH  18  22
BRANCH  19  24
ATOM     24  O   UNL     1      35.139 -15.318 -23.556  0.00  0.00    -0.465 OA
ATOM     25  C   UNL     1      34.716 -16.562 -24.111  0.00  0.00    +0.253 C 
ENDBRANCH  19  24
ENDBRANCH   1  14
TORSDOF 5
ENDMDL
