MODEL 1
REMARK VINA RESULT:      -7.8      0.000      0.000
REMARK  Name = 448010
REMARK  1 active torsions:
REMARK  status: ('A' for Active; 'I' for Inactive)
REMARK    1  A    between atoms: C_9  and  N_16
REMARK                            x       y       z     vdW  Elec       q    Type
REMARK                         _______ _______ _______ _____ _____    ______ ____
ROOT
ATOM      1  O   UNL     1      36.750 -22.016 -18.460  0.00  0.00    -0.209 OA
ATOM      2  N   UNL     1      32.767 -21.928 -18.890  0.00  0.00    -0.275 N 
ATOM      3  N   UNL     1      34.698 -22.791 -17.797  0.00  0.00    -0.302 NA
ATOM      4  N   UNL     1      32.535 -23.491 -17.228  0.00  0.00    -0.320 N 
ATOM      5  C   UNL     1      33.524 -21.099 -19.721  0.00  0.00    +0.063 C 
ATOM      6  C   UNL     1      34.918 -21.107 -19.596  0.00  0.00    +0.109 C 
ATOM      7  C   UNL     1      35.712 -20.293 -20.408  0.00  0.00    +0.028 C 
ATOM      8  C   UNL     1      32.926 -20.267 -20.672  0.00  0.00    +0.017 C 
ATOM      9  C   UNL     1      35.104 -19.465 -21.353  0.00  0.00    +0.042 C 
ATOM     10  C   UNL     1      33.716 -19.452 -21.485  0.00  0.00    +0.015 C 
ATOM     11  C   UNL     1      35.528 -22.005 -18.575  0.00  0.00    +0.208 C 
ATOM     12  C   UNL     1      33.403 -22.731 -17.971  0.00  0.00    +0.248 C 
ATOM     13  H   UNL     1      31.785 -21.939 -18.962  0.00  0.00    +0.156 HD
ATOM     14  H   UNL     1      31.564 -23.422 -17.383  0.00  0.00    +0.146 HD
ATOM     15  H   UNL     1      32.881 -24.103 -16.539  0.00  0.00    +0.146 HD
ENDROOT
BRANCH   9  16
ATOM     16  N   UNL     1      35.897 -18.640 -22.179  0.00  0.00    -0.357 N 
ATOM     17  H   UNL     1      36.878 -18.719 -22.158  0.00  0.00    +0.142 HD
ATOM     18  H   UNL     1      35.468 -17.983 -22.774  0.00  0.00    +0.142 HD
ENDBRANCH   9  16
TORSDOF 1
ENDMDL
MODEL 2
REMARK VINA RESULT:      -7.7      5.040      7.737
REMARK  Name = 448010
REMARK  1 active torsions:
REMARK  status: ('A' for Active; 'I' for Inactive)
REMARK    1  A    between atoms: C_9  and  N_16
REMARK                            x       y       z     vdW  Elec       q    Type
REMARK                         _______ _______ _______ _____ _____    ______ ____
ROOT
ATOM      1  O   UNL     1      34.700 -18.086 -25.653  0.00  0.00    -0.209 OA
ATOM      2  N   UNL     1      33.480 -14.551 -24.214  0.00  0.00    -0.275 N 
ATOM      3  N   UNL     1      33.752 -16.039 -26.053  0.00  0.00    -0.302 NA
ATOM      4  N   UNL     1      32.802 -13.912 -26.310  0.00  0.00    -0.320 N 
ATOM      5  C   UNL     1      34.041 -15.456 -23.311  0.00  0.00    +0.063 C 
ATOM      6  C   UNL     1      34.478 -16.700 -23.782  0.00  0.00    +0.109 C 
ATOM      7  C   UNL     1      35.045 -17.634 -22.911  0.00  0.00    +0.028 C 
ATOM      8  C   UNL     1      34.179 -15.151 -21.954  0.00  0.00    +0.017 C 
ATOM      9  C   UNL     1      35.176 -17.319 -21.558  0.00  0.00    +0.042 C 
ATOM     10  C   UNL     1      34.745 -16.082 -21.081  0.00  0.00    +0.015 C 
ATOM     11  C   UNL     1      34.320 -16.997 -25.233  0.00  0.00    +0.208 C 
ATOM     12  C   UNL     1      33.368 -14.898 -25.542  0.00  0.00    +0.248 C 
ATOM     13  H   UNL     1      33.167 -13.670 -23.904  0.00  0.00    +0.156 HD
ATOM     14  H   UNL     1      32.522 -13.063 -25.894  0.00  0.00    +0.146 HD
ATOM     15  H   UNL     1      32.673 -14.052 -27.275  0.00  0.00    +0.146 HD
ENDROOT
BRANCH   9  16
ATOM     16  N   UNL     1      35.749 -18.254 -20.670  0.00  0.00    -0.357 N 
ATOM     17  H   UNL     1      35.422 -19.183 -20.656  0.00  0.00    +0.142 HD
ATOM     18  H   UNL     1      36.473 -17.978 -20.064  0.00  0.00    +0.142 HD
ENDBRANCH   9  16
TORSDOF 1
ENDMDL
MODEL 3
REMARK VINA RESULT:      -7.5      1.855      2.700
REMARK  Name = 448010
REMARK  1 active torsions:
REMARK  status: ('A' for Active; 'I' for Inactive)
REMARK    1  A    between atoms: C_9  and  N_16
REMARK                            x       y       z     vdW  Elec       q    Type
REMARK                         _______ _______ _______ _____ _____    ______ ____
ROOT
ATOM      1  O   UNL     1      32.105 -20.174 -20.881  0.00  0.00    -0.209 OA
ATOM      2  N   UNL     1      35.133 -21.920 -18.922  0.00  0.00    -0.275 N 
ATOM      3  N   UNL     1      32.801 -21.753 -19.374  0.00  0.00    -0.302 NA
ATOM      4  N   UNL     1      33.661 -23.318 -17.855  0.00  0.00    -0.320 N 
ATOM      5  C   UNL     1      35.448 -20.887 -19.807  0.00  0.00    +0.063 C 
ATOM      6  C   UNL     1      34.412 -20.256 -20.507  0.00  0.00    +0.109 C 
ATOM      7  C   UNL     1      34.685 -19.218 -21.402  0.00  0.00    +0.028 C 
ATOM      8  C   UNL     1      36.766 -20.468 -20.010  0.00  0.00    +0.017 C 
ATOM      9  C   UNL     1      36.004 -18.809 -21.597  0.00  0.00    +0.042 C 
ATOM     10  C   UNL     1      37.042 -19.432 -20.904  0.00  0.00    +0.015 C 
ATOM     11  C   UNL     1      33.017 -20.722 -20.270  0.00  0.00    +0.208 C 
ATOM     12  C   UNL     1      33.818 -22.294 -18.756  0.00  0.00    +0.248 C 
ATOM     13  H   UNL     1      35.846 -22.377 -18.419  0.00  0.00    +0.156 HD
ATOM     14  H   UNL     1      34.448 -23.705 -17.407  0.00  0.00    +0.146 HD
ATOM     15  H   UNL     1      32.762 -23.666 -17.659  0.00  0.00    +0.146 HD
ENDROOT
BRANCH   9  16
ATOM     16  N   UNL     1      36.290 -17.761 -22.498  0.00  0.00    -0.357 N 
ATOM     17  H   UNL     1      35.987 -16.846 -22.302  0.00  0.00    +0.142 HD
ATOM     18  H   UNL     1      36.792 -17.946 -23.325  0.00  0.00    +0.142 HD
ENDBRANCH   9  16
TORSDOF 1
ENDMDL
MODEL 4
REMARK VINA RESULT:      -7.5      4.503      6.107
REMARK  Name = 448010
REMARK  1 active torsions:
REMARK  status: ('A' for Active; 'I' for Inactive)
REMARK    1  A    between atoms: C_9  and  N_16
REMARK                            x       y       z     vdW  Elec       q    Type
REMARK                         _______ _______ _______ _____ _____    ______ ____
ROOT
ATOM      1  O   UNL     1      34.358 -14.993 -20.617  0.00  0.00    -0.209 OA
ATOM      2  N   UNL     1      35.496 -18.300 -22.573  0.00  0.00    -0.275 N 
ATOM      3  N   UNL     1      35.334 -17.065 -20.543  0.00  0.00    -0.302 NA
ATOM      4  N   UNL     1      36.307 -19.196 -20.624  0.00  0.00    -0.320 N 
ATOM      5  C   UNL     1      34.879 -17.291 -23.316  0.00  0.00    +0.063 C 
ATOM      6  C   UNL     1      34.470 -16.122 -22.662  0.00  0.00    +0.109 C 
ATOM      7  C   UNL     1      33.849 -15.089 -23.368  0.00  0.00    +0.028 C 
ATOM      8  C   UNL     1      34.663 -17.417 -24.691  0.00  0.00    +0.017 C 
ATOM      9  C   UNL     1      33.637 -15.227 -24.740  0.00  0.00    +0.042 C 
ATOM     10  C   UNL     1      34.042 -16.387 -25.400  0.00  0.00    +0.015 C 
ATOM     11  C   UNL     1      34.715 -16.014 -21.196  0.00  0.00    +0.208 C 
ATOM     12  C   UNL     1      35.689 -18.126 -21.221  0.00  0.00    +0.248 C 
ATOM     13  H   UNL     1      35.792 -19.129 -23.013  0.00  0.00    +0.156 HD
ATOM     14  H   UNL     1      36.562 -19.980 -21.162  0.00  0.00    +0.146 HD
ATOM     15  H   UNL     1      36.495 -19.179 -19.658  0.00  0.00    +0.146 HD
ENDROOT
BRANCH   9  16
ATOM     16  N   UNL     1      33.012 -14.189 -25.464  0.00  0.00    -0.357 N 
ATOM     17  H   UNL     1      33.407 -13.869 -26.306  0.00  0.00    +0.142 HD
ATOM     18  H   UNL     1      32.180 -13.785 -25.125  0.00  0.00    +0.142 HD
ENDBRANCH   9  16
TORSDOF 1
ENDMDL
MODEL 5
REMARK VINA RESULT:      -7.4      4.052      5.665
REMARK  Name = 448010
REMARK  1 active torsions:
REMARK  status: ('A' for Active; 'I' for Inactive)
REMARK    1  A    between atoms: C_9  and  N_16
REMARK                            x       y       z     vdW  Elec       q    Type
REMARK                         _______ _______ _______ _____ _____    ______ ____
ROOT
ATOM      1  O   UNL     1      34.845 -18.111 -24.838  0.00  0.00    -0.209 OA
ATOM      2  N   UNL     1      34.995 -18.082 -20.834  0.00  0.00    -0.275 N 
ATOM      3  N   UNL     1      35.104 -19.283 -22.887  0.00  0.00    -0.302 NA
ATOM      4  N   UNL     1      35.350 -20.347 -20.813  0.00  0.00    -0.320 N 
ATOM      5  C   UNL     1      34.779 -16.862 -21.480  0.00  0.00    +0.063 C 
ATOM      6  C   UNL     1      34.720 -16.839 -22.879  0.00  0.00    +0.109 C 
ATOM      7  C   UNL     1      34.505 -15.640 -23.564  0.00  0.00    +0.028 C 
ATOM      8  C   UNL     1      34.618 -15.671 -20.768  0.00  0.00    +0.017 C 
ATOM      9  C   UNL     1      34.347 -14.457 -22.843  0.00  0.00    +0.042 C 
ATOM     10  C   UNL     1      34.403 -14.471 -21.449  0.00  0.00    +0.015 C 
ATOM     11  C   UNL     1      34.894 -18.125 -23.612  0.00  0.00    +0.208 C 
ATOM     12  C   UNL     1      35.146 -19.229 -21.581  0.00  0.00    +0.248 C 
ATOM     13  H   UNL     1      35.039 -18.121 -19.851  0.00  0.00    +0.156 HD
ATOM     14  H   UNL     1      35.376 -20.272 -19.831  0.00  0.00    +0.146 HD
ATOM     15  H   UNL     1      35.470 -21.224 -21.243  0.00  0.00    +0.146 HD
ENDROOT
BRANCH   9  16
ATOM     16  N   UNL     1      34.128 -13.241 -23.524  0.00  0.00    -0.357 N 
ATOM     17  H   UNL     1      33.240 -13.038 -23.897  0.00  0.00    +0.142 HD
ATOM     18  H   UNL     1      34.865 -12.596 -23.629  0.00  0.00    +0.142 HD
ENDBRANCH   9  16
TORSDOF 1
ENDMDL
MODEL 6
REMARK VINA RESULT:      -7.3      6.056      8.434
REMARK  Name = 448010
REMARK  1 active torsions:
REMARK  status: ('A' for Active; 'I' for Inactive)
REMARK    1  A    between atoms: C_9  and  N_16
REMARK                            x       y       z     vdW  Elec       q    Type
REMARK                         _______ _______ _______ _____ _____    ______ ____
ROOT
ATOM      1  O   UNL     1      33.073 -15.528 -26.776  0.00  0.00    -0.209 OA
ATOM      2  N   UNL     1      34.451 -14.239 -23.241  0.00  0.00    -0.275 N 
ATOM      3  N   UNL     1      33.402 -13.782 -25.329  0.00  0.00    -0.302 NA
ATOM      4  N   UNL     1      33.806 -12.098 -23.750  0.00  0.00    -0.320 N 
ATOM      5  C   UNL     1      34.582 -15.600 -23.527  0.00  0.00    +0.063 C 
ATOM      6  C   UNL     1      34.110 -16.082 -24.754  0.00  0.00    +0.109 C 
ATOM      7  C   UNL     1      34.222 -17.437 -25.079  0.00  0.00    +0.028 C 
ATOM      8  C   UNL     1      35.170 -16.489 -22.623  0.00  0.00    +0.017 C 
ATOM      9  C   UNL     1      34.811 -18.314 -24.168  0.00  0.00    +0.042 C 
ATOM     10  C   UNL     1      35.283 -17.842 -22.944  0.00  0.00    +0.015 C 
ATOM     11  C   UNL     1      33.488 -15.112 -25.699  0.00  0.00    +0.208 C 
ATOM     12  C   UNL     1      33.865 -13.405 -24.166  0.00  0.00    +0.248 C 
ATOM     13  H   UNL     1      34.776 -13.880 -22.384  0.00  0.00    +0.156 HD
ATOM     14  H   UNL     1      34.163 -11.846 -22.867  0.00  0.00    +0.146 HD
ATOM     15  H   UNL     1      33.407 -11.413 -24.333  0.00  0.00    +0.146 HD
ENDROOT
BRANCH   9  16
ATOM     16  N   UNL     1      34.929 -19.684 -24.487  0.00  0.00    -0.357 N 
ATOM     17  H   UNL     1      35.164 -20.334 -23.786  0.00  0.00    +0.142 HD
ATOM     18  H   UNL     1      34.779 -19.989 -25.411  0.00  0.00    +0.142 HD
ENDBRANCH   9  16
TORSDOF 1
ENDMDL
MODEL 7
REMARK VINA RESULT:      -7.3      4.102      6.908
REMARK  Name = 448010
REMARK  1 active torsions:
REMARK  status: ('A' for Active; 'I' for Inactive)
REMARK    1  A    between atoms: C_9  and  N_16
REMARK                            x       y       z     vdW  Elec       q    Type
REMARK                         _______ _______ _______ _____ _____    ______ ____
ROOT
ATOM      1  O   UNL     1      34.818 -14.818 -20.335  0.00  0.00    -0.209 OA
ATOM      2  N   UNL     1      34.149 -15.871 -24.143  0.00  0.00    -0.275 N 
ATOM      3  N   UNL     1      34.191 -14.197 -22.449  0.00  0.00    -0.302 NA
ATOM      4  N   UNL     1      33.569 -13.712 -24.656  0.00  0.00    -0.320 N 
ATOM      5  C   UNL     1      34.567 -16.870 -23.261  0.00  0.00    +0.063 C 
ATOM      6  C   UNL     1      34.809 -16.535 -21.923  0.00  0.00    +0.109 C 
ATOM      7  C   UNL     1      35.228 -17.505 -21.009  0.00  0.00    +0.028 C 
ATOM      8  C   UNL     1      34.747 -18.192 -23.679  0.00  0.00    +0.017 C 
ATOM      9  C   UNL     1      35.406 -18.820 -21.439  0.00  0.00    +0.042 C 
ATOM     10  C   UNL     1      35.166 -19.163 -22.769  0.00  0.00    +0.015 C 
ATOM     11  C   UNL     1      34.607 -15.119 -21.506  0.00  0.00    +0.208 C 
ATOM     12  C   UNL     1      33.984 -14.584 -23.681  0.00  0.00    +0.248 C 
ATOM     13  H   UNL     1      33.972 -16.085 -25.087  0.00  0.00    +0.156 HD
ATOM     14  H   UNL     1      33.422 -14.035 -25.576  0.00  0.00    +0.146 HD
ATOM     15  H   UNL     1      33.419 -12.764 -24.438  0.00  0.00    +0.146 HD
ENDROOT
BRANCH   9  16
ATOM     16  N   UNL     1      35.828 -19.808 -20.523  0.00  0.00    -0.357 N 
ATOM     17  H   UNL     1      35.164 -20.303 -19.992  0.00  0.00    +0.142 HD
ATOM     18  H   UNL     1      36.787 -20.001 -20.415  0.00  0.00    +0.142 HD
ENDBRANCH   9  16
TORSDOF 1
ENDMDL
MODEL 8
REMARK VINA RESULT:      -7.2      6.229      7.651
REMARK  Name = 448010
REMARK  1 active torsions:
REMARK  status: ('A' for Active; 'I' for Inactive)
REMARK    1  A    between atoms: C_9  and  N_16
REMARK                            x       y       z     vdW  Elec       q    Type
REMARK                         _______ _______ _______ _____ _____    ______ ____
ROOT
ATOM      1  O   UNL     1      33.489 -15.135 -25.462  0.00  0.00    -0.209 OA
ATOM      2  N   UNL     1      34.861 -16.606 -21.997  0.00  0.00    -0.275 N 
ATOM      3  N   UNL     1      34.787 -16.679 -24.376  0.00  0.00    -0.302 NA
ATOM      4  N   UNL     1      36.068 -18.195 -23.129  0.00  0.00    -0.320 N 
ATOM      5  C   UNL     1      33.990 -15.516 -21.935  0.00  0.00    +0.063 C 
ATOM      6  C   UNL     1      33.492 -14.979 -23.128  0.00  0.00    +0.109 C 
ATOM      7  C   UNL     1      32.619 -13.888 -23.110  0.00  0.00    +0.028 C 
ATOM      8  C   UNL     1      33.603 -14.952 -20.716  0.00  0.00    +0.017 C 
ATOM      9  C   UNL     1      32.241 -13.333 -21.888  0.00  0.00    +0.042 C 
ATOM     10  C   UNL     1      32.731 -13.862 -20.694  0.00  0.00    +0.015 C 
ATOM     11  C   UNL     1      33.921 -15.601 -24.412  0.00  0.00    +0.208 C 
ATOM     12  C   UNL     1      35.210 -17.128 -23.223  0.00  0.00    +0.248 C 
ATOM     13  H   UNL     1      35.222 -17.000 -21.170  0.00  0.00    +0.156 HD
ATOM     14  H   UNL     1      36.369 -18.508 -22.244  0.00  0.00    +0.146 HD
ATOM     15  H   UNL     1      36.383 -18.646 -23.944  0.00  0.00    +0.146 HD
ENDROOT
BRANCH   9  16
ATOM     16  N   UNL     1      31.359 -12.232 -21.858  0.00  0.00    -0.357 N 
ATOM     17  H   UNL     1      30.736 -12.120 -21.104  0.00  0.00    +0.142 HD
ATOM     18  H   UNL     1      31.365 -11.576 -22.593  0.00  0.00    +0.142 HD
ENDBRANCH   9  16
TORSDOF 1
ENDMDL
MODEL 9
REMARK VINA RESULT:      -7.1      5.948      7.718
REMARK  Name = 448010
REMARK  1 active torsions:
REMARK  status: ('A' for Active; 'I' for Inactive)
REMARK    1  A    between atoms: C_9  and  N_16
REMARK                            x       y       z     vdW  Elec       q    Type
REMARK                         _______ _______ _______ _____ _____    ______ ____
ROOT
ATOM      1  O   UNL     1      36.929 -26.302 -11.929  0.00  0.00    -0.209 OA
ATOM      2  N   UNL     1      38.478 -24.633 -15.225  0.00  0.00    -0.275 N 
ATOM      3  N   UNL     1      38.711 -26.083 -13.351  0.00  0.00    -0.302 NA
ATOM      4  N   UNL     1      40.448 -25.758 -14.891  0.00  0.00    -0.320 N 
ATOM      5  C   UNL     1      37.168 -24.289 -14.883  0.00  0.00    +0.063 C 
ATOM      6  C   UNL     1      36.598 -24.854 -13.735  0.00  0.00    +0.109 C 
ATOM      7  C   UNL     1      35.291 -24.537 -13.357  0.00  0.00    +0.028 C 
ATOM      8  C   UNL     1      36.417 -23.396 -15.652  0.00  0.00    +0.017 C 
ATOM      9  C   UNL     1      34.550 -23.645 -14.134  0.00  0.00    +0.042 C 
ATOM     10  C   UNL     1      35.111 -23.076 -15.277  0.00  0.00    +0.015 C 
ATOM     11  C   UNL     1      37.423 -25.802 -12.934  0.00  0.00    +0.208 C 
ATOM     12  C   UNL     1      39.177 -25.516 -14.433  0.00  0.00    +0.248 C 
ATOM     13  H   UNL     1      38.898 -24.246 -16.027  0.00  0.00    +0.156 HD
ATOM     14  H   UNL     1      40.769 -25.315 -15.710  0.00  0.00    +0.146 HD
ATOM     15  H   UNL     1      41.038 -26.375 -14.401  0.00  0.00    +0.146 HD
ENDROOT
BRANCH   9  16
ATOM     16  N   UNL     1      33.229 -23.316 -13.760  0.00  0.00    -0.357 N 
ATOM     17  H   UNL     1      32.571 -24.030 -13.599  0.00  0.00    +0.142 HD
ATOM     18  H   UNL     1      32.966 -22.373 -13.663  0.00  0.00    +0.142 HD
ENDBRANCH   9  16
TORSDOF 1
ENDMDL
