MODEL 1
REMARK VINA RESULT:      -7.9      0.000      0.000
REMARK  Name = 657004
REMARK  5 active torsions:
REMARK  status: ('A' for Active; 'I' for Inactive)
REMARK    1  A    between atoms: N_3  and  C_13
REMARK    2  A    between atoms: C_13  and  CA_14
REMARK    3  A    between atoms: CA_14  and  N_15
REMARK    4  A    between atoms: CA_14  and  C_20
REMARK    5  A    between atoms: C_20  and  O_21
REMARK                            x       y       z     vdW  Elec       q    Type
REMARK                         _______ _______ _______ _____ _____    ______ ____
ROOT
ATOM      1  O   UNL     1      35.339 -19.768 -21.100  0.00  0.00    -0.267 OA
ATOM      2  O   UNL     1      34.861 -15.260 -20.217  0.00  0.00    -0.246 OA
ATOM      3  N   UNL     1      34.704 -15.977 -22.439  0.00  0.00    -0.287 N 
ATOM      4  N   UNL     1      35.093 -17.502 -20.666  0.00  0.00    -0.275 N 
ATOM      5  C   UNL     1      34.736 -17.051 -23.301  0.00  0.00    +0.042 A 
ATOM      6  C   UNL     1      34.562 -16.967 -24.781  0.00  0.00    +0.044 C 
ATOM      7  C   UNL     1      34.369 -18.438 -25.174  0.00  0.00    +0.011 C 
ATOM      8  C   UNL     1      34.947 -19.278 -24.030  0.00  0.00    +0.033 C 
ATOM      9  C   UNL     1      34.943 -18.308 -22.907  0.00  0.00    +0.046 A 
ATOM     10  C   UNL     1      35.145 -18.622 -21.489  0.00  0.00    +0.258 A 
ATOM     11  C   UNL     1      34.882 -16.165 -21.053  0.00  0.00    +0.330 A 
ATOM     12  H   UNL     1      35.220 -17.663 -19.703  0.00  0.00    +0.173 HD
ENDROOT
BRANCH   3  13
ATOM     13  C   UNL     1      34.481 -14.637 -22.967  0.00  0.00    +0.099 C 
BRANCH  13  14
ATOM     14  CA  UNL     1      32.980 -14.359 -23.086  0.00  0.00    +0.059 C 
BRANCH  14  15
ATOM     15  N   UNL     1      32.657 -13.927 -24.445  0.00  0.00    +0.390 N 
ATOM     16  H1  UNL     1      32.666 -12.907 -24.489  0.00  0.00    -0.088 HD
ATOM     17  H2  UNL     1      31.732 -14.270 -24.700  0.00  0.00    -0.088 HD
ATOM     18  H3  UNL     1      33.350 -14.301 -25.094  0.00  0.00    -0.088 HD
ENDBRANCH  14  15
BRANCH  14  20
ATOM     19  OXT UNL     1      32.173 -12.131 -22.509  0.00  0.00    -0.253 OA
ATOM     20  C   UNL     1      32.514 -13.251 -22.157  0.00  0.00    +0.295 C 
BRANCH  20  21
ATOM     21  O   UNL     1      32.505 -13.647 -20.856  0.00  0.00    -0.482 OA
ATOM     22  H   UNL     1      33.246 -14.095 -20.497  0.00  0.00    +0.295 HD
ENDBRANCH  20  21
ENDBRANCH  14  20
ENDBRANCH  13  14
ENDBRANCH   3  13
TORSDOF 5
ENDMDL
MODEL 2
REMARK VINA RESULT:      -7.8      5.035      7.956
REMARK  Name = 657004
REMARK  5 active torsions:
REMARK  status: ('A' for Active; 'I' for Inactive)
REMARK    1  A    between atoms: N_3  and  C_13
REMARK    2  A    between atoms: C_13  and  CA_14
REMARK    3  A    between atoms: CA_14  and  N_15
REMARK    4  A    between atoms: CA_14  and  C_20
REMARK    5  A    between atoms: C_20  and  O_21
REMARK                            x       y       z     vdW  Elec       q    Type
REMARK                         _______ _______ _______ _____ _____    ______ ____
ROOT
ATOM      1  O   UNL     1      32.077 -20.179 -21.043  0.00  0.00    -0.267 OA
ATOM      2  O   UNL     1      34.051 -23.147 -18.107  0.00  0.00    -0.246 OA
ATOM      3  N   UNL     1      35.415 -21.582 -19.187  0.00  0.00    -0.287 N 
ATOM      4  N   UNL     1      33.077 -21.664 -19.567  0.00  0.00    -0.275 N 
ATOM      5  C   UNL     1      35.471 -20.528 -20.071  0.00  0.00    +0.042 A 
ATOM      6  C   UNL     1      36.714 -19.799 -20.459  0.00  0.00    +0.044 C 
ATOM      7  C   UNL     1      36.160 -18.566 -21.184  0.00  0.00    +0.011 C 
ATOM      8  C   UNL     1      34.732 -18.913 -21.614  0.00  0.00    +0.033 C 
ATOM      9  C   UNL     1      34.403 -20.038 -20.703  0.00  0.00    +0.046 A 
ATOM     10  C   UNL     1      33.073 -20.609 -20.475  0.00  0.00    +0.258 A 
ATOM     11  C   UNL     1      34.185 -22.205 -18.890  0.00  0.00    +0.330 A 
ATOM     12  H   UNL     1      32.204 -22.078 -19.378  0.00  0.00    +0.173 HD
ENDROOT
BRANCH   3  13
ATOM     13  C   UNL     1      36.640 -22.055 -18.553  0.00  0.00    +0.099 C 
BRANCH  13  14
ATOM     14  CA  UNL     1      36.653 -21.664 -17.072  0.00  0.00    +0.059 C 
BRANCH  14  15
ATOM     15  N   UNL     1      37.620 -20.591 -16.846  0.00  0.00    +0.390 N 
ATOM     16  H1  UNL     1      37.771 -20.080 -17.716  0.00  0.00    -0.088 HD
ATOM     17  H2  UNL     1      38.502 -20.990 -16.529  0.00  0.00    -0.088 HD
ATOM     18  H3  UNL     1      37.260 -19.954 -16.136  0.00  0.00    -0.088 HD
ENDBRANCH  14  15
BRANCH  14  20
ATOM     19  OXT UNL     1      38.173 -22.971 -15.683  0.00  0.00    -0.253 OA
ATOM     20  C   UNL     1      37.060 -22.813 -16.166  0.00  0.00    +0.295 C 
BRANCH  20  21
ATOM     21  O   UNL     1      36.029 -23.669 -15.933  0.00  0.00    -0.482 OA
ATOM     22  H   UNL     1      36.144 -24.391 -15.347  0.00  0.00    +0.295 HD
ENDBRANCH  20  21
ENDBRANCH  14  20
ENDBRANCH  13  14
ENDBRANCH   3  13
TORSDOF 5
ENDMDL
MODEL 3
REMARK VINA RESULT:      -7.6      2.783      3.840
REMARK  Name = 657004
REMARK  5 active torsions:
REMARK  status: ('A' for Active; 'I' for Inactive)
REMARK    1  A    between atoms: N_3  and  C_13
REMARK    2  A    between atoms: C_13  and  CA_14
REMARK    3  A    between atoms: CA_14  and  N_15
REMARK    4  A    between atoms: CA_14  and  C_20
REMARK    5  A    between atoms: C_20  and  O_21
REMARK                            x       y       z     vdW  Elec       q    Type
REMARK                         _______ _______ _______ _____ _____    ______ ____
ROOT
ATOM      1  O   UNL     1      35.645 -18.521 -23.620  0.00  0.00    -0.267 OA
ATOM      2  O   UNL     1      33.618 -15.517 -26.484  0.00  0.00    -0.246 OA
ATOM      3  N   UNL     1      33.560 -15.072 -24.187  0.00  0.00    -0.287 N 
ATOM      4  N   UNL     1      34.627 -17.004 -25.051  0.00  0.00    -0.275 N 
ATOM      5  C   UNL     1      33.929 -15.493 -22.929  0.00  0.00    +0.042 A 
ATOM      6  C   UNL     1      33.616 -14.775 -21.658  0.00  0.00    +0.044 C 
ATOM      7  C   UNL     1      34.516 -15.493 -20.644  0.00  0.00    +0.011 C 
ATOM      8  C   UNL     1      34.871 -16.852 -21.255  0.00  0.00    +0.033 C 
ATOM      9  C   UNL     1      34.610 -16.616 -22.697  0.00  0.00    +0.046 A 
ATOM     10  C   UNL     1      35.020 -17.483 -23.806  0.00  0.00    +0.258 A 
ATOM     11  C   UNL     1      33.906 -15.828 -25.327  0.00  0.00    +0.330 A 
ATOM     12  H   UNL     1      34.884 -17.551 -25.829  0.00  0.00    +0.173 HD
ENDROOT
BRANCH   3  13
ATOM     13  C   UNL     1      32.806 -13.834 -24.339  0.00  0.00    +0.099 C 
BRANCH  13  14
ATOM     14  CA  UNL     1      33.749 -12.629 -24.266  0.00  0.00    +0.059 C 
BRANCH  14  15
ATOM     15  N   UNL     1      33.168 -11.589 -23.418  0.00  0.00    +0.390 N 
ATOM     16  H1  UNL     1      32.210 -11.843 -23.177  0.00  0.00    -0.088 HD
ATOM     17  H2  UNL     1      33.169 -10.702 -23.921  0.00  0.00    -0.088 HD
ATOM     18  H3  UNL     1      33.721 -11.498 -22.567  0.00  0.00    -0.088 HD
ENDBRANCH  14  15
BRANCH  14  20
ATOM     19  OXT UNL     1      34.711 -11.025 -25.831  0.00  0.00    -0.253 OA
ATOM     20  C   UNL     1      33.995 -11.995 -25.624  0.00  0.00    +0.295 C 
BRANCH  20  21
ATOM     21  O   UNL     1      33.327 -12.640 -26.618  0.00  0.00    -0.482 OA
ATOM     22  H   UNL     1      33.802 -13.119 -27.268  0.00  0.00    +0.295 HD
ENDBRANCH  20  21
ENDBRANCH  14  20
ENDBRANCH  13  14
ENDBRANCH   3  13
TORSDOF 5
ENDMDL
MODEL 4
REMARK VINA RESULT:      -7.5      9.336     12.074
REMARK  Name = 657004
REMARK  5 active torsions:
REMARK  status: ('A' for Active; 'I' for Inactive)
REMARK    1  A    between atoms: N_3  and  C_13
REMARK    2  A    between atoms: C_13  and  CA_14
REMARK    3  A    between atoms: CA_14  and  N_15
REMARK    4  A    between atoms: CA_14  and  C_20
REMARK    5  A    between atoms: C_20  and  O_21
REMARK                            x       y       z     vdW  Elec       q    Type
REMARK                         _______ _______ _______ _____ _____    ______ ____
ROOT
ATOM      1  O   UNL     1      33.021 -23.367 -16.342  0.00  0.00    -0.267 OA
ATOM      2  O   UNL     1      35.606 -25.071 -12.915  0.00  0.00    -0.246 OA
ATOM      3  N   UNL     1      36.669 -23.849 -14.604  0.00  0.00    -0.287 N 
ATOM      4  N   UNL     1      34.327 -24.216 -14.623  0.00  0.00    -0.275 N 
ATOM      5  C   UNL     1      36.516 -23.138 -15.774  0.00  0.00    +0.042 A 
ATOM      6  C   UNL     1      37.624 -22.488 -16.534  0.00  0.00    +0.044 C 
ATOM      7  C   UNL     1      36.865 -21.600 -17.528  0.00  0.00    +0.011 C 
ATOM      8  C   UNL     1      35.446 -22.169 -17.631  0.00  0.00    +0.033 C 
ATOM      9  C   UNL     1      35.341 -22.958 -16.378  0.00  0.00    +0.046 A 
ATOM     10  C   UNL     1      34.113 -23.517 -15.806  0.00  0.00    +0.258 A 
ATOM     11  C   UNL     1      35.553 -24.427 -13.964  0.00  0.00    +0.330 A 
ATOM     12  H   UNL     1      33.530 -24.607 -14.197  0.00  0.00    +0.173 HD
ENDROOT
BRANCH   3  13
ATOM     13  C   UNL     1      37.998 -24.001 -14.024  0.00  0.00    +0.099 C 
BRANCH  13  14
ATOM     14  CA  UNL     1      38.597 -25.352 -14.422  0.00  0.00    +0.059 C 
BRANCH  14  15
ATOM     15  N   UNL     1      38.575 -26.266 -13.280  0.00  0.00    +0.390 N 
ATOM     16  H1  UNL     1      38.680 -27.226 -13.611  0.00  0.00    -0.088 HD
ATOM     17  H2  UNL     1      37.688 -26.171 -12.787  0.00  0.00    -0.088 HD
ATOM     18  H3  UNL     1      39.342 -26.038 -12.649  0.00  0.00    -0.088 HD
ENDBRANCH  14  15
BRANCH  14  20
ATOM     19  OXT UNL     1      40.943 -24.716 -14.218  0.00  0.00    -0.253 OA
ATOM     20  C   UNL     1      40.047 -25.244 -14.862  0.00  0.00    +0.295 C 
BRANCH  20  21
ATOM     21  O   UNL     1      40.256 -25.819 -16.077  0.00  0.00    -0.482 OA
ATOM     22  H   UNL     1      40.323 -26.751 -16.149  0.00  0.00    +0.295 HD
ENDBRANCH  20  21
ENDBRANCH  14  20
ENDBRANCH  13  14
ENDBRANCH   3  13
TORSDOF 5
ENDMDL
MODEL 5
REMARK VINA RESULT:      -7.4      1.930      2.943
REMARK  Name = 657004
REMARK  5 active torsions:
REMARK  status: ('A' for Active; 'I' for Inactive)
REMARK    1  A    between atoms: N_3  and  C_13
REMARK    2  A    between atoms: C_13  and  CA_14
REMARK    3  A    between atoms: CA_14  and  N_15
REMARK    4  A    between atoms: CA_14  and  C_20
REMARK    5  A    between atoms: C_20  and  O_21
REMARK                            x       y       z     vdW  Elec       q    Type
REMARK                         _______ _______ _______ _____ _____    ______ ____
ROOT
ATOM      1  O   UNL     1      34.750 -20.157 -24.827  0.00  0.00    -0.267 OA
ATOM      2  O   UNL     1      34.133 -15.731 -25.994  0.00  0.00    -0.246 OA
ATOM      3  N   UNL     1      34.540 -16.239 -23.746  0.00  0.00    -0.287 N 
ATOM      4  N   UNL     1      34.445 -17.930 -25.404  0.00  0.00    -0.275 N 
ATOM      5  C   UNL     1      34.792 -17.229 -22.823  0.00  0.00    +0.042 A 
ATOM      6  C   UNL     1      35.001 -17.006 -21.362  0.00  0.00    +0.044 C 
ATOM      7  C   UNL     1      35.545 -18.363 -20.896  0.00  0.00    +0.011 C 
ATOM      8  C   UNL     1      35.133 -19.389 -21.956  0.00  0.00    +0.033 C 
ATOM      9  C   UNL     1      34.867 -18.525 -23.132  0.00  0.00    +0.046 A 
ATOM     10  C   UNL     1      34.687 -18.973 -24.516  0.00  0.00    +0.258 A 
ATOM     11  C   UNL     1      34.355 -16.557 -25.108  0.00  0.00    +0.330 A 
ATOM     12  H   UNL     1      34.321 -18.182 -26.348  0.00  0.00    +0.173 HD
ENDROOT
BRANCH   3  13
ATOM     13  C   UNL     1      34.466 -14.850 -23.309  0.00  0.00    +0.099 C 
BRANCH  13  14
ATOM     14  CA  UNL     1      33.014 -14.366 -23.331  0.00  0.00    +0.059 C 
BRANCH  14  15
ATOM     15  N   UNL     1      32.851 -13.318 -24.338  0.00  0.00    +0.390 N 
ATOM     16  H1  UNL     1      33.179 -13.661 -25.241  0.00  0.00    -0.088 HD
ATOM     17  H2  UNL     1      33.393 -12.499 -24.067  0.00  0.00    -0.088 HD
ATOM     18  H3  UNL     1      31.865 -13.066 -24.408  0.00  0.00    -0.088 HD
ENDBRANCH  14  15
BRANCH  14  20
ATOM     19  OXT UNL     1      33.016 -14.079 -20.909  0.00  0.00    -0.253 OA
ATOM     20  C   UNL     1      32.577 -13.765 -22.006  0.00  0.00    +0.295 C 
BRANCH  20  21
ATOM     21  O   UNL     1      31.625 -12.807 -22.169  0.00  0.00    -0.482 OA
ATOM     22  H   UNL     1      30.750 -12.961 -21.872  0.00  0.00    +0.295 HD
ENDBRANCH  20  21
ENDBRANCH  14  20
ENDBRANCH  13  14
ENDBRANCH   3  13
TORSDOF 5
ENDMDL
MODEL 6
REMARK VINA RESULT:      -7.3      9.008     11.196
REMARK  Name = 657004
REMARK  5 active torsions:
REMARK  status: ('A' for Active; 'I' for Inactive)
REMARK    1  A    between atoms: N_3  and  C_13
REMARK    2  A    between atoms: C_13  and  CA_14
REMARK    3  A    between atoms: CA_14  and  N_15
REMARK    4  A    between atoms: CA_14  and  C_20
REMARK    5  A    between atoms: C_20  and  O_21
REMARK                            x       y       z     vdW  Elec       q    Type
REMARK                         _______ _______ _______ _____ _____    ______ ____
ROOT
ATOM      1  O   UNL     1      29.993 -22.397 -17.140  0.00  0.00    -0.267 OA
ATOM      2  O   UNL     1      34.461 -23.032 -18.122  0.00  0.00    -0.246 OA
ATOM      3  N   UNL     1      33.688 -23.673 -16.009  0.00  0.00    -0.287 N 
ATOM      4  N   UNL     1      32.238 -22.723 -17.626  0.00  0.00    -0.275 N 
ATOM      5  C   UNL     1      32.604 -23.763 -15.164  0.00  0.00    +0.042 A 
ATOM      6  C   UNL     1      32.642 -24.306 -13.774  0.00  0.00    +0.044 C 
ATOM      7  C   UNL     1      31.153 -24.462 -13.440  0.00  0.00    +0.011 C 
ATOM      8  C   UNL     1      30.389 -23.546 -14.402  0.00  0.00    +0.033 C 
ATOM      9  C   UNL     1      31.377 -23.355 -15.492  0.00  0.00    +0.046 A 
ATOM     10  C   UNL     1      31.110 -22.780 -16.814  0.00  0.00    +0.258 A 
ATOM     11  C   UNL     1      33.544 -23.140 -17.306  0.00  0.00    +0.330 A 
ATOM     12  H   UNL     1      32.108 -22.348 -18.527  0.00  0.00    +0.173 HD
ENDROOT
BRANCH   3  13
ATOM     13  C   UNL     1      34.993 -24.137 -15.555  0.00  0.00    +0.099 C 
BRANCH  13  14
ATOM     14  CA  UNL     1      35.847 -22.950 -15.101  0.00  0.00    +0.059 C 
BRANCH  14  15
ATOM     15  N   UNL     1      36.865 -22.651 -16.108  0.00  0.00    +0.390 N 
ATOM     16  H1  UNL     1      36.862 -23.381 -16.821  0.00  0.00    -0.088 HD
ATOM     17  H2  UNL     1      37.781 -22.612 -15.664  0.00  0.00    -0.088 HD
ATOM     18  H3  UNL     1      36.658 -21.751 -16.542  0.00  0.00    -0.088 HD
ENDBRANCH  14  15
BRANCH  14  20
ATOM     19  OXT UNL     1      37.788 -23.442 -13.708  0.00  0.00    -0.253 OA
ATOM     20  C   UNL     1      36.588 -23.223 -13.804  0.00  0.00    +0.295 C 
BRANCH  20  21
ATOM     21  O   UNL     1      35.760 -23.189 -12.726  0.00  0.00    -0.482 OA
ATOM     22  H   UNL     1      35.956 -22.628 -12.001  0.00  0.00    +0.295 HD
ENDBRANCH  20  21
ENDBRANCH  14  20
ENDBRANCH  13  14
ENDBRANCH   3  13
TORSDOF 5
ENDMDL
MODEL 7
REMARK VINA RESULT:      -7.3      7.524     10.486
REMARK  Name = 657004
REMARK  5 active torsions:
REMARK  status: ('A' for Active; 'I' for Inactive)
REMARK    1  A    between atoms: N_3  and  C_13
REMARK    2  A    between atoms: C_13  and  CA_14
REMARK    3  A    between atoms: CA_14  and  N_15
REMARK    4  A    between atoms: CA_14  and  C_20
REMARK    5  A    between atoms: C_20  and  O_21
REMARK                            x       y       z     vdW  Elec       q    Type
REMARK                         _______ _______ _______ _____ _____    ______ ____
ROOT
ATOM      1  O   UNL     1      32.724 -22.360 -19.416  0.00  0.00    -0.267 OA
ATOM      2  O   UNL     1      33.280 -23.938 -15.111  0.00  0.00    -0.246 OA
ATOM      3  N   UNL     1      35.118 -22.959 -16.180  0.00  0.00    -0.287 N 
ATOM      4  N   UNL     1      33.012 -23.146 -17.252  0.00  0.00    -0.275 N 
ATOM      5  C   UNL     1      35.588 -22.348 -17.321  0.00  0.00    +0.042 A 
ATOM      6  C   UNL     1      36.983 -21.857 -17.518  0.00  0.00    +0.044 C 
ATOM      7  C   UNL     1      36.857 -21.007 -18.790  0.00  0.00    +0.011 C 
ATOM      8  C   UNL     1      35.585 -21.473 -19.505  0.00  0.00    +0.033 C 
ATOM      9  C   UNL     1      34.840 -22.134 -18.404  0.00  0.00    +0.046 A 
ATOM     10  C   UNL     1      33.433 -22.543 -18.433  0.00  0.00    +0.258 A 
ATOM     11  C   UNL     1      33.778 -23.390 -16.096  0.00  0.00    +0.330 A 
ATOM     12  H   UNL     1      32.071 -23.435 -17.221  0.00  0.00    +0.173 HD
ENDROOT
BRANCH   3  13
ATOM     13  C   UNL     1      36.016 -23.159 -15.049  0.00  0.00    +0.099 C 
BRANCH  13  14
ATOM     14  CA  UNL     1      36.605 -24.572 -15.085  0.00  0.00    +0.059 C 
BRANCH  14  15
ATOM     15  N   UNL     1      35.889 -25.436 -14.147  0.00  0.00    +0.390 N 
ATOM     16  H1  UNL     1      34.921 -25.540 -14.451  0.00  0.00    -0.088 HD
ATOM     17  H2  UNL     1      35.910 -25.020 -13.217  0.00  0.00    -0.088 HD
ATOM     18  H3  UNL     1      36.337 -26.352 -14.120  0.00  0.00    -0.088 HD
ENDBRANCH  14  15
BRANCH  14  20
ATOM     19  OXT UNL     1      38.512 -25.176 -13.689  0.00  0.00    -0.253 OA
ATOM     20  C   UNL     1      38.067 -24.608 -14.677  0.00  0.00    +0.295 C 
BRANCH  20  21
ATOM     21  O   UNL     1      38.858 -23.933 -15.554  0.00  0.00    -0.482 OA
ATOM     22  H   UNL     1      38.872 -24.179 -16.458  0.00  0.00    +0.295 HD
ENDBRANCH  20  21
ENDBRANCH  14  20
ENDBRANCH  13  14
ENDBRANCH   3  13
TORSDOF 5
ENDMDL
MODEL 8
REMARK VINA RESULT:      -7.3      2.075      2.563
REMARK  Name = 657004
REMARK  5 active torsions:
REMARK  status: ('A' for Active; 'I' for Inactive)
REMARK    1  A    between atoms: N_3  and  C_13
REMARK    2  A    between atoms: C_13  and  CA_14
REMARK    3  A    between atoms: CA_14  and  N_15
REMARK    4  A    between atoms: CA_14  and  C_20
REMARK    5  A    between atoms: C_20  and  O_21
REMARK                            x       y       z     vdW  Elec       q    Type
REMARK                         _______ _______ _______ _____ _____    ______ ____
ROOT
ATOM      1  O   UNL     1      35.365 -17.562 -20.674  0.00  0.00    -0.267 OA
ATOM      2  O   UNL     1      32.903 -13.658 -20.832  0.00  0.00    -0.246 OA
ATOM      3  N   UNL     1      33.448 -14.708 -22.851  0.00  0.00    -0.287 N 
ATOM      4  N   UNL     1      34.124 -15.603 -20.763  0.00  0.00    -0.275 N 
ATOM      5  C   UNL     1      34.075 -15.775 -23.455  0.00  0.00    +0.042 A 
ATOM      6  C   UNL     1      34.141 -16.010 -24.927  0.00  0.00    +0.044 C 
ATOM      7  C   UNL     1      34.652 -17.455 -25.008  0.00  0.00    +0.011 C 
ATOM      8  C   UNL     1      35.319 -17.761 -23.664  0.00  0.00    +0.033 C 
ATOM      9  C   UNL     1      34.716 -16.731 -22.781  0.00  0.00    +0.046 A 
ATOM     10  C   UNL     1      34.781 -16.698 -21.317  0.00  0.00    +0.258 A 
ATOM     11  C   UNL     1      33.445 -14.578 -21.447  0.00  0.00    +0.330 A 
ATOM     12  H   UNL     1      34.137 -15.539 -19.781  0.00  0.00    +0.173 HD
ENDROOT
BRANCH   3  13
ATOM     13  C   UNL     1      32.781 -13.706 -23.674  0.00  0.00    +0.099 C 
BRANCH  13  14
ATOM     14  CA  UNL     1      33.552 -12.384 -23.626  0.00  0.00    +0.059 C 
BRANCH  14  15
ATOM     15  N   UNL     1      32.706 -11.331 -23.068  0.00  0.00    +0.390 N 
ATOM     16  H1  UNL     1      32.522 -11.528 -22.084  0.00  0.00    -0.088 HD
ATOM     17  H2  UNL     1      31.825 -11.296 -23.579  0.00  0.00    -0.088 HD
ATOM     18  H3  UNL     1      33.183 -10.433 -23.150  0.00  0.00    -0.088 HD
ENDBRANCH  14  15
BRANCH  14  20
ATOM     19  OXT UNL     1      33.558 -12.337 -26.065  0.00  0.00    -0.253 OA
ATOM     20  C   UNL     1      33.986 -11.908 -25.002  0.00  0.00    +0.295 C 
BRANCH  20  21
ATOM     21  O   UNL     1      34.919 -10.921 -24.930  0.00  0.00    -0.482 OA
ATOM     22  H   UNL     1      35.029 -10.438 -24.134  0.00  0.00    +0.295 HD
ENDBRANCH  20  21
ENDBRANCH  14  20
ENDBRANCH  13  14
ENDBRANCH   3  13
TORSDOF 5
ENDMDL
MODEL 9
REMARK VINA RESULT:      -7.3      9.106     12.026
REMARK  Name = 657004
REMARK  5 active torsions:
REMARK  status: ('A' for Active; 'I' for Inactive)
REMARK    1  A    between atoms: N_3  and  C_13
REMARK    2  A    between atoms: C_13  and  CA_14
REMARK    3  A    between atoms: CA_14  and  N_15
REMARK    4  A    between atoms: CA_14  and  C_20
REMARK    5  A    between atoms: C_20  and  O_21
REMARK                            x       y       z     vdW  Elec       q    Type
REMARK                         _______ _______ _______ _____ _____    ______ ____
ROOT
ATOM      1  O   UNL     1      32.892 -22.784 -17.332  0.00  0.00    -0.267 OA
ATOM      2  O   UNL     1      33.432 -24.840 -13.232  0.00  0.00    -0.246 OA
ATOM      3  N   UNL     1      35.333 -24.011 -14.316  0.00  0.00    -0.287 N 
ATOM      4  N   UNL     1      33.172 -23.812 -15.271  0.00  0.00    -0.275 N 
ATOM      5  C   UNL     1      35.827 -23.357 -15.423  0.00  0.00    +0.042 A 
ATOM      6  C   UNL     1      37.265 -23.036 -15.658  0.00  0.00    +0.044 C 
ATOM      7  C   UNL     1      37.196 -22.056 -16.836  0.00  0.00    +0.011 C 
ATOM      8  C   UNL     1      35.839 -22.277 -17.513  0.00  0.00    +0.033 C 
ATOM      9  C   UNL     1      35.064 -22.940 -16.434  0.00  0.00    +0.046 A 
ATOM     10  C   UNL     1      33.615 -23.156 -16.415  0.00  0.00    +0.258 A 
ATOM     11  C   UNL     1      33.952 -24.268 -14.191  0.00  0.00    +0.330 A 
ATOM     12  H   UNL     1      32.203 -23.977 -15.210  0.00  0.00    +0.173 HD
ENDROOT
BRANCH   3  13
ATOM     13  C   UNL     1      36.248 -24.438 -13.265  0.00  0.00    +0.099 C 
BRANCH  13  14
ATOM     14  CA  UNL     1      36.194 -23.460 -12.087  0.00  0.00    +0.059 C 
BRANCH  14  15
ATOM     15  N   UNL     1      37.473 -22.764 -11.955  0.00  0.00    +0.390 N 
ATOM     16  H1  UNL     1      38.056 -23.250 -11.273  0.00  0.00    -0.088 HD
ATOM     17  H2  UNL     1      37.309 -21.808 -11.642  0.00  0.00    -0.088 HD
ATOM     18  H3  UNL     1      37.946 -22.750 -12.858  0.00  0.00    -0.088 HD
ENDBRANCH  14  15
BRANCH  14  20
ATOM     19  OXT UNL     1      36.365 -23.782  -9.676  0.00  0.00    -0.253 OA
ATOM     20  C   UNL     1      35.939 -24.154 -10.760  0.00  0.00    +0.295 C 
BRANCH  20  21
ATOM     21  O   UNL     1      35.159 -25.259 -10.904  0.00  0.00    -0.482 OA
ATOM     22  H   UNL     1      34.360 -25.335 -10.421  0.00  0.00    +0.295 HD
ENDBRANCH  20  21
ENDBRANCH  14  20
ENDBRANCH  13  14
ENDBRANCH   3  13
TORSDOF 5
ENDMDL
