MODEL 1
REMARK VINA RESULT:      -5.1      0.000      0.000
REMARK  Name = 21236
REMARK  6 active torsions:
REMARK  status: ('A' for Active; 'I' for Inactive)
REMARK    1  A    between atoms: CA_1  and  N_2
REMARK    2  A    between atoms: CA_1  and  C_7
REMARK    3  A    between atoms: CA_1  and  C_10
REMARK    4  A    between atoms: C_7  and  O_8
REMARK    5  A    between atoms: C_10  and  C_11
REMARK    6  A    between atoms: C_11  and  C_12
REMARK                            x       y       z     vdW  Elec       q    Type
REMARK                         _______ _______ _______ _____ _____    ______ ____
ROOT
ATOM      1  CA  UNL     1      39.108 -25.139 -14.298  0.00  0.00    +0.036 C 
ENDROOT
BRANCH   1   2
ATOM      2  N   UNL     1      38.639 -24.431 -15.492  0.00  0.00    +0.389 N 
ATOM      3  H1  UNL     1      38.855 -24.983 -16.322  0.00  0.00    -0.088 HD
ATOM      4  H2  UNL     1      39.104 -23.525 -15.554  0.00  0.00    -0.088 HD
ATOM      5  H3  UNL     1      37.630 -24.291 -15.430  0.00  0.00    -0.088 HD
ENDBRANCH   1   2
BRANCH   1   7
ATOM      6  OXT UNL     1      41.066 -26.552 -13.965  0.00  0.00    -0.253 OA
ATOM      7  C   UNL     1      40.307 -25.965 -14.727  0.00  0.00    +0.293 C 
BRANCH   7   8
ATOM      8  O   UNL     1      40.475 -25.969 -16.075  0.00  0.00    -0.482 OA
ATOM      9  H   UNL     1      40.793 -25.201 -16.509  0.00  0.00    +0.295 HD
ENDBRANCH   7   8
ENDBRANCH   1   7
BRANCH   1  10
ATOM     10  C   UNL     1      37.984 -26.028 -13.756  0.00  0.00    -0.011 C 
BRANCH  10  11
ATOM     11  C   UNL     1      37.401 -25.511 -12.435  0.00  0.00    -0.002 C 
BRANCH  11  12
ATOM     12  C   UNL     1      38.132 -24.255 -11.961  0.00  0.00    -0.000 C 
ATOM     13  C   UNL     1      37.179 -23.080 -11.809  0.00  0.00    -0.000 C 
ENDBRANCH  11  12
ENDBRANCH  10  11
ENDBRANCH   1  10
TORSDOF 6
ENDMDL
MODEL 2
REMARK VINA RESULT:      -5.0     12.003     12.623
REMARK  Name = 21236
REMARK  6 active torsions:
REMARK  status: ('A' for Active; 'I' for Inactive)
REMARK    1  A    between atoms: CA_1  and  N_2
REMARK    2  A    between atoms: CA_1  and  C_7
REMARK    3  A    between atoms: CA_1  and  C_10
REMARK    4  A    between atoms: C_7  and  O_8
REMARK    5  A    between atoms: C_10  and  C_11
REMARK    6  A    between atoms: C_11  and  C_12
REMARK                            x       y       z     vdW  Elec       q    Type
REMARK                         _______ _______ _______ _____ _____    ______ ____
ROOT
ATOM      1  CA  UNL     1      34.578 -18.223 -23.772  0.00  0.00    +0.036 C 
ENDROOT
BRANCH   1   2
ATOM      2  N   UNL     1      34.673 -19.349 -24.704  0.00  0.00    +0.389 N 
ATOM      3  H1  UNL     1      33.737 -19.634 -24.990  0.00  0.00    -0.088 HD
ATOM      4  H2  UNL     1      35.141 -20.132 -24.245  0.00  0.00    -0.088 HD
ATOM      5  H3  UNL     1      35.209 -19.068 -25.526  0.00  0.00    -0.088 HD
ENDBRANCH   1   2
BRANCH   1   7
ATOM      6  OXT UNL     1      34.810 -16.815 -25.748  0.00  0.00    -0.253 OA
ATOM      7  C   UNL     1      34.985 -16.983 -24.548  0.00  0.00    +0.293 C 
BRANCH   7   8
ATOM      8  O   UNL     1      35.604 -16.064 -23.762  0.00  0.00    -0.482 OA
ATOM      9  H   UNL     1      35.416 -15.152 -23.871  0.00  0.00    +0.295 HD
ENDBRANCH   7   8
ENDBRANCH   1   7
BRANCH   1  10
ATOM     10  C   UNL     1      35.509 -18.466 -22.579  0.00  0.00    -0.011 C 
BRANCH  10  11
ATOM     11  C   UNL     1      34.764 -18.491 -21.239  0.00  0.00    -0.002 C 
BRANCH  11  12
ATOM     12  C   UNL     1      34.389 -19.919 -20.840  0.00  0.00    -0.000 C 
ATOM     13  C   UNL     1      32.903 -20.042 -20.545  0.00  0.00    -0.000 C 
ENDBRANCH  11  12
ENDBRANCH  10  11
ENDBRANCH   1  10
TORSDOF 6
ENDMDL
MODEL 3
REMARK VINA RESULT:      -5.0     10.581     11.181
REMARK  Name = 21236
REMARK  6 active torsions:
REMARK  status: ('A' for Active; 'I' for Inactive)
REMARK    1  A    between atoms: CA_1  and  N_2
REMARK    2  A    between atoms: CA_1  and  C_7
REMARK    3  A    between atoms: CA_1  and  C_10
REMARK    4  A    between atoms: C_7  and  O_8
REMARK    5  A    between atoms: C_10  and  C_11
REMARK    6  A    between atoms: C_11  and  C_12
REMARK                            x       y       z     vdW  Elec       q    Type
REMARK                         _______ _______ _______ _____ _____    ______ ____
ROOT
ATOM      1  CA  UNL     1      35.780 -18.417 -21.711  0.00  0.00    +0.036 C 
ENDROOT
BRANCH   1   2
ATOM      2  N   UNL     1      35.275 -17.396 -20.791  0.00  0.00    +0.389 N 
ATOM      3  H1  UNL     1      35.645 -17.567 -19.856  0.00  0.00    -0.088 HD
ATOM      4  H2  UNL     1      34.255 -17.435 -20.766  0.00  0.00    -0.088 HD
ATOM      5  H3  UNL     1      35.571 -16.473 -21.110  0.00  0.00    -0.088 HD
ENDBRANCH   1   2
BRANCH   1   7
ATOM      6  OXT UNL     1      35.163 -18.585 -24.063  0.00  0.00    -0.253 OA
ATOM      7  C   UNL     1      35.527 -17.899 -23.116  0.00  0.00    +0.293 C 
BRANCH   7   8
ATOM      8  O   UNL     1      35.777 -16.569 -23.227  0.00  0.00    -0.482 OA
ATOM      9  H   UNL     1      35.346 -15.962 -22.659  0.00  0.00    +0.295 HD
ENDBRANCH   7   8
ENDBRANCH   1   7
BRANCH   1  10
ATOM     10  C   UNL     1      35.045 -19.738 -21.463  0.00  0.00    -0.011 C 
BRANCH  10  11
ATOM     11  C   UNL     1      33.593 -19.537 -21.013  0.00  0.00    -0.002 C 
BRANCH  11  12
ATOM     12  C   UNL     1      33.165 -20.618 -20.020  0.00  0.00    -0.000 C 
ATOM     13  C   UNL     1      34.351 -21.449 -19.557  0.00  0.00    -0.000 C 
ENDBRANCH  11  12
ENDBRANCH  10  11
ENDBRANCH   1  10
TORSDOF 6
ENDMDL
MODEL 4
REMARK VINA RESULT:      -5.0     11.616     12.222
REMARK  Name = 21236
REMARK  6 active torsions:
REMARK  status: ('A' for Active; 'I' for Inactive)
REMARK    1  A    between atoms: CA_1  and  N_2
REMARK    2  A    between atoms: CA_1  and  C_7
REMARK    3  A    between atoms: CA_1  and  C_10
REMARK    4  A    between atoms: C_7  and  O_8
REMARK    5  A    between atoms: C_10  and  C_11
REMARK    6  A    between atoms: C_11  and  C_12
REMARK                            x       y       z     vdW  Elec       q    Type
REMARK                         _______ _______ _______ _____ _____    ______ ____
ROOT
ATOM      1  CA  UNL     1      35.461 -18.536 -23.583  0.00  0.00    +0.036 C 
ENDROOT
BRANCH   1   2
ATOM      2  N   UNL     1      36.634 -18.141 -22.799  0.00  0.00    +0.389 N 
ATOM      3  H1  UNL     1      36.351 -17.485 -22.071  0.00  0.00    -0.088 HD
ATOM      4  H2  UNL     1      37.318 -17.695 -23.411  0.00  0.00    -0.088 HD
ATOM      5  H3  UNL     1      37.050 -18.967 -22.368  0.00  0.00    -0.088 HD
ENDBRANCH   1   2
BRANCH   1   7
ATOM      6  OXT UNL     1      34.381 -17.337 -25.410  0.00  0.00    -0.253 OA
ATOM      7  C   UNL     1      35.036 -17.313 -24.374  0.00  0.00    +0.293 C 
BRANCH   7   8
ATOM      8  O   UNL     1      35.487 -16.158 -23.820  0.00  0.00    -0.482 OA
ATOM      9  H   UNL     1      36.318 -15.809 -24.076  0.00  0.00    +0.295 HD
ENDBRANCH   7   8
ENDBRANCH   1   7
BRANCH   1  10
ATOM     10  C   UNL     1      34.349 -19.005 -22.639  0.00  0.00    -0.011 C 
BRANCH  10  11
ATOM     11  C   UNL     1      34.769 -18.979 -21.164  0.00  0.00    -0.002 C 
BRANCH  11  12
ATOM     12  C   UNL     1      34.372 -20.274 -20.453  0.00  0.00    -0.000 C 
ATOM     13  C   UNL     1      32.866 -20.371 -20.273  0.00  0.00    -0.000 C 
ENDBRANCH  11  12
ENDBRANCH  10  11
ENDBRANCH   1  10
TORSDOF 6
ENDMDL
MODEL 5
REMARK VINA RESULT:      -4.9     10.771     11.572
REMARK  Name = 21236
REMARK  6 active torsions:
REMARK  status: ('A' for Active; 'I' for Inactive)
REMARK    1  A    between atoms: CA_1  and  N_2
REMARK    2  A    between atoms: CA_1  and  C_7
REMARK    3  A    between atoms: CA_1  and  C_10
REMARK    4  A    between atoms: C_7  and  O_8
REMARK    5  A    between atoms: C_10  and  C_11
REMARK    6  A    between atoms: C_11  and  C_12
REMARK                            x       y       z     vdW  Elec       q    Type
REMARK                         _______ _______ _______ _____ _____    ______ ____
ROOT
ATOM      1  CA  UNL     1      27.763 -22.968 -16.247  0.00  0.00    +0.036 C 
ENDROOT
BRANCH   1   2
ATOM      2  N   UNL     1      28.393 -23.088 -17.564  0.00  0.00    +0.389 N 
ATOM      3  H1  UNL     1      28.453 -22.167 -17.998  0.00  0.00    -0.088 HD
ATOM      4  H2  UNL     1      27.835 -23.706 -18.153  0.00  0.00    -0.088 HD
ATOM      5  H3  UNL     1      29.331 -23.475 -17.459  0.00  0.00    -0.088 HD
ENDBRANCH   1   2
BRANCH   1   7
ATOM      6  OXT UNL     1      25.569 -22.039 -15.734  0.00  0.00    -0.253 OA
ATOM      7  C   UNL     1      26.589 -22.020 -16.412  0.00  0.00    +0.293 C 
BRANCH   7   8
ATOM      8  O   UNL     1      26.775 -21.142 -17.431  0.00  0.00    -0.482 OA
ATOM      9  H   UNL     1      27.634 -20.814 -17.617  0.00  0.00    +0.295 HD
ENDBRANCH   7   8
ENDBRANCH   1   7
BRANCH   1  10
ATOM     10  C   UNL     1      28.782 -22.424 -15.240  0.00  0.00    -0.011 C 
BRANCH  10  11
ATOM     11  C   UNL     1      29.874 -23.442 -14.890  0.00  0.00    -0.002 C 
BRANCH  11  12
ATOM     12  C   UNL     1      31.269 -22.834 -15.045  0.00  0.00    -0.000 C 
ATOM     13  C   UNL     1      31.913 -23.247 -16.359  0.00  0.00    -0.000 C 
ENDBRANCH  11  12
ENDBRANCH  10  11
ENDBRANCH   1  10
TORSDOF 6
ENDMDL
MODEL 6
REMARK VINA RESULT:      -4.9     11.550     12.167
REMARK  Name = 21236
REMARK  6 active torsions:
REMARK  status: ('A' for Active; 'I' for Inactive)
REMARK    1  A    between atoms: CA_1  and  N_2
REMARK    2  A    between atoms: CA_1  and  C_7
REMARK    3  A    between atoms: CA_1  and  C_10
REMARK    4  A    between atoms: C_7  and  O_8
REMARK    5  A    between atoms: C_10  and  C_11
REMARK    6  A    between atoms: C_11  and  C_12
REMARK                            x       y       z     vdW  Elec       q    Type
REMARK                         _______ _______ _______ _____ _____    ______ ____
ROOT
ATOM      1  CA  UNL     1      34.644 -16.994 -22.238  0.00  0.00    +0.036 C 
ENDROOT
BRANCH   1   2
ATOM      2  N   UNL     1      35.708 -16.967 -23.244  0.00  0.00    +0.389 N 
ATOM      3  H1  UNL     1      36.027 -17.919 -23.426  0.00  0.00    -0.088 HD
ATOM      4  H2  UNL     1      36.488 -16.407 -22.899  0.00  0.00    -0.088 HD
ATOM      5  H3  UNL     1      35.351 -16.558 -24.107  0.00  0.00    -0.088 HD
ENDBRANCH   1   2
BRANCH   1   7
ATOM      6  OXT UNL     1      34.487 -14.563 -22.145  0.00  0.00    -0.253 OA
ATOM      7  C   UNL     1      34.646 -15.631 -21.568  0.00  0.00    +0.293 C 
BRANCH   7   8
ATOM      8  O   UNL     1      34.876 -15.715 -20.232  0.00  0.00    -0.482 OA
ATOM      9  H   UNL     1      34.360 -16.291 -19.703  0.00  0.00    +0.295 HD
ENDBRANCH   7   8
ENDBRANCH   1   7
BRANCH   1  10
ATOM     10  C   UNL     1      34.921 -18.113 -21.228  0.00  0.00    -0.011 C 
BRANCH  10  11
ATOM     11  C   UNL     1      34.249 -19.437 -21.609  0.00  0.00    -0.002 C 
BRANCH  11  12
ATOM     12  C   UNL     1      33.054 -19.733 -20.702  0.00  0.00    -0.000 C 
ATOM     13  C   UNL     1      33.308 -20.947 -19.824  0.00  0.00    -0.000 C 
ENDBRANCH  11  12
ENDBRANCH  10  11
ENDBRANCH   1  10
TORSDOF 6
ENDMDL
MODEL 7
REMARK VINA RESULT:      -4.7      9.061      9.705
REMARK  Name = 21236
REMARK  6 active torsions:
REMARK  status: ('A' for Active; 'I' for Inactive)
REMARK    1  A    between atoms: CA_1  and  N_2
REMARK    2  A    between atoms: CA_1  and  C_7
REMARK    3  A    between atoms: CA_1  and  C_10
REMARK    4  A    between atoms: C_7  and  O_8
REMARK    5  A    between atoms: C_10  and  C_11
REMARK    6  A    between atoms: C_11  and  C_12
REMARK                            x       y       z     vdW  Elec       q    Type
REMARK                         _______ _______ _______ _____ _____    ______ ____
ROOT
ATOM      1  CA  UNL     1      33.829 -21.471 -20.070  0.00  0.00    +0.036 C 
ENDROOT
BRANCH   1   2
ATOM      2  N   UNL     1      32.656 -20.898 -19.406  0.00  0.00    +0.389 N 
ATOM      3  H1  UNL     1      32.721 -19.881 -19.419  0.00  0.00    -0.088 HD
ATOM      4  H2  UNL     1      32.620 -21.224 -18.439  0.00  0.00    -0.088 HD
ATOM      5  H3  UNL     1      31.811 -21.192 -19.895  0.00  0.00    -0.088 HD
ENDBRANCH   1   2
BRANCH   1   7
ATOM      6  OXT UNL     1      35.204 -22.341 -18.254  0.00  0.00    -0.253 OA
ATOM      7  C   UNL     1      34.378 -22.537 -19.138  0.00  0.00    +0.293 C 
BRANCH   7   8
ATOM      8  O   UNL     1      33.870 -23.767 -19.406  0.00  0.00    -0.482 OA
ATOM      9  H   UNL     1      33.355 -23.904 -20.177  0.00  0.00    +0.295 HD
ENDBRANCH   7   8
ENDBRANCH   1   7
BRANCH   1  10
ATOM     10  C   UNL     1      34.862 -20.369 -20.326  0.00  0.00    -0.011 C 
BRANCH  10  11
ATOM     11  C   UNL     1      34.286 -19.186 -21.114  0.00  0.00    -0.002 C 
BRANCH  11  12
ATOM     12  C   UNL     1      34.605 -19.305 -22.605  0.00  0.00    -0.000 C 
ATOM     13  C   UNL     1      35.559 -18.211 -23.059  0.00  0.00    -0.000 C 
ENDBRANCH  11  12
ENDBRANCH  10  11
ENDBRANCH   1  10
TORSDOF 6
ENDMDL
MODEL 8
REMARK VINA RESULT:      -4.7      9.329     10.076
REMARK  Name = 21236
REMARK  6 active torsions:
REMARK  status: ('A' for Active; 'I' for Inactive)
REMARK    1  A    between atoms: CA_1  and  N_2
REMARK    2  A    between atoms: CA_1  and  C_7
REMARK    3  A    between atoms: CA_1  and  C_10
REMARK    4  A    between atoms: C_7  and  O_8
REMARK    5  A    between atoms: C_10  and  C_11
REMARK    6  A    between atoms: C_11  and  C_12
REMARK                            x       y       z     vdW  Elec       q    Type
REMARK                         _______ _______ _______ _____ _____    ______ ____
ROOT
ATOM      1  CA  UNL     1      28.978 -23.635 -15.592  0.00  0.00    +0.036 C 
ENDROOT
BRANCH   1   2
ATOM      2  N   UNL     1      29.413 -25.022 -15.766  0.00  0.00    +0.389 N 
ATOM      3  H1  UNL     1      30.283 -25.173 -15.256  0.00  0.00    -0.088 HD
ATOM      4  H2  UNL     1      29.562 -25.210 -16.758  0.00  0.00    -0.088 HD
ATOM      5  H3  UNL     1      28.695 -25.652 -15.406  0.00  0.00    -0.088 HD
ENDBRANCH   1   2
BRANCH   1   7
ATOM      6  OXT UNL     1      27.679 -24.035 -17.616  0.00  0.00    -0.253 OA
ATOM      7  C   UNL     1      28.240 -23.249 -16.862  0.00  0.00    +0.293 C 
BRANCH   7   8
ATOM      8  O   UNL     1      28.286 -21.912 -17.098  0.00  0.00    -0.482 OA
ATOM      9  H   UNL     1      27.559 -21.483 -17.506  0.00  0.00    +0.295 HD
ENDBRANCH   7   8
ENDBRANCH   1   7
BRANCH   1  10
ATOM     10  C   UNL     1      30.201 -22.740 -15.365  0.00  0.00    -0.011 C 
BRANCH  10  11
ATOM     11  C   UNL     1      31.431 -23.200 -16.156  0.00  0.00    -0.002 C 
BRANCH  11  12
ATOM     12  C   UNL     1      32.661 -23.314 -15.254  0.00  0.00    -0.000 C 
ATOM     13  C   UNL     1      33.946 -23.344 -16.065  0.00  0.00    -0.000 C 
ENDBRANCH  11  12
ENDBRANCH  10  11
ENDBRANCH   1  10
TORSDOF 6
ENDMDL
MODEL 9
REMARK VINA RESULT:      -4.7      9.462     10.143
REMARK  Name = 21236
REMARK  6 active torsions:
REMARK  status: ('A' for Active; 'I' for Inactive)
REMARK    1  A    between atoms: CA_1  and  N_2
REMARK    2  A    between atoms: CA_1  and  C_7
REMARK    3  A    between atoms: CA_1  and  C_10
REMARK    4  A    between atoms: C_7  and  O_8
REMARK    5  A    between atoms: C_10  and  C_11
REMARK    6  A    between atoms: C_11  and  C_12
REMARK                            x       y       z     vdW  Elec       q    Type
REMARK                         _______ _______ _______ _____ _____    ______ ____
ROOT
ATOM      1  CA  UNL     1      29.563 -23.477 -16.521  0.00  0.00    +0.036 C 
ENDROOT
BRANCH   1   2
ATOM      2  N   UNL     1      30.620 -22.547 -16.923  0.00  0.00    +0.389 N 
ATOM      3  H1  UNL     1      31.082 -22.900 -17.761  0.00  0.00    -0.088 HD
ATOM      4  H2  UNL     1      31.302 -22.461 -16.169  0.00  0.00    -0.088 HD
ATOM      5  H3  UNL     1      30.212 -21.633 -17.120  0.00  0.00    -0.088 HD
ENDBRANCH   1   2
BRANCH   1   7
ATOM      6  OXT UNL     1      27.888 -21.732 -16.824  0.00  0.00    -0.253 OA
ATOM      7  C   UNL     1      28.254 -22.886 -17.013  0.00  0.00    +0.293 C 
BRANCH   7   8
ATOM      8  O   UNL     1      27.496 -23.795 -17.679  0.00  0.00    -0.482 OA
ATOM      9  H   UNL     1      26.562 -23.762 -17.617  0.00  0.00    +0.295 HD
ENDBRANCH   7   8
ENDBRANCH   1   7
BRANCH   1  10
ATOM     10  C   UNL     1      29.568 -23.629 -14.996  0.00  0.00    -0.011 C 
BRANCH  10  11
ATOM     11  C   UNL     1      30.105 -24.990 -14.535  0.00  0.00    -0.002 C 
BRANCH  11  12
ATOM     12  C   UNL     1      31.478 -24.850 -13.876  0.00  0.00    -0.000 C 
ATOM     13  C   UNL     1      31.801 -23.397 -13.566  0.00  0.00    -0.000 C 
ENDBRANCH  11  12
ENDBRANCH  10  11
ENDBRANCH   1  10
TORSDOF 6
ENDMDL
