MODEL 1
REMARK VINA RESULT:      -6.7      0.000      0.000
REMARK  Name = 5287452
REMARK  5 active torsions:
REMARK  status: ('A' for Active; 'I' for Inactive)
REMARK    1  A    between atoms: C_1  and  C_8
REMARK    2  A    between atoms: C_2  and  O_6
REMARK    3  A    between atoms: C_8  and  C_10
REMARK    4  A    between atoms: C_8  and  C_11
REMARK    5  A    between atoms: C_11  and  C_12
REMARK                            x       y       z     vdW  Elec       q    Type
REMARK                         _______ _______ _______ _____ _____    ______ ____
ROOT
ATOM      1  C   UNL     1      35.314 -17.221 -21.898  0.00  0.00    +0.035 C 
ATOM      2  C   UNL     1      34.417 -16.075 -21.435  0.00  0.00    +0.111 C 
ATOM      3  C   UNL     1      34.915 -17.373 -23.363  0.00  0.00    +0.003 C 
ATOM      4  C   UNL     1      34.490 -15.089 -22.594  0.00  0.00    +0.029 C 
ATOM      5  C   UNL     1      34.653 -15.947 -23.849  0.00  0.00    +0.003 C 
ENDROOT
BRANCH   2   6
ATOM      6  O   UNL     1      34.899 -15.501 -20.234  0.00  0.00    -0.384 OA
ATOM      7  H   UNL     1      34.302 -15.730 -19.505  0.00  0.00    +0.210 HD
ENDBRANCH   2   6
BRANCH   1   8
ATOM      8  C   UNL     1      35.127 -18.496 -21.091  0.00  0.00    +0.072 C 
BRANCH   8  10
ATOM      9  O   UNL     1      36.731 -19.836 -19.840  0.00  0.00    -0.288 OA
ATOM     10  C   UNL     1      36.443 -19.226 -20.865  0.00  0.00    +0.207 C 
ENDBRANCH   8  10
BRANCH   8  11
ATOM     11  C   UNL     1      34.085 -19.452 -21.698  0.00  0.00    +0.034 C 
BRANCH  11  12
ATOM     12  C   UNL     1      33.036 -19.921 -20.729  0.00  0.00    -0.026 C 
ATOM     13  C   UNL     1      33.229 -20.892 -19.829  0.00  0.00    -0.005 C 
ENDBRANCH  11  12
ENDBRANCH   8  11
ENDBRANCH   1   8
TORSDOF 5
ENDMDL
MODEL 2
REMARK VINA RESULT:      -6.7      1.297      4.593
REMARK  Name = 5287452
REMARK  5 active torsions:
REMARK  status: ('A' for Active; 'I' for Inactive)
REMARK    1  A    between atoms: C_1  and  C_8
REMARK    2  A    between atoms: C_2  and  O_6
REMARK    3  A    between atoms: C_8  and  C_10
REMARK    4  A    between atoms: C_8  and  C_11
REMARK    5  A    between atoms: C_11  and  C_12
REMARK                            x       y       z     vdW  Elec       q    Type
REMARK                         _______ _______ _______ _____ _____    ______ ____
ROOT
ATOM      1  C   UNL     1      34.682 -19.440 -20.630  0.00  0.00    +0.035 C 
ATOM      2  C   UNL     1      35.485 -20.696 -20.303  0.00  0.00    +0.111 C 
ATOM      3  C   UNL     1      33.295 -20.007 -20.923  0.00  0.00    +0.003 C 
ATOM      4  C   UNL     1      34.531 -21.498 -19.425  0.00  0.00    +0.029 C 
ATOM      5  C   UNL     1      33.130 -21.165 -19.938  0.00  0.00    +0.003 C 
ENDROOT
BRANCH   2   6
ATOM      6  O   UNL     1      36.679 -20.376 -19.614  0.00  0.00    -0.384 OA
ATOM      7  H   UNL     1      37.309 -19.973 -20.232  0.00  0.00    +0.210 HD
ENDBRANCH   2   6
BRANCH   1   8
ATOM      8  C   UNL     1      35.258 -18.641 -21.788  0.00  0.00    +0.072 C 
BRANCH   8  10
ATOM      9  O   UNL     1      35.166 -16.616 -20.437  0.00  0.00    -0.288 OA
ATOM     10  C   UNL     1      35.170 -17.141 -21.546  0.00  0.00    +0.207 C 
ENDBRANCH   8  10
BRANCH   8  11
ATOM     11  C   UNL     1      34.629 -18.999 -23.147  0.00  0.00    +0.034 C 
BRANCH  11  12
ATOM     12  C   UNL     1      35.105 -18.150 -24.292  0.00  0.00    -0.026 C 
ATOM     13  C   UNL     1      34.292 -17.568 -25.180  0.00  0.00    -0.005 C 
ENDBRANCH  11  12
ENDBRANCH   8  11
ENDBRANCH   1   8
TORSDOF 5
ENDMDL
MODEL 3
REMARK VINA RESULT:      -6.5      1.809      4.516
REMARK  Name = 5287452
REMARK  5 active torsions:
REMARK  status: ('A' for Active; 'I' for Inactive)
REMARK    1  A    between atoms: C_1  and  C_8
REMARK    2  A    between atoms: C_2  and  O_6
REMARK    3  A    between atoms: C_8  and  C_10
REMARK    4  A    between atoms: C_8  and  C_11
REMARK    5  A    between atoms: C_11  and  C_12
REMARK                            x       y       z     vdW  Elec       q    Type
REMARK                         _______ _______ _______ _____ _____    ______ ____
ROOT
ATOM      1  C   UNL     1      34.292 -19.223 -20.788  0.00  0.00    +0.035 C 
ATOM      2  C   UNL     1      35.413 -20.254 -20.679  0.00  0.00    +0.111 C 
ATOM      3  C   UNL     1      33.042 -20.097 -20.741  0.00  0.00    +0.003 C 
ATOM      4  C   UNL     1      34.904 -21.206 -19.603  0.00  0.00    +0.029 C 
ATOM      5  C   UNL     1      33.383 -21.216 -19.757  0.00  0.00    +0.003 C 
ENDROOT
BRANCH   2   6
ATOM      6  O   UNL     1      36.633 -19.645 -20.297  0.00  0.00    -0.384 OA
ATOM      7  H   UNL     1      37.244 -20.324 -19.972  0.00  0.00    +0.210 HD
ENDBRANCH   2   6
BRANCH   1   8
ATOM      8  C   UNL     1      34.379 -18.370 -22.044  0.00  0.00    +0.072 C 
BRANCH   8  10
ATOM      9  O   UNL     1      34.488 -18.997 -24.395  0.00  0.00    -0.288 OA
ATOM     10  C   UNL     1      34.874 -19.166 -23.242  0.00  0.00    +0.207 C 
ENDBRANCH   8  10
BRANCH   8  11
ATOM     11  C   UNL     1      35.232 -17.101 -21.858  0.00  0.00    +0.034 C 
BRANCH  11  12
ATOM     12  C   UNL     1      34.667 -16.115 -20.874  0.00  0.00    -0.026 C 
ATOM     13  C   UNL     1      33.414 -15.649 -20.918  0.00  0.00    -0.005 C 
ENDBRANCH  11  12
ENDBRANCH   8  11
ENDBRANCH   1   8
TORSDOF 5
ENDMDL
MODEL 4
REMARK VINA RESULT:      -6.3      2.299      4.706
REMARK  Name = 5287452
REMARK  5 active torsions:
REMARK  status: ('A' for Active; 'I' for Inactive)
REMARK    1  A    between atoms: C_1  and  C_8
REMARK    2  A    between atoms: C_2  and  O_6
REMARK    3  A    between atoms: C_8  and  C_10
REMARK    4  A    between atoms: C_8  and  C_11
REMARK    5  A    between atoms: C_11  and  C_12
REMARK                            x       y       z     vdW  Elec       q    Type
REMARK                         _______ _______ _______ _____ _____    ______ ____
ROOT
ATOM      1  C   UNL     1      34.744 -19.912 -21.312  0.00  0.00    +0.035 C 
ATOM      2  C   UNL     1      33.714 -20.264 -20.241  0.00  0.00    +0.111 C 
ATOM      3  C   UNL     1      36.061 -20.053 -20.555  0.00  0.00    +0.003 C 
ATOM      4  C   UNL     1      34.338 -21.467 -19.544  0.00  0.00    +0.029 C 
ATOM      5  C   UNL     1      35.848 -21.240 -19.614  0.00  0.00    +0.003 C 
ENDROOT
BRANCH   2   6
ATOM      6  O   UNL     1      32.464 -20.590 -20.821  0.00  0.00    -0.384 OA
ATOM      7  H   UNL     1      32.372 -20.129 -21.669  0.00  0.00    +0.210 HD
ENDBRANCH   2   6
BRANCH   1   8
ATOM      8  C   UNL     1      34.542 -18.529 -21.910  0.00  0.00    +0.072 C 
BRANCH   8  10
ATOM      9  O   UNL     1      34.503 -19.022 -24.295  0.00  0.00    -0.288 OA
ATOM     10  C   UNL     1      35.035 -18.452 -23.348  0.00  0.00    +0.207 C 
ENDBRANCH   8  10
BRANCH   8  11
ATOM     11  C   UNL     1      35.175 -17.405 -21.069  0.00  0.00    +0.034 C 
BRANCH  11  12
ATOM     12  C   UNL     1      34.681 -16.026 -21.408  0.00  0.00    -0.026 C 
ATOM     13  C   UNL     1      34.007 -15.243 -20.558  0.00  0.00    -0.005 C 
ENDBRANCH  11  12
ENDBRANCH   8  11
ENDBRANCH   1   8
TORSDOF 5
ENDMDL
MODEL 5
REMARK VINA RESULT:      -6.3      1.884      2.354
REMARK  Name = 5287452
REMARK  5 active torsions:
REMARK  status: ('A' for Active; 'I' for Inactive)
REMARK    1  A    between atoms: C_1  and  C_8
REMARK    2  A    between atoms: C_2  and  O_6
REMARK    3  A    between atoms: C_8  and  C_10
REMARK    4  A    between atoms: C_8  and  C_11
REMARK    5  A    between atoms: C_11  and  C_12
REMARK                            x       y       z     vdW  Elec       q    Type
REMARK                         _______ _______ _______ _____ _____    ______ ____
ROOT
ATOM      1  C   UNL     1      35.262 -18.720 -22.191  0.00  0.00    +0.035 C 
ATOM      2  C   UNL     1      34.676 -17.383 -21.745  0.00  0.00    +0.111 C 
ATOM      3  C   UNL     1      34.822 -18.798 -23.650  0.00  0.00    +0.003 C 
ATOM      4  C   UNL     1      34.973 -16.465 -22.925  0.00  0.00    +0.029 C 
ATOM      5  C   UNL     1      34.908 -17.360 -24.163  0.00  0.00    +0.003 C 
ENDROOT
BRANCH   2   6
ATOM      6  O   UNL     1      35.297 -16.922 -20.560  0.00  0.00    -0.384 OA
ATOM      7  H   UNL     1      34.807 -16.158 -20.216  0.00  0.00    +0.210 HD
ENDBRANCH   2   6
BRANCH   1   8
ATOM      8  C   UNL     1      34.781 -19.897 -21.357  0.00  0.00    +0.072 C 
BRANCH   8  10
ATOM      9  O   UNL     1      32.485 -20.483 -20.792  0.00  0.00    -0.288 OA
ATOM     10  C   UNL     1      33.393 -19.658 -20.779  0.00  0.00    +0.207 C 
ENDBRANCH   8  10
BRANCH   8  11
ATOM     11  C   UNL     1      35.763 -20.290 -20.238  0.00  0.00    +0.034 C 
BRANCH  11  12
ATOM     12  C   UNL     1      35.656 -21.723 -19.797  0.00  0.00    -0.026 C 
ATOM     13  C   UNL     1      34.988 -22.123 -18.709  0.00  0.00    -0.005 C 
ENDBRANCH  11  12
ENDBRANCH   8  11
ENDBRANCH   1   8
TORSDOF 5
ENDMDL
MODEL 6
REMARK VINA RESULT:      -6.2      2.023      3.090
REMARK  Name = 5287452
REMARK  5 active torsions:
REMARK  status: ('A' for Active; 'I' for Inactive)
REMARK    1  A    between atoms: C_1  and  C_8
REMARK    2  A    between atoms: C_2  and  O_6
REMARK    3  A    between atoms: C_8  and  C_10
REMARK    4  A    between atoms: C_8  and  C_11
REMARK    5  A    between atoms: C_11  and  C_12
REMARK                            x       y       z     vdW  Elec       q    Type
REMARK                         _______ _______ _______ _____ _____    ______ ____
ROOT
ATOM      1  C   UNL     1      35.594 -18.082 -23.148  0.00  0.00    +0.035 C 
ATOM      2  C   UNL     1      34.817 -16.953 -23.820  0.00  0.00    +0.111 C 
ATOM      3  C   UNL     1      34.801 -19.317 -23.565  0.00  0.00    +0.003 C 
ATOM      4  C   UNL     1      34.510 -17.520 -25.201  0.00  0.00    +0.029 C 
ATOM      5  C   UNL     1      34.346 -19.026 -24.995  0.00  0.00    +0.003 C 
ENDROOT
BRANCH   2   6
ATOM      6  O   UNL     1      35.596 -15.774 -23.904  0.00  0.00    -0.384 OA
ATOM      7  H   UNL     1      36.260 -15.776 -23.198  0.00  0.00    +0.210 HD
ENDBRANCH   2   6
BRANCH   1   8
ATOM      8  C   UNL     1      35.705 -17.923 -21.640  0.00  0.00    +0.072 C 
BRANCH   8  10
ATOM      9  O   UNL     1      35.324 -19.849 -20.198  0.00  0.00    -0.288 OA
ATOM     10  C   UNL     1      36.069 -19.231 -20.952  0.00  0.00    +0.207 C 
ENDBRANCH   8  10
BRANCH   8  11
ATOM     11  C   UNL     1      34.443 -17.317 -20.999  0.00  0.00    +0.034 C 
BRANCH  11  12
ATOM     12  C   UNL     1      34.620 -15.913 -20.491  0.00  0.00    -0.026 C 
ATOM     13  C   UNL     1      33.789 -14.904 -20.775  0.00  0.00    -0.005 C 
ENDBRANCH  11  12
ENDBRANCH   8  11
ENDBRANCH   1   8
TORSDOF 5
ENDMDL
MODEL 7
REMARK VINA RESULT:      -6.2      2.782      3.709
REMARK  Name = 5287452
REMARK  5 active torsions:
REMARK  status: ('A' for Active; 'I' for Inactive)
REMARK    1  A    between atoms: C_1  and  C_8
REMARK    2  A    between atoms: C_2  and  O_6
REMARK    3  A    between atoms: C_8  and  C_10
REMARK    4  A    between atoms: C_8  and  C_11
REMARK    5  A    between atoms: C_11  and  C_12
REMARK                            x       y       z     vdW  Elec       q    Type
REMARK                         _______ _______ _______ _____ _____    ______ ____
ROOT
ATOM      1  C   UNL     1      33.823 -15.798 -22.801  0.00  0.00    +0.035 C 
ATOM      2  C   UNL     1      33.724 -14.334 -23.222  0.00  0.00    +0.111 C 
ATOM      3  C   UNL     1      33.886 -15.696 -21.280  0.00  0.00    +0.003 C 
ATOM      4  C   UNL     1      32.733 -13.752 -22.220  0.00  0.00    +0.029 C 
ATOM      5  C   UNL     1      32.958 -14.534 -20.925  0.00  0.00    +0.003 C 
ENDROOT
BRANCH   2   6
ATOM      6  O   UNL     1      33.251 -14.213 -24.550  0.00  0.00    -0.384 OA
ATOM      7  H   UNL     1      32.283 -14.145 -24.542  0.00  0.00    +0.210 HD
ENDBRANCH   2   6
BRANCH   1   8
ATOM      8  C   UNL     1      35.018 -16.519 -23.403  0.00  0.00    +0.072 C 
BRANCH   8  10
ATOM      9  O   UNL     1      34.712 -16.590 -25.819  0.00  0.00    -0.288 OA
ATOM     10  C   UNL     1      34.680 -17.169 -24.737  0.00  0.00    +0.207 C 
ENDBRANCH   8  10
BRANCH   8  11
ATOM     11  C   UNL     1      35.648 -17.552 -22.451  0.00  0.00    +0.034 C 
BRANCH  11  12
ATOM     12  C   UNL     1      35.074 -18.936 -22.575  0.00  0.00    -0.026 C 
ATOM     13  C   UNL     1      34.190 -19.459 -21.717  0.00  0.00    -0.005 C 
ENDBRANCH  11  12
ENDBRANCH   8  11
ENDBRANCH   1   8
TORSDOF 5
ENDMDL
MODEL 8
REMARK VINA RESULT:      -6.0      2.451      4.963
REMARK  Name = 5287452
REMARK  5 active torsions:
REMARK  status: ('A' for Active; 'I' for Inactive)
REMARK    1  A    between atoms: C_1  and  C_8
REMARK    2  A    between atoms: C_2  and  O_6
REMARK    3  A    between atoms: C_8  and  C_10
REMARK    4  A    between atoms: C_8  and  C_11
REMARK    5  A    between atoms: C_11  and  C_12
REMARK                            x       y       z     vdW  Elec       q    Type
REMARK                         _______ _______ _______ _____ _____    ______ ____
ROOT
ATOM      1  C   UNL     1      35.108 -16.949 -23.381  0.00  0.00    +0.035 C 
ATOM      2  C   UNL     1      34.372 -17.375 -24.650  0.00  0.00    +0.111 C 
ATOM      3  C   UNL     1      34.788 -18.091 -22.421  0.00  0.00    +0.003 C 
ATOM      4  C   UNL     1      34.674 -18.866 -24.740  0.00  0.00    +0.029 C 
ATOM      5  C   UNL     1      34.784 -19.347 -23.293  0.00  0.00    +0.003 C 
ENDROOT
BRANCH   2   6
ATOM      6  O   UNL     1      34.858 -16.677 -25.782  0.00  0.00    -0.384 OA
ATOM      7  H   UNL     1      35.459 -17.252 -26.281  0.00  0.00    +0.210 HD
ENDBRANCH   2   6
BRANCH   1   8
ATOM      8  C   UNL     1      34.672 -15.588 -22.860  0.00  0.00    +0.072 C 
BRANCH   8  10
ATOM      9  O   UNL     1      34.911 -14.674 -20.616  0.00  0.00    -0.288 OA
ATOM     10  C   UNL     1      34.520 -15.579 -21.346  0.00  0.00    +0.207 C 
ENDBRANCH   8  10
BRANCH   8  11
ATOM     11  C   UNL     1      33.387 -15.065 -23.528  0.00  0.00    +0.034 C 
BRANCH  11  12
ATOM     12  C   UNL     1      33.546 -13.743 -24.225  0.00  0.00    -0.026 C 
ATOM     13  C   UNL     1      33.660 -12.571 -23.589  0.00  0.00    -0.005 C 
ENDBRANCH  11  12
ENDBRANCH   8  11
ENDBRANCH   1   8
TORSDOF 5
ENDMDL
MODEL 9
REMARK VINA RESULT:      -6.0      2.144      3.616
REMARK  Name = 5287452
REMARK  5 active torsions:
REMARK  status: ('A' for Active; 'I' for Inactive)
REMARK    1  A    between atoms: C_1  and  C_8
REMARK    2  A    between atoms: C_2  and  O_6
REMARK    3  A    between atoms: C_8  and  C_10
REMARK    4  A    between atoms: C_8  and  C_11
REMARK    5  A    between atoms: C_11  and  C_12
REMARK                            x       y       z     vdW  Elec       q    Type
REMARK                         _______ _______ _______ _____ _____    ______ ____
ROOT
ATOM      1  C   UNL     1      34.351 -15.067 -22.579  0.00  0.00    +0.035 C 
ATOM      2  C   UNL     1      33.884 -15.486 -21.187  0.00  0.00    +0.111 C 
ATOM      3  C   UNL     1      33.072 -14.508 -23.196  0.00  0.00    +0.003 C 
ATOM      4  C   UNL     1      32.996 -14.325 -20.757  0.00  0.00    +0.029 C 
ATOM      5  C   UNL     1      32.356 -13.804 -22.044  0.00  0.00    +0.003 C 
ENDROOT
BRANCH   2   6
ATOM      6  O   UNL     1      34.981 -15.654 -20.308  0.00  0.00    -0.384 OA
ATOM      7  H   UNL     1      34.681 -15.540 -19.393  0.00  0.00    +0.210 HD
ENDBRANCH   2   6
BRANCH   1   8
ATOM      8  C   UNL     1      34.953 -16.209 -23.381  0.00  0.00    +0.072 C 
BRANCH   8  10
ATOM      9  O   UNL     1      34.946 -16.874 -25.725  0.00  0.00    -0.288 OA
ATOM     10  C   UNL     1      34.427 -16.245 -24.809  0.00  0.00    +0.207 C 
ENDBRANCH   8  10
BRANCH   8  11
ATOM     11  C   UNL     1      34.771 -17.584 -22.712  0.00  0.00    +0.034 C 
BRANCH  11  12
ATOM     12  C   UNL     1      36.056 -18.243 -22.294  0.00  0.00    -0.026 C 
ATOM     13  C   UNL     1      36.186 -19.000 -21.198  0.00  0.00    -0.005 C 
ENDBRANCH  11  12
ENDBRANCH   8  11
ENDBRANCH   1   8
TORSDOF 5
ENDMDL
