MODEL 1
REMARK VINA RESULT:      -8.0      0.000      0.000
REMARK  Name = 57465250
REMARK  3 active torsions:
REMARK  status: ('A' for Active; 'I' for Inactive)
REMARK    1  A    between atoms: C_3  and  C_11
REMARK    2  A    between atoms: C_11  and  C_12
REMARK    3  A    between atoms: C_12  and  N_14
REMARK                            x       y       z     vdW  Elec       q    Type
REMARK                         _______ _______ _______ _____ _____    ______ ____
ROOT
ATOM      1  O   UNL     1      35.152 -22.487 -18.726  0.00  0.00    -0.435 OA
ATOM      2  O   UNL     1      32.755 -22.259 -18.624  0.00  0.00    -0.435 OA
ATOM      3  C   UNL     1      34.818 -19.658 -21.038  0.00  0.00    +0.036 C 
ATOM      4  C   UNL     1      34.695 -21.474 -19.512  0.00  0.00    +0.177 C 
ATOM      5  C   UNL     1      33.327 -21.344 -19.453  0.00  0.00    +0.176 C 
ATOM      6  C   UNL     1      35.471 -20.645 -20.296  0.00  0.00    +0.043 C 
ATOM      7  C   UNL     1      33.420 -19.525 -20.980  0.00  0.00    +0.006 C 
ATOM      8  C   UNL     1      32.658 -20.377 -20.177  0.00  0.00    +0.040 C 
ATOM      9  C   UNL     1      33.918 -22.979 -18.166  0.00  0.00    +0.429 C 
ENDROOT
BRANCH   3  11
ATOM     10  O   UNL     1      36.807 -18.578 -21.658  0.00  0.00    -0.294 OA
ATOM     11  C   UNL     1      35.591 -18.759 -21.881  0.00  0.00    +0.153 C 
BRANCH  11  12
ATOM     12  C   UNL     1      34.932 -18.031 -23.074  0.00  0.00    -0.002 C 
ATOM     13  C   UNL     1      34.831 -18.963 -24.273  0.00  0.00    -0.016 C 
BRANCH  12  14
ATOM     14  N   UNL     1      35.755 -16.871 -23.421  0.00  0.00    +0.386 N 
ATOM     15  H   UNL     1      36.370 -17.112 -24.198  0.00  0.00    -0.089 HD
ATOM     16  H   UNL     1      36.317 -16.599 -22.614  0.00  0.00    -0.089 HD
ATOM     17  H   UNL     1      35.151 -16.095 -23.692  0.00  0.00    -0.089 HD
ENDBRANCH  12  14
ENDBRANCH  11  12
ENDBRANCH   3  11
TORSDOF 3
ENDMDL
MODEL 2
REMARK VINA RESULT:      -8.0      1.261      2.220
REMARK  Name = 57465250
REMARK  3 active torsions:
REMARK  status: ('A' for Active; 'I' for Inactive)
REMARK    1  A    between atoms: C_3  and  C_11
REMARK    2  A    between atoms: C_11  and  C_12
REMARK    3  A    between atoms: C_12  and  N_14
REMARK                            x       y       z     vdW  Elec       q    Type
REMARK                         _______ _______ _______ _____ _____    ______ ____
ROOT
ATOM      1  O   UNL     1      32.659 -22.083 -18.880  0.00  0.00    -0.435 OA
ATOM      2  O   UNL     1      34.755 -22.823 -17.947  0.00  0.00    -0.435 OA
ATOM      3  C   UNL     1      34.883 -20.005 -20.930  0.00  0.00    +0.036 C 
ATOM      4  C   UNL     1      33.728 -21.469 -19.458  0.00  0.00    +0.177 C 
ATOM      5  C   UNL     1      34.924 -21.892 -18.925  0.00  0.00    +0.176 C 
ATOM      6  C   UNL     1      33.673 -20.526 -20.463  0.00  0.00    +0.043 C 
ATOM      7  C   UNL     1      36.105 -20.436 -20.385  0.00  0.00    +0.006 C 
ATOM      8  C   UNL     1      36.133 -21.394 -19.368  0.00  0.00    +0.040 C 
ATOM      9  C   UNL     1      33.317 -22.940 -17.925  0.00  0.00    +0.429 C 
ENDROOT
BRANCH   3  11
ATOM     10  O   UNL     1      34.313 -19.246 -23.076  0.00  0.00    -0.294 OA
ATOM     11  C   UNL     1      34.879 -19.007 -21.988  0.00  0.00    +0.153 C 
BRANCH  11  12
ATOM     12  C   UNL     1      35.554 -17.633 -21.780  0.00  0.00    -0.002 C 
ATOM     13  C   UNL     1      34.668 -16.730 -20.933  0.00  0.00    -0.016 C 
BRANCH  12  14
ATOM     14  N   UNL     1      35.768 -17.020 -23.093  0.00  0.00    +0.386 N 
ATOM     15  H   UNL     1      35.898 -17.751 -23.792  0.00  0.00    -0.089 HD
ATOM     16  H   UNL     1      36.599 -16.429 -23.060  0.00  0.00    -0.089 HD
ATOM     17  H   UNL     1      34.957 -16.453 -23.339  0.00  0.00    -0.089 HD
ENDBRANCH  12  14
ENDBRANCH  11  12
ENDBRANCH   3  11
TORSDOF 3
ENDMDL
MODEL 3
REMARK VINA RESULT:      -7.9      3.335      6.500
REMARK  Name = 57465250
REMARK  3 active torsions:
REMARK  status: ('A' for Active; 'I' for Inactive)
REMARK    1  A    between atoms: C_3  and  C_11
REMARK    2  A    between atoms: C_11  and  C_12
REMARK    3  A    between atoms: C_12  and  N_14
REMARK                            x       y       z     vdW  Elec       q    Type
REMARK                         _______ _______ _______ _____ _____    ______ ____
ROOT
ATOM      1  O   UNL     1      33.292 -14.296 -24.419  0.00  0.00    -0.435 OA
ATOM      2  O   UNL     1      33.629 -15.650 -26.383  0.00  0.00    -0.435 OA
ATOM      3  C   UNL     1      34.784 -17.212 -22.767  0.00  0.00    +0.036 C 
ATOM      4  C   UNL     1      33.857 -15.498 -24.126  0.00  0.00    +0.177 C 
ATOM      5  C   UNL     1      34.050 -16.271 -25.248  0.00  0.00    +0.176 C 
ATOM      6  C   UNL     1      34.215 -15.941 -22.869  0.00  0.00    +0.043 C 
ATOM      7  C   UNL     1      34.980 -18.003 -23.913  0.00  0.00    +0.006 C 
ATOM      8  C   UNL     1      34.610 -17.531 -25.175  0.00  0.00    +0.040 C 
ATOM      9  C   UNL     1      33.151 -14.398 -25.850  0.00  0.00    +0.429 C 
ENDROOT
BRANCH   3  11
ATOM     10  O   UNL     1      35.329 -16.944 -20.501  0.00  0.00    -0.294 OA
ATOM     11  C   UNL     1      35.177 -17.725 -21.464  0.00  0.00    +0.153 C 
BRANCH  11  12
ATOM     12  C   UNL     1      35.394 -19.238 -21.242  0.00  0.00    -0.002 C 
ATOM     13  C   UNL     1      34.119 -19.885 -20.718  0.00  0.00    -0.016 C 
BRANCH  12  14
ATOM     14  N   UNL     1      36.471 -19.414 -20.266  0.00  0.00    +0.386 N 
ATOM     15  H   UNL     1      36.070 -19.541 -19.337  0.00  0.00    -0.089 HD
ATOM     16  H   UNL     1      37.069 -18.587 -20.267  0.00  0.00    -0.089 HD
ATOM     17  H   UNL     1      37.024 -20.234 -20.514  0.00  0.00    -0.089 HD
ENDBRANCH  12  14
ENDBRANCH  11  12
ENDBRANCH   3  11
TORSDOF 3
ENDMDL
MODEL 4
REMARK VINA RESULT:      -7.4      3.751      6.711
REMARK  Name = 57465250
REMARK  3 active torsions:
REMARK  status: ('A' for Active; 'I' for Inactive)
REMARK    1  A    between atoms: C_3  and  C_11
REMARK    2  A    between atoms: C_11  and  C_12
REMARK    3  A    between atoms: C_12  and  N_14
REMARK                            x       y       z     vdW  Elec       q    Type
REMARK                         _______ _______ _______ _____ _____    ______ ____
ROOT
ATOM      1  O   UNL     1      33.928 -16.030 -26.007  0.00  0.00    -0.435 OA
ATOM      2  O   UNL     1      32.897 -13.919 -25.470  0.00  0.00    -0.435 OA
ATOM      3  C   UNL     1      34.385 -16.160 -22.369  0.00  0.00    +0.036 C 
ATOM      4  C   UNL     1      33.939 -15.775 -24.671  0.00  0.00    +0.177 C 
ATOM      5  C   UNL     1      33.350 -14.570 -24.365  0.00  0.00    +0.176 C 
ATOM      6  C   UNL     1      34.466 -16.595 -23.694  0.00  0.00    +0.043 C 
ATOM      7  C   UNL     1      33.784 -14.928 -22.056  0.00  0.00    +0.006 C 
ATOM      8  C   UNL     1      33.257 -14.117 -23.064  0.00  0.00    +0.040 C 
ATOM      9  C   UNL     1      33.266 -14.851 -26.508  0.00  0.00    +0.429 C 
ENDROOT
BRANCH   3  11
ATOM     10  O   UNL     1      35.210 -16.482 -20.196  0.00  0.00    -0.294 OA
ATOM     11  C   UNL     1      34.927 -16.987 -21.303  0.00  0.00    +0.153 C 
BRANCH  11  12
ATOM     12  C   UNL     1      35.146 -18.503 -21.512  0.00  0.00    -0.002 C 
ATOM     13  C   UNL     1      33.912 -19.281 -21.074  0.00  0.00    -0.016 C 
BRANCH  12  14
ATOM     14  N   UNL     1      36.299 -18.919 -20.712  0.00  0.00    +0.386 N 
ATOM     15  H   UNL     1      36.396 -19.933 -20.758  0.00  0.00    -0.089 HD
ATOM     16  H   UNL     1      36.160 -18.636 -19.742  0.00  0.00    -0.089 HD
ATOM     17  H   UNL     1      37.143 -18.479 -21.077  0.00  0.00    -0.089 HD
ENDBRANCH  12  14
ENDBRANCH  11  12
ENDBRANCH   3  11
TORSDOF 3
ENDMDL
MODEL 5
REMARK VINA RESULT:      -7.3      2.854      5.741
REMARK  Name = 57465250
REMARK  3 active torsions:
REMARK  status: ('A' for Active; 'I' for Inactive)
REMARK    1  A    between atoms: C_3  and  C_11
REMARK    2  A    between atoms: C_11  and  C_12
REMARK    3  A    between atoms: C_12  and  N_14
REMARK                            x       y       z     vdW  Elec       q    Type
REMARK                         _______ _______ _______ _____ _____    ______ ____
ROOT
ATOM      1  O   UNL     1      34.344 -17.365 -25.321  0.00  0.00    -0.435 OA
ATOM      2  O   UNL     1      33.992 -15.177 -24.374  0.00  0.00    -0.435 OA
ATOM      3  C   UNL     1      35.113 -18.198 -21.832  0.00  0.00    +0.036 C 
ATOM      4  C   UNL     1      34.560 -17.342 -23.978  0.00  0.00    +0.177 C 
ATOM      5  C   UNL     1      34.358 -16.093 -23.438  0.00  0.00    +0.176 C 
ATOM      6  C   UNL     1      34.938 -18.418 -23.200  0.00  0.00    +0.043 C 
ATOM      7  C   UNL     1      34.908 -16.922 -21.279  0.00  0.00    +0.006 C 
ATOM      8  C   UNL     1      34.525 -15.850 -22.089  0.00  0.00    +0.040 C 
ATOM      9  C   UNL     1      33.985 -15.990 -25.566  0.00  0.00    +0.429 C 
ENDROOT
BRANCH   3  11
ATOM     10  O   UNL     1      36.626 -19.284 -20.404  0.00  0.00    -0.294 OA
ATOM     11  C   UNL     1      35.512 -19.299 -20.970  0.00  0.00    +0.153 C 
BRANCH  11  12
ATOM     12  C   UNL     1      34.563 -20.494 -20.723  0.00  0.00    -0.002 C 
ATOM     13  C   UNL     1      33.145 -20.001 -20.472  0.00  0.00    -0.016 C 
BRANCH  12  14
ATOM     14  N   UNL     1      35.041 -21.230 -19.550  0.00  0.00    +0.386 N 
ATOM     15  H   UNL     1      34.844 -20.691 -18.707  0.00  0.00    -0.089 HD
ATOM     16  H   UNL     1      36.047 -21.381 -19.630  0.00  0.00    -0.089 HD
ATOM     17  H   UNL     1      34.565 -22.130 -19.498  0.00  0.00    -0.089 HD
ENDBRANCH  12  14
ENDBRANCH  11  12
ENDBRANCH   3  11
TORSDOF 3
ENDMDL
MODEL 6
REMARK VINA RESULT:      -7.2      2.959      5.488
REMARK  Name = 57465250
REMARK  3 active torsions:
REMARK  status: ('A' for Active; 'I' for Inactive)
REMARK    1  A    between atoms: C_3  and  C_11
REMARK    2  A    between atoms: C_11  and  C_12
REMARK    3  A    between atoms: C_12  and  N_14
REMARK                            x       y       z     vdW  Elec       q    Type
REMARK                         _______ _______ _______ _____ _____    ______ ____
ROOT
ATOM      1  O   UNL     1      36.519 -19.516 -20.896  0.00  0.00    -0.435 OA
ATOM      2  O   UNL     1      34.591 -18.288 -21.660  0.00  0.00    -0.435 OA
ATOM      3  C   UNL     1      33.937 -21.667 -19.423  0.00  0.00    +0.036 C 
ATOM      4  C   UNL     1      35.350 -20.087 -20.495  0.00  0.00    +0.177 C 
ATOM      5  C   UNL     1      34.250 -19.385 -20.932  0.00  0.00    +0.176 C 
ATOM      6  C   UNL     1      35.227 -21.234 -19.738  0.00  0.00    +0.043 C 
ATOM      7  C   UNL     1      32.812 -20.950 -19.868  0.00  0.00    +0.006 C 
ATOM      8  C   UNL     1      32.965 -19.792 -20.635  0.00  0.00    +0.040 C 
ATOM      9  C   UNL     1      36.031 -18.378 -21.634  0.00  0.00    +0.429 C 
ENDROOT
BRANCH   3  11
ATOM     10  O   UNL     1      33.893 -23.996 -19.147  0.00  0.00    -0.294 OA
ATOM     11  C   UNL     1      33.754 -22.870 -18.626  0.00  0.00    +0.153 C 
BRANCH  11  12
ATOM     12  C   UNL     1      33.404 -22.777 -17.124  0.00  0.00    -0.002 C 
ATOM     13  C   UNL     1      34.387 -23.597 -16.300  0.00  0.00    -0.016 C 
BRANCH  12  14
ATOM     14  N   UNL     1      32.048 -23.297 -16.932  0.00  0.00    +0.386 N 
ATOM     15  H   UNL     1      31.563 -22.731 -16.236  0.00  0.00    -0.089 HD
ATOM     16  H   UNL     1      32.098 -24.263 -16.608  0.00  0.00    -0.089 HD
ATOM     17  H   UNL     1      31.541 -23.259 -17.816  0.00  0.00    -0.089 HD
ENDBRANCH  12  14
ENDBRANCH  11  12
ENDBRANCH   3  11
TORSDOF 3
ENDMDL
MODEL 7
REMARK VINA RESULT:      -7.1      7.767      9.019
REMARK  Name = 57465250
REMARK  3 active torsions:
REMARK  status: ('A' for Active; 'I' for Inactive)
REMARK    1  A    between atoms: C_3  and  C_11
REMARK    2  A    between atoms: C_11  and  C_12
REMARK    3  A    between atoms: C_12  and  N_14
REMARK                            x       y       z     vdW  Elec       q    Type
REMARK                         _______ _______ _______ _____ _____    ______ ____
ROOT
ATOM      1  O   UNL     1      27.897 -21.636 -16.659  0.00  0.00    -0.435 OA
ATOM      2  O   UNL     1      27.393 -23.757 -17.685  0.00  0.00    -0.435 OA
ATOM      3  C   UNL     1      30.203 -23.705 -14.694  0.00  0.00    +0.036 C 
ATOM      4  C   UNL     1      28.624 -22.655 -16.125  0.00  0.00    +0.177 C 
ATOM      5  C   UNL     1      28.337 -23.865 -16.711  0.00  0.00    +0.176 C 
ATOM      6  C   UNL     1      29.555 -22.541 -15.112  0.00  0.00    +0.043 C 
ATOM      7  C   UNL     1      29.909 -24.943 -15.292  0.00  0.00    +0.006 C 
ATOM      8  C   UNL     1      28.963 -25.031 -16.316  0.00  0.00    +0.040 C 
ATOM      9  C   UNL     1      27.120 -22.341 -17.647  0.00  0.00    +0.429 C 
ENDROOT
BRANCH   3  11
ATOM     10  O   UNL     1      30.827 -23.539 -12.438  0.00  0.00    -0.294 OA
ATOM     11  C   UNL     1      31.191 -23.639 -13.629  0.00  0.00    +0.153 C 
BRANCH  11  12
ATOM     12  C   UNL     1      32.702 -23.709 -13.946  0.00  0.00    -0.002 C 
ATOM     13  C   UNL     1      32.959 -23.300 -15.390  0.00  0.00    -0.016 C 
BRANCH  12  14
ATOM     14  N   UNL     1      33.156 -25.086 -13.738  0.00  0.00    +0.386 N 
ATOM     15  H   UNL     1      34.024 -25.238 -14.251  0.00  0.00    -0.089 HD
ATOM     16  H   UNL     1      32.443 -25.733 -14.076  0.00  0.00    -0.089 HD
ATOM     17  H   UNL     1      33.315 -25.243 -12.743  0.00  0.00    -0.089 HD
ENDBRANCH  12  14
ENDBRANCH  11  12
ENDBRANCH   3  11
TORSDOF 3
ENDMDL
MODEL 8
REMARK VINA RESULT:      -7.1      7.290      8.381
REMARK  Name = 57465250
REMARK  3 active torsions:
REMARK  status: ('A' for Active; 'I' for Inactive)
REMARK    1  A    between atoms: C_3  and  C_11
REMARK    2  A    between atoms: C_11  and  C_12
REMARK    3  A    between atoms: C_12  and  N_14
REMARK                            x       y       z     vdW  Elec       q    Type
REMARK                         _______ _______ _______ _____ _____    ______ ____
ROOT
ATOM      1  O   UNL     1      29.390 -22.343 -17.065  0.00  0.00    -0.435 OA
ATOM      2  O   UNL     1      27.825 -24.028 -16.345  0.00  0.00    -0.435 OA
ATOM      3  C   UNL     1      31.615 -24.147 -14.773  0.00  0.00    +0.036 C 
ATOM      4  C   UNL     1      29.938 -23.208 -16.169  0.00  0.00    +0.177 C 
ATOM      5  C   UNL     1      29.045 -24.170 -15.759  0.00  0.00    +0.176 C 
ATOM      6  C   UNL     1      31.234 -23.169 -15.695  0.00  0.00    +0.043 C 
ATOM      7  C   UNL     1      30.703 -25.130 -14.353  0.00  0.00    +0.006 C 
ATOM      8  C   UNL     1      29.397 -25.147 -14.849  0.00  0.00    +0.040 C 
ATOM      9  C   UNL     1      28.052 -22.868 -17.173  0.00  0.00    +0.429 C 
ENDROOT
BRANCH   3  11
ATOM     10  O   UNL     1      33.172 -24.408 -13.037  0.00  0.00    -0.294 OA
ATOM     11  C   UNL     1      32.969 -24.149 -14.242  0.00  0.00    +0.153 C 
BRANCH  11  12
ATOM     12  C   UNL     1      34.178 -23.851 -15.157  0.00  0.00    -0.002 C 
ATOM     13  C   UNL     1      35.221 -24.952 -15.033  0.00  0.00    -0.016 C 
BRANCH  12  14
ATOM     14  N   UNL     1      34.763 -22.572 -14.749  0.00  0.00    +0.386 N 
ATOM     15  H   UNL     1      35.486 -22.737 -14.049  0.00  0.00    -0.089 HD
ATOM     16  H   UNL     1      34.036 -21.976 -14.353  0.00  0.00    -0.089 HD
ATOM     17  H   UNL     1      35.174 -22.112 -15.562  0.00  0.00    -0.089 HD
ENDBRANCH  12  14
ENDBRANCH  11  12
ENDBRANCH   3  11
TORSDOF 3
ENDMDL
MODEL 9
REMARK VINA RESULT:      -7.0      5.132      7.975
REMARK  Name = 57465250
REMARK  3 active torsions:
REMARK  status: ('A' for Active; 'I' for Inactive)
REMARK    1  A    between atoms: C_3  and  C_11
REMARK    2  A    between atoms: C_11  and  C_12
REMARK    3  A    between atoms: C_12  and  N_14
REMARK                            x       y       z     vdW  Elec       q    Type
REMARK                         _______ _______ _______ _____ _____    ______ ____
ROOT
ATOM      1  O   UNL     1      32.937 -22.409 -18.929  0.00  0.00    -0.435 OA
ATOM      2  O   UNL     1      35.137 -22.690 -17.987  0.00  0.00    -0.435 OA
ATOM      3  C   UNL     1      31.914 -23.495 -15.577  0.00  0.00    +0.036 C 
ATOM      4  C   UNL     1      32.896 -22.825 -17.633  0.00  0.00    +0.177 C 
ATOM      5  C   UNL     1      34.152 -22.984 -17.096  0.00  0.00    +0.176 C 
ATOM      6  C   UNL     1      31.754 -23.072 -16.898  0.00  0.00    +0.043 C 
ATOM      7  C   UNL     1      33.197 -23.660 -15.027  0.00  0.00    +0.006 C 
ATOM      8  C   UNL     1      34.337 -23.402 -15.793  0.00  0.00    +0.040 C 
ATOM      9  C   UNL     1      34.359 -22.325 -19.146  0.00  0.00    +0.429 C 
ENDROOT
BRANCH   3  11
ATOM     10  O   UNL     1      30.716 -23.423 -13.561  0.00  0.00    -0.294 OA
ATOM     11  C   UNL     1      30.742 -23.770 -14.760  0.00  0.00    +0.153 C 
BRANCH  11  12
ATOM     12  C   UNL     1      29.506 -24.475 -15.364  0.00  0.00    -0.002 C 
ATOM     13  C   UNL     1      28.412 -23.460 -15.665  0.00  0.00    -0.016 C 
BRANCH  12  14
ATOM     14  N   UNL     1      29.013 -25.455 -14.394  0.00  0.00    +0.386 N 
ATOM     15  H   UNL     1      28.907 -25.008 -13.483  0.00  0.00    -0.089 HD
ATOM     16  H   UNL     1      29.679 -26.224 -14.319  0.00  0.00    -0.089 HD
ATOM     17  H   UNL     1      28.110 -25.815 -14.704  0.00  0.00    -0.089 HD
ENDBRANCH  12  14
ENDBRANCH  11  12
ENDBRANCH   3  11
TORSDOF 3
ENDMDL
