MODEL 1
REMARK VINA RESULT:     -10.7      0.000      0.000
REMARK  Name = 9904203
REMARK  5 active torsions:
REMARK  status: ('A' for Active; 'I' for Inactive)
REMARK    1  A    between atoms: C_1  and  C_12
REMARK    2  A    between atoms: C_3  and  C_15
REMARK    3  A    between atoms: C_16  and  C_17
REMARK    4  A    between atoms: C_19  and  C_21
REMARK    5  A    between atoms: C_21  and  O_22
REMARK                            x       y       z     vdW  Elec       q    Type
REMARK                         _______ _______ _______ _____ _____    ______ ____
ROOT
ATOM      1  C   UNL     1      33.031 -24.100 -14.293  0.00  0.00    -0.022 C 
ATOM      2  C   UNL     1      34.181 -24.257 -13.324  0.00  0.00    +0.031 C 
ATOM      3  C   UNL     1      31.818 -24.579 -13.939  0.00  0.00    -0.004 C 
ENDROOT
BRANCH   1  12
ATOM      4  C   UNL     1      36.815 -22.572 -15.407  0.00  0.00    +0.009 C 
ATOM      5  C   UNL     1      37.209 -22.256 -16.845  0.00  0.00    +0.027 C 
ATOM      6  C   UNL     1      35.765 -23.676 -15.377  0.00  0.00    +0.027 C 
ATOM      7  C   UNL     1      36.016 -22.067 -17.754  0.00  0.00    -0.022 C 
ATOM      8  C   UNL     1      34.521 -23.243 -16.116  0.00  0.00    -0.023 C 
ATOM      9  C   UNL     1      34.733 -22.553 -17.418  0.00  0.00    -0.008 C 
ATOM     10  C   UNL     1      36.226 -21.431 -18.990  0.00  0.00    -0.004 C 
ATOM     11  C   UNL     1      33.693 -22.381 -18.350  0.00  0.00    -0.001 C 
ATOM     12  C   UNL     1      33.311 -23.434 -15.562  0.00  0.00    -0.009 C 
ATOM     13  C   UNL     1      35.178 -21.261 -19.891  0.00  0.00    -0.000 C 
ATOM     14  C   UNL     1      33.914 -21.738 -19.571  0.00  0.00    -0.000 C 
ENDBRANCH   1  12
BRANCH   3  15
ATOM     15  C   UNL     1      30.579 -24.545 -14.694  0.00  0.00    -0.001 C 
ATOM     16  C   UNL     1      29.971 -23.396 -15.037  0.00  0.00    -0.004 C 
BRANCH  16  17
ATOM     17  C   UNL     1      28.731 -23.265 -15.801  0.00  0.00    -0.015 C 
ATOM     18  C   UNL     1      28.431 -24.337 -16.824  0.00  0.00    +0.031 C 
ATOM     19  C   UNL     1      27.857 -22.246 -15.676  0.00  0.00    +0.077 C 
BRANCH  19  21
ATOM     20  O   UNL     1      26.447 -21.909 -17.618  0.00  0.00    -0.245 OA
ATOM     21  C   UNL     1      26.588 -22.055 -16.417  0.00  0.00    +0.338 C 
BRANCH  21  22
ATOM     22  O   UNL     1      25.571 -22.047 -15.522  0.00  0.00    -0.477 OA
ATOM     23  H   UNL     1      24.707 -22.288 -15.792  0.00  0.00    +0.295 HD
ENDBRANCH  21  22
ENDBRANCH  19  21
ENDBRANCH  16  17
ENDBRANCH   3  15
TORSDOF 5
ENDMDL
MODEL 2
REMARK VINA RESULT:     -10.4      6.551      9.720
REMARK  Name = 9904203
REMARK  5 active torsions:
REMARK  status: ('A' for Active; 'I' for Inactive)
REMARK    1  A    between atoms: C_1  and  C_12
REMARK    2  A    between atoms: C_3  and  C_15
REMARK    3  A    between atoms: C_16  and  C_17
REMARK    4  A    between atoms: C_19  and  C_21
REMARK    5  A    between atoms: C_21  and  O_22
REMARK                            x       y       z     vdW  Elec       q    Type
REMARK                         _______ _______ _______ _____ _____    ______ ____
ROOT
ATOM      1  C   UNL     1      34.464 -17.100 -24.135  0.00  0.00    -0.022 C 
ATOM      2  C   UNL     1      34.944 -17.570 -25.490  0.00  0.00    +0.031 C 
ATOM      3  C   UNL     1      34.367 -15.772 -23.910  0.00  0.00    -0.004 C 
ENDROOT
BRANCH   1  12
ATOM      4  C   UNL     1      37.308 -19.111 -21.734  0.00  0.00    +0.009 C 
ATOM      5  C   UNL     1      36.955 -19.859 -20.454  0.00  0.00    +0.027 C 
ATOM      6  C   UNL     1      36.310 -17.987 -21.981  0.00  0.00    +0.027 C 
ATOM      7  C   UNL     1      35.494 -20.236 -20.376  0.00  0.00    -0.022 C 
ATOM      8  C   UNL     1      34.915 -18.542 -22.136  0.00  0.00    -0.023 C 
ATOM      9  C   UNL     1      34.512 -19.596 -21.164  0.00  0.00    -0.008 C 
ATOM     10  C   UNL     1      35.118 -21.218 -19.443  0.00  0.00    -0.004 C 
ATOM     11  C   UNL     1      33.168 -19.973 -20.985  0.00  0.00    -0.001 C 
ATOM     12  C   UNL     1      34.135 -18.125 -23.148  0.00  0.00    -0.009 C 
ATOM     13  C   UNL     1      33.783 -21.583 -19.293  0.00  0.00    -0.000 C 
ATOM     14  C   UNL     1      32.809 -20.959 -20.062  0.00  0.00    -0.000 C 
ENDBRANCH   1  12
BRANCH   3  15
ATOM     15  C   UNL     1      33.936 -15.089 -22.703  0.00  0.00    -0.001 C 
ATOM     16  C   UNL     1      32.930 -14.197 -22.695  0.00  0.00    -0.004 C 
BRANCH  16  17
ATOM     17  C   UNL     1      32.424 -13.471 -21.531  0.00  0.00    -0.015 C 
ATOM     18  C   UNL     1      32.443 -14.192 -20.203  0.00  0.00    +0.031 C 
ATOM     19  C   UNL     1      31.918 -12.221 -21.568  0.00  0.00    +0.077 C 
BRANCH  19  21
ATOM     20  O   UNL     1      32.011 -11.017 -19.467  0.00  0.00    -0.245 OA
ATOM     21  C   UNL     1      31.390 -11.432 -20.429  0.00  0.00    +0.338 C 
BRANCH  21  22
ATOM     22  O   UNL     1      30.061 -11.252 -20.618  0.00  0.00    -0.477 OA
ATOM     23  H   UNL     1      29.644 -11.601 -21.381  0.00  0.00    +0.295 HD
ENDBRANCH  21  22
ENDBRANCH  19  21
ENDBRANCH  16  17
ENDBRANCH   3  15
TORSDOF 5
ENDMDL
MODEL 3
REMARK VINA RESULT:     -10.3     12.556     15.051
REMARK  Name = 9904203
REMARK  5 active torsions:
REMARK  status: ('A' for Active; 'I' for Inactive)
REMARK    1  A    between atoms: C_1  and  C_12
REMARK    2  A    between atoms: C_3  and  C_15
REMARK    3  A    between atoms: C_16  and  C_17
REMARK    4  A    between atoms: C_19  and  C_21
REMARK    5  A    between atoms: C_21  and  O_22
REMARK                            x       y       z     vdW  Elec       q    Type
REMARK                         _______ _______ _______ _____ _____    ______ ____
ROOT
ATOM      1  C   UNL     1      31.511 -11.288 -20.717  0.00  0.00    -0.022 C 
ATOM      2  C   UNL     1      31.239 -11.038 -19.251  0.00  0.00    +0.031 C 
ATOM      3  C   UNL     1      31.917 -12.519 -21.097  0.00  0.00    -0.004 C 
ENDROOT
BRANCH   1  12
ATOM      4  C   UNL     1      32.218  -7.235 -19.733  0.00  0.00    +0.009 C 
ATOM      5  C   UNL     1      32.407  -6.134 -20.770  0.00  0.00    +0.027 C 
ATOM      6  C   UNL     1      32.658  -8.578 -20.302  0.00  0.00    +0.027 C 
ATOM      7  C   UNL     1      31.847  -6.500 -22.125  0.00  0.00    -0.022 C 
ATOM      8  C   UNL     1      31.832  -8.935 -21.515  0.00  0.00    -0.023 C 
ATOM      9  C   UNL     1      31.588  -7.839 -22.493  0.00  0.00    -0.008 C 
ATOM     10  C   UNL     1      31.636  -5.463 -23.051  0.00  0.00    -0.004 C 
ATOM     11  C   UNL     1      31.120  -8.090 -23.796  0.00  0.00    -0.001 C 
ATOM     12  C   UNL     1      31.313 -10.169 -21.635  0.00  0.00    -0.009 C 
ATOM     13  C   UNL     1      31.160  -5.736 -24.330  0.00  0.00    -0.000 C 
ATOM     14  C   UNL     1      30.904  -7.049 -24.702  0.00  0.00    -0.000 C 
ENDBRANCH   1  12
BRANCH   3  15
ATOM     15  C   UNL     1      32.235 -12.992 -22.433  0.00  0.00    -0.001 C 
ATOM     16  C   UNL     1      33.045 -14.043 -22.655  0.00  0.00    -0.004 C 
BRANCH  16  17
ATOM     17  C   UNL     1      33.413 -14.593 -23.959  0.00  0.00    -0.015 C 
ATOM     18  C   UNL     1      34.505 -15.637 -23.987  0.00  0.00    +0.031 C 
ATOM     19  C   UNL     1      32.868 -14.213 -25.132  0.00  0.00    +0.077 C 
BRANCH  19  21
ATOM     20  O   UNL     1      33.821 -14.159 -27.360  0.00  0.00    -0.245 OA
ATOM     21  C   UNL     1      33.195 -14.728 -26.483  0.00  0.00    +0.338 C 
BRANCH  21  22
ATOM     22  O   UNL     1      32.656 -15.965 -26.608  0.00  0.00    -0.477 OA
ATOM     23  H   UNL     1      31.941 -16.107 -27.195  0.00  0.00    +0.295 HD
ENDBRANCH  21  22
ENDBRANCH  19  21
ENDBRANCH  16  17
ENDBRANCH   3  15
TORSDOF 5
ENDMDL
MODEL 4
REMARK VINA RESULT:     -10.1      9.812     13.235
REMARK  Name = 9904203
REMARK  5 active torsions:
REMARK  status: ('A' for Active; 'I' for Inactive)
REMARK    1  A    between atoms: C_1  and  C_12
REMARK    2  A    between atoms: C_3  and  C_15
REMARK    3  A    between atoms: C_16  and  C_17
REMARK    4  A    between atoms: C_19  and  C_21
REMARK    5  A    between atoms: C_21  and  O_22
REMARK                            x       y       z     vdW  Elec       q    Type
REMARK                         _______ _______ _______ _____ _____    ______ ____
ROOT
ATOM      1  C   UNL     1      33.342 -14.104 -25.348  0.00  0.00    -0.022 C 
ATOM      2  C   UNL     1      33.068 -13.808 -26.805  0.00  0.00    +0.031 C 
ATOM      3  C   UNL     1      33.862 -15.308 -25.021  0.00  0.00    -0.004 C 
ENDROOT
BRANCH   1  12
ATOM      4  C   UNL     1      35.319 -10.371 -25.122  0.00  0.00    +0.009 C 
ATOM      5  C   UNL     1      34.742  -9.151 -24.414  0.00  0.00    +0.027 C 
ATOM      6  C   UNL     1      34.196 -11.271 -25.623  0.00  0.00    +0.027 C 
ATOM      7  C   UNL     1      33.673  -9.506 -23.407  0.00  0.00    -0.022 C 
ATOM      8  C   UNL     1      33.354 -11.758 -24.469  0.00  0.00    -0.023 C 
ATOM      9  C   UNL     1      32.993 -10.744 -23.440  0.00  0.00    -0.008 C 
ATOM     10  C   UNL     1      33.323  -8.537 -22.450  0.00  0.00    -0.004 C 
ATOM     11  C   UNL     1      31.972 -10.965 -22.497  0.00  0.00    -0.001 C 
ATOM     12  C   UNL     1      33.023 -13.058 -24.380  0.00  0.00    -0.009 C 
ATOM     13  C   UNL     1      32.318  -8.785 -21.520  0.00  0.00    -0.000 C 
ATOM     14  C   UNL     1      31.643  -9.998 -21.545  0.00  0.00    -0.000 C 
ENDBRANCH   1  12
BRANCH   3  15
ATOM     15  C   UNL     1      34.206 -15.815 -23.704  0.00  0.00    -0.001 C 
ATOM     16  C   UNL     1      34.572 -17.092 -23.493  0.00  0.00    -0.004 C 
BRANCH  16  17
ATOM     17  C   UNL     1      34.943 -17.686 -22.210  0.00  0.00    -0.015 C 
ATOM     18  C   UNL     1      34.944 -16.779 -21.001  0.00  0.00    +0.031 C 
ATOM     19  C   UNL     1      35.309 -18.973 -22.038  0.00  0.00    +0.077 C 
BRANCH  19  21
ATOM     20  O   UNL     1      36.796 -19.653 -20.250  0.00  0.00    -0.245 OA
ATOM     21  C   UNL     1      35.694 -19.635 -20.770  0.00  0.00    +0.338 C 
BRANCH  21  22
ATOM     22  O   UNL     1      34.601 -20.257 -20.266  0.00  0.00    -0.477 OA
ATOM     23  H   UNL     1      34.693 -20.876 -19.569  0.00  0.00    +0.295 HD
ENDBRANCH  21  22
ENDBRANCH  19  21
ENDBRANCH  16  17
ENDBRANCH   3  15
TORSDOF 5
ENDMDL
MODEL 5
REMARK VINA RESULT:     -10.0     10.389     13.622
REMARK  Name = 9904203
REMARK  5 active torsions:
REMARK  status: ('A' for Active; 'I' for Inactive)
REMARK    1  A    between atoms: C_1  and  C_12
REMARK    2  A    between atoms: C_3  and  C_15
REMARK    3  A    between atoms: C_16  and  C_17
REMARK    4  A    between atoms: C_19  and  C_21
REMARK    5  A    between atoms: C_21  and  O_22
REMARK                            x       y       z     vdW  Elec       q    Type
REMARK                         _______ _______ _______ _____ _____    ______ ____
ROOT
ATOM      1  C   UNL     1      33.600 -12.614 -25.787  0.00  0.00    -0.022 C 
ATOM      2  C   UNL     1      33.280 -13.097 -27.184  0.00  0.00    +0.031 C 
ATOM      3  C   UNL     1      33.440 -11.302 -25.505  0.00  0.00    -0.004 C 
ENDROOT
BRANCH   1  12
ATOM      4  C   UNL     1      32.192 -12.936 -21.811  0.00  0.00    +0.009 C 
ATOM      5  C   UNL     1      32.359 -14.185 -20.953  0.00  0.00    +0.027 C 
ATOM      6  C   UNL     1      32.151 -13.310 -23.287  0.00  0.00    +0.027 C 
ATOM      7  C   UNL     1      33.466 -15.091 -21.442  0.00  0.00    -0.022 C 
ATOM      8  C   UNL     1      33.437 -13.987 -23.697  0.00  0.00    -0.023 C 
ATOM      9  C   UNL     1      33.972 -15.012 -22.759  0.00  0.00    -0.008 C 
ATOM     10  C   UNL     1      33.954 -16.069 -20.558  0.00  0.00    -0.004 C 
ATOM     11  C   UNL     1      34.963 -15.933 -23.144  0.00  0.00    -0.001 C 
ATOM     12  C   UNL     1      34.065 -13.609 -24.824  0.00  0.00    -0.009 C 
ATOM     13  C   UNL     1      34.944 -16.960 -20.959  0.00  0.00    -0.000 C 
ATOM     14  C   UNL     1      35.447 -16.893 -22.252  0.00  0.00    -0.000 C 
ENDBRANCH   1  12
BRANCH   3  15
ATOM     15  C   UNL     1      33.681 -10.613 -24.250  0.00  0.00    -0.001 C 
ATOM     16  C   UNL     1      32.853  -9.666 -23.774  0.00  0.00    -0.004 C 
BRANCH  16  17
ATOM     17  C   UNL     1      33.009  -8.928 -22.521  0.00  0.00    -0.015 C 
ATOM     18  C   UNL     1      34.053  -7.836 -22.485  0.00  0.00    +0.031 C 
ATOM     19  C   UNL     1      32.309  -9.174 -21.395  0.00  0.00    +0.077 C 
BRANCH  19  21
ATOM     20  O   UNL     1      32.311  -7.270 -19.896  0.00  0.00    -0.245 OA
ATOM     21  C   UNL     1      32.419  -8.466 -20.097  0.00  0.00    +0.338 C 
BRANCH  21  22
ATOM     22  O   UNL     1      32.685  -9.383 -19.135  0.00  0.00    -0.477 OA
ATOM     23  H   UNL     1      32.010  -9.650 -18.543  0.00  0.00    +0.295 HD
ENDBRANCH  21  22
ENDBRANCH  19  21
ENDBRANCH  16  17
ENDBRANCH   3  15
TORSDOF 5
ENDMDL
MODEL 6
REMARK VINA RESULT:     -10.0      3.968      7.231
REMARK  Name = 9904203
REMARK  5 active torsions:
REMARK  status: ('A' for Active; 'I' for Inactive)
REMARK    1  A    between atoms: C_1  and  C_12
REMARK    2  A    between atoms: C_3  and  C_15
REMARK    3  A    between atoms: C_16  and  C_17
REMARK    4  A    between atoms: C_19  and  C_21
REMARK    5  A    between atoms: C_21  and  O_22
REMARK                            x       y       z     vdW  Elec       q    Type
REMARK                         _______ _______ _______ _____ _____    ______ ____
ROOT
ATOM      1  C   UNL     1      36.378 -22.192 -17.330  0.00  0.00    -0.022 C 
ATOM      2  C   UNL     1      37.518 -22.517 -16.391  0.00  0.00    +0.031 C 
ATOM      3  C   UNL     1      36.647 -21.492 -18.454  0.00  0.00    -0.004 C 
ENDROOT
BRANCH   1  12
ATOM      4  C   UNL     1      35.498 -24.275 -13.755  0.00  0.00    +0.009 C 
ATOM      5  C   UNL     1      34.094 -24.402 -13.175  0.00  0.00    +0.027 C 
ATOM      6  C   UNL     1      35.618 -22.994 -14.571  0.00  0.00    +0.027 C 
ATOM      7  C   UNL     1      33.010 -24.160 -14.199  0.00  0.00    -0.022 C 
ATOM      8  C   UNL     1      34.639 -23.005 -15.720  0.00  0.00    -0.023 C 
ATOM      9  C   UNL     1      33.261 -23.476 -15.410  0.00  0.00    -0.008 C 
ATOM     10  C   UNL     1      31.707 -24.591 -13.892  0.00  0.00    -0.004 C 
ATOM     11  C   UNL     1      32.179 -23.247 -16.279  0.00  0.00    -0.001 C 
ATOM     12  C   UNL     1      35.047 -22.661 -16.954  0.00  0.00    -0.009 C 
ATOM     13  C   UNL     1      30.655 -24.363 -14.774  0.00  0.00    -0.000 C 
ATOM     14  C   UNL     1      30.891 -23.690 -15.965  0.00  0.00    -0.000 C 
ENDBRANCH   1  12
BRANCH   3  15
ATOM     15  C   UNL     1      35.728 -21.066 -19.494  0.00  0.00    -0.001 C 
ATOM     16  C   UNL     1      35.997 -20.042 -20.323  0.00  0.00    -0.004 C 
BRANCH  16  17
ATOM     17  C   UNL     1      35.138 -19.550 -21.400  0.00  0.00    -0.015 C 
ATOM     18  C   UNL     1      33.647 -19.740 -21.239  0.00  0.00    +0.031 C 
ATOM     19  C   UNL     1      35.585 -18.969 -22.531  0.00  0.00    +0.077 C 
BRANCH  19  21
ATOM     20  O   UNL     1      34.382 -19.067 -24.633  0.00  0.00    -0.245 OA
ATOM     21  C   UNL     1      34.772 -18.451 -23.657  0.00  0.00    +0.338 C 
BRANCH  21  22
ATOM     22  O   UNL     1      34.535 -17.135 -23.439  0.00  0.00    -0.477 OA
ATOM     23  H   UNL     1      35.198 -16.502 -23.627  0.00  0.00    +0.295 HD
ENDBRANCH  21  22
ENDBRANCH  19  21
ENDBRANCH  16  17
ENDBRANCH   3  15
TORSDOF 5
ENDMDL
MODEL 7
REMARK VINA RESULT:      -9.7     14.391     17.237
REMARK  Name = 9904203
REMARK  5 active torsions:
REMARK  status: ('A' for Active; 'I' for Inactive)
REMARK    1  A    between atoms: C_1  and  C_12
REMARK    2  A    between atoms: C_3  and  C_15
REMARK    3  A    between atoms: C_16  and  C_17
REMARK    4  A    between atoms: C_19  and  C_21
REMARK    5  A    between atoms: C_21  and  O_22
REMARK                            x       y       z     vdW  Elec       q    Type
REMARK                         _______ _______ _______ _____ _____    ______ ____
ROOT
ATOM      1  C   UNL     1      32.956  -8.571 -22.180  0.00  0.00    -0.022 C 
ATOM      2  C   UNL     1      32.942  -7.850 -20.851  0.00  0.00    +0.031 C 
ATOM      3  C   UNL     1      32.570  -9.865 -22.217  0.00  0.00    -0.004 C 
ENDROOT
BRANCH   1  12
ATOM      4  C   UNL     1      30.627  -5.622 -24.123  0.00  0.00    +0.009 C 
ATOM      5  C   UNL     1      31.208  -4.566 -25.056  0.00  0.00    +0.027 C 
ATOM      6  C   UNL     1      31.671  -6.055 -23.101  0.00  0.00    +0.027 C 
ATOM      7  C   UNL     1      32.562  -4.948 -25.607  0.00  0.00    -0.022 C 
ATOM      8  C   UNL     1      32.872  -6.655 -23.792  0.00  0.00    -0.023 C 
ATOM      9  C   UNL     1      33.370  -5.933 -24.995  0.00  0.00    -0.008 C 
ATOM     10  C   UNL     1      33.035  -4.250 -26.732  0.00  0.00    -0.004 C 
ATOM     11  C   UNL     1      34.640  -6.183 -25.545  0.00  0.00    -0.001 C 
ATOM     12  C   UNL     1      33.393  -7.812 -23.349  0.00  0.00    -0.009 C 
ATOM     13  C   UNL     1      34.291  -4.525 -27.265  0.00  0.00    -0.000 C 
ATOM     14  C   UNL     1      35.093  -5.490 -26.670  0.00  0.00    -0.000 C 
ENDBRANCH   1  12
BRANCH   3  15
ATOM     15  C   UNL     1      32.501 -10.754 -23.363  0.00  0.00    -0.001 C 
ATOM     16  C   UNL     1      33.507 -11.582 -23.698  0.00  0.00    -0.004 C 
BRANCH  16  17
ATOM     17  C   UNL     1      33.524 -12.515 -24.824  0.00  0.00    -0.015 C 
ATOM     18  C   UNL     1      33.937 -11.968 -26.171  0.00  0.00    +0.031 C 
ATOM     19  C   UNL     1      33.170 -13.814 -24.748  0.00  0.00    +0.077 C 
BRANCH  19  21
ATOM     20  O   UNL     1      34.015 -15.644 -26.094  0.00  0.00    -0.245 OA
ATOM     21  C   UNL     1      33.163 -14.809 -25.847  0.00  0.00    +0.338 C 
BRANCH  21  22
ATOM     22  O   UNL     1      32.034 -14.630 -26.575  0.00  0.00    -0.477 OA
ATOM     23  H   UNL     1      31.264 -14.286 -26.167  0.00  0.00    +0.295 HD
ENDBRANCH  21  22
ENDBRANCH  19  21
ENDBRANCH  16  17
ENDBRANCH   3  15
TORSDOF 5
ENDMDL
MODEL 8
REMARK VINA RESULT:      -9.7      3.567      6.867
REMARK  Name = 9904203
REMARK  5 active torsions:
REMARK  status: ('A' for Active; 'I' for Inactive)
REMARK    1  A    between atoms: C_1  and  C_12
REMARK    2  A    between atoms: C_3  and  C_15
REMARK    3  A    between atoms: C_16  and  C_17
REMARK    4  A    between atoms: C_19  and  C_21
REMARK    5  A    between atoms: C_21  and  O_22
REMARK                            x       y       z     vdW  Elec       q    Type
REMARK                         _______ _______ _______ _____ _____    ______ ____
ROOT
ATOM      1  C   UNL     1      35.046 -23.491 -16.124  0.00  0.00    -0.022 C 
ATOM      2  C   UNL     1      35.561 -24.521 -15.144  0.00  0.00    +0.031 C 
ATOM      3  C   UNL     1      35.941 -22.733 -16.793  0.00  0.00    -0.004 C 
ENDROOT
BRANCH   1  12
ATOM      4  C   UNL     1      32.219 -25.122 -13.433  0.00  0.00    +0.009 C 
ATOM      5  C   UNL     1      30.762 -24.679 -13.365  0.00  0.00    +0.027 C 
ATOM      6  C   UNL     1      33.096 -23.983 -13.935  0.00  0.00    +0.027 C 
ATOM      7  C   UNL     1      30.298 -23.988 -14.626  0.00  0.00    -0.022 C 
ATOM      8  C   UNL     1      32.673 -23.562 -15.323  0.00  0.00    -0.023 C 
ATOM      9  C   UNL     1      31.208 -23.436 -15.557  0.00  0.00    -0.008 C 
ATOM     10  C   UNL     1      28.914 -23.855 -14.832  0.00  0.00    -0.004 C 
ATOM     11  C   UNL     1      30.684 -22.761 -16.675  0.00  0.00    -0.001 C 
ATOM     12  C   UNL     1      33.598 -23.383 -16.281  0.00  0.00    -0.009 C 
ATOM     13  C   UNL     1      28.421 -23.194 -15.954  0.00  0.00    -0.000 C 
ATOM     14  C   UNL     1      29.306 -22.646 -16.873  0.00  0.00    -0.000 C 
ENDBRANCH   1  12
BRANCH   3  15
ATOM     15  C   UNL     1      35.687 -21.690 -17.772  0.00  0.00    -0.001 C 
ATOM     16  C   UNL     1      34.958 -21.902 -18.883  0.00  0.00    -0.004 C 
BRANCH  16  17
ATOM     17  C   UNL     1      34.645 -20.915 -19.915  0.00  0.00    -0.015 C 
ATOM     18  C   UNL     1      33.185 -20.632 -20.183  0.00  0.00    +0.031 C 
ATOM     19  C   UNL     1      35.564 -20.267 -20.660  0.00  0.00    +0.077 C 
BRANCH  19  21
ATOM     20  O   UNL     1      34.968 -19.464 -22.867  0.00  0.00    -0.245 OA
ATOM     21  C   UNL     1      35.314 -19.259 -21.718  0.00  0.00    +0.338 C 
BRANCH  21  22
ATOM     22  O   UNL     1      35.556 -18.031 -21.199  0.00  0.00    -0.477 OA
ATOM     23  H   UNL     1      34.854 -17.420 -21.094  0.00  0.00    +0.295 HD
ENDBRANCH  21  22
ENDBRANCH  19  21
ENDBRANCH  16  17
ENDBRANCH   3  15
TORSDOF 5
ENDMDL
MODEL 9
REMARK VINA RESULT:      -9.5     12.075     14.762
REMARK  Name = 9904203
REMARK  5 active torsions:
REMARK  status: ('A' for Active; 'I' for Inactive)
REMARK    1  A    between atoms: C_1  and  C_12
REMARK    2  A    between atoms: C_3  and  C_15
REMARK    3  A    between atoms: C_16  and  C_17
REMARK    4  A    between atoms: C_19  and  C_21
REMARK    5  A    between atoms: C_21  and  O_22
REMARK                            x       y       z     vdW  Elec       q    Type
REMARK                         _______ _______ _______ _____ _____    ______ ____
ROOT
ATOM      1  C   UNL     1      31.846 -11.285 -21.548  0.00  0.00    -0.022 C 
ATOM      2  C   UNL     1      31.314 -11.870 -20.258  0.00  0.00    +0.031 C 
ATOM      3  C   UNL     1      31.875  -9.942 -21.683  0.00  0.00    -0.004 C 
ENDROOT
BRANCH   1  12
ATOM      4  C   UNL     1      34.250 -14.681 -20.788  0.00  0.00    +0.009 C 
ATOM      5  C   UNL     1      34.380 -15.857 -21.749  0.00  0.00    +0.027 C 
ATOM      6  C   UNL     1      32.898 -14.003 -20.963  0.00  0.00    +0.027 C 
ATOM      7  C   UNL     1      33.991 -15.505 -23.166  0.00  0.00    -0.022 C 
ATOM      8  C   UNL     1      32.751 -13.472 -22.369  0.00  0.00    -0.023 C 
ATOM      9  C   UNL     1      33.196 -14.376 -23.466  0.00  0.00    -0.008 C 
ATOM     10  C   UNL     1      34.398 -16.372 -24.194  0.00  0.00    -0.004 C 
ATOM     11  C   UNL     1      32.835 -14.158 -24.808  0.00  0.00    -0.001 C 
ATOM     12  C   UNL     1      32.297 -12.223 -22.572  0.00  0.00    -0.009 C 
ATOM     13  C   UNL     1      34.038 -16.127 -25.517  0.00  0.00    -0.000 C 
ATOM     14  C   UNL     1      33.256 -15.021 -25.822  0.00  0.00    -0.000 C 
ENDBRANCH   1  12
BRANCH   3  15
ATOM     15  C   UNL     1      32.336  -9.158 -22.816  0.00  0.00    -0.001 C 
ATOM     16  C   UNL     1      32.601  -7.843 -22.726  0.00  0.00    -0.004 C 
BRANCH  16  17
ATOM     17  C   UNL     1      33.075  -6.979 -23.807  0.00  0.00    -0.015 C 
ATOM     18  C   UNL     1      34.533  -7.087 -24.191  0.00  0.00    +0.031 C 
ATOM     19  C   UNL     1      32.312  -6.078 -24.458  0.00  0.00    +0.077 C 
BRANCH  19  21
ATOM     20  O   UNL     1      33.325  -5.477 -26.576  0.00  0.00    -0.245 OA
ATOM     21  C   UNL     1      32.730  -5.175 -25.557  0.00  0.00    +0.338 C 
BRANCH  21  22
ATOM     22  O   UNL     1      32.352  -3.914 -25.237  0.00  0.00    -0.477 OA
ATOM     23  H   UNL     1      31.705  -3.773 -24.575  0.00  0.00    +0.295 HD
ENDBRANCH  21  22
ENDBRANCH  19  21
ENDBRANCH  16  17
ENDBRANCH   3  15
TORSDOF 5
ENDMDL
