MODEL 1
REMARK VINA RESULT:      -6.9      0.000      0.000
REMARK  Name = 49867722
REMARK  7 active torsions:
REMARK  status: ('A' for Active; 'I' for Inactive)
REMARK    1  A    between atoms: N_1  and  C_6
REMARK    2  A    between atoms: C_5  and  C_15
REMARK    3  A    between atoms: C_6  and  C_8
REMARK    4  A    between atoms: C_6  and  C_11
REMARK    5  A    between atoms: C_8  and  O_9
REMARK    6  A    between atoms: C_11  and  C_12
REMARK    7  A    between atoms: C_15  and  N_16
REMARK                            x       y       z     vdW  Elec       q    Type
REMARK                         _______ _______ _______ _____ _____    ______ ____
ROOT
ATOM      1  N   UNL     1      34.763 -19.024 -20.885  0.00  0.00    -0.154 NA
ATOM      2  N   UNL     1      35.994 -19.291 -20.419  0.00  0.00    -0.063 NA
ATOM      3  N   UNL     1      35.937 -20.470 -19.809  0.00  0.00    -0.156 NA
ATOM      4  C   UNL     1      33.887 -20.022 -20.589  0.00  0.00    +0.136 C 
ATOM      5  C   UNL     1      34.653 -20.931 -19.904  0.00  0.00    +0.053 C 
ENDROOT
BRANCH   1   6
ATOM      6  C   UNL     1      34.482 -17.740 -21.647  0.00  0.00    +0.178 C 
BRANCH   6   8
ATOM      7  O   UNL     1      34.504 -17.606 -24.084  0.00  0.00    -0.249 OA
ATOM      8  C   UNL     1      35.104 -17.798 -23.035  0.00  0.00    +0.330 C 
BRANCH   8   9
ATOM      9  O   UNL     1      36.425 -18.116 -22.993  0.00  0.00    -0.479 OA
ATOM     10  H   UNL     1      37.069 -17.437 -22.927  0.00  0.00    +0.295 HD
ENDBRANCH   8   9
ENDBRANCH   6   8
BRANCH   6  11
ATOM     11  C   UNL     1      34.968 -16.510 -20.845  0.00  0.00    +0.029 C 
BRANCH  11  12
ATOM     12  C   UNL     1      34.013 -15.295 -20.874  0.00  0.00    +0.002 C 
ATOM     13  C   UNL     1      34.298 -14.448 -22.118  0.00  0.00    +0.000 C 
ATOM     14  C   UNL     1      32.540 -15.706 -20.863  0.00  0.00    +0.000 C 
ENDBRANCH  11  12
ENDBRANCH   6  11
ENDBRANCH   1   6
BRANCH   5  15
ATOM     15  C   UNL     1      34.263 -22.223 -19.325  0.00  0.00    -0.040 C 
BRANCH  15  16
ATOM     16  N   UNL     1      32.880 -22.238 -18.819  0.00  0.00    +0.384 N 
ATOM     17  H   UNL     1      32.488 -23.173 -18.928  0.00  0.00    -0.089 HD
ATOM     18  H   UNL     1      32.317 -21.570 -19.346  0.00  0.00    -0.089 HD
ATOM     19  H   UNL     1      32.876 -21.980 -17.832  0.00  0.00    -0.089 HD
ENDBRANCH  15  16
ENDBRANCH   5  15
TORSDOF 7
ENDMDL
MODEL 2
REMARK VINA RESULT:      -6.7      1.139      1.423
REMARK  Name = 49867722
REMARK  7 active torsions:
REMARK  status: ('A' for Active; 'I' for Inactive)
REMARK    1  A    between atoms: N_1  and  C_6
REMARK    2  A    between atoms: C_5  and  C_15
REMARK    3  A    between atoms: C_6  and  C_8
REMARK    4  A    between atoms: C_6  and  C_11
REMARK    5  A    between atoms: C_8  and  O_9
REMARK    6  A    between atoms: C_11  and  C_12
REMARK    7  A    between atoms: C_15  and  N_16
REMARK                            x       y       z     vdW  Elec       q    Type
REMARK                         _______ _______ _______ _____ _____    ______ ____
ROOT
ATOM      1  N   UNL     1      33.950 -19.282 -21.034  0.00  0.00    -0.154 NA
ATOM      2  N   UNL     1      32.665 -19.443 -20.677  0.00  0.00    -0.063 NA
ATOM      3  N   UNL     1      32.600 -20.532 -19.918  0.00  0.00    -0.156 NA
ATOM      4  C   UNL     1      34.741 -20.260 -20.516  0.00  0.00    +0.136 C 
ATOM      5  C   UNL     1      33.863 -21.044 -19.810  0.00  0.00    +0.053 C 
ENDROOT
BRANCH   1   6
ATOM      6  C   UNL     1      34.372 -18.114 -21.909  0.00  0.00    +0.178 C 
BRANCH   6   8
ATOM      7  O   UNL     1      34.969 -19.311 -23.951  0.00  0.00    -0.249 OA
ATOM      8  C   UNL     1      35.299 -18.589 -23.019  0.00  0.00    +0.330 C 
BRANCH   8   9
ATOM      9  O   UNL     1      36.571 -18.137 -22.856  0.00  0.00    -0.479 OA
ATOM     10  H   UNL     1      37.060 -18.378 -22.093  0.00  0.00    +0.295 HD
ENDBRANCH   8   9
ENDBRANCH   6   8
BRANCH   6  11
ATOM     11  C   UNL     1      35.015 -16.996 -21.056  0.00  0.00    +0.029 C 
BRANCH  11  12
ATOM     12  C   UNL     1      34.303 -15.627 -21.133  0.00  0.00    +0.002 C 
ATOM     13  C   UNL     1      34.514 -15.016 -22.522  0.00  0.00    +0.000 C 
ATOM     14  C   UNL     1      32.805 -15.727 -20.842  0.00  0.00    +0.000 C 
ENDBRANCH  11  12
ENDBRANCH   6  11
ENDBRANCH   1   6
BRANCH   5  15
ATOM     15  C   UNL     1      34.129 -22.259 -19.028  0.00  0.00    -0.040 C 
BRANCH  15  16
ATOM     16  N   UNL     1      32.941 -22.763 -18.319  0.00  0.00    +0.384 N 
ATOM     17  H   UNL     1      32.894 -22.342 -17.391  0.00  0.00    -0.089 HD
ATOM     18  H   UNL     1      33.002 -23.777 -18.228  0.00  0.00    -0.089 HD
ATOM     19  H   UNL     1      32.102 -22.519 -18.845  0.00  0.00    -0.089 HD
ENDBRANCH  15  16
ENDBRANCH   5  15
TORSDOF 7
ENDMDL
MODEL 3
REMARK VINA RESULT:      -6.6      8.280      9.875
REMARK  Name = 49867722
REMARK  7 active torsions:
REMARK  status: ('A' for Active; 'I' for Inactive)
REMARK    1  A    between atoms: N_1  and  C_6
REMARK    2  A    between atoms: C_5  and  C_15
REMARK    3  A    between atoms: C_6  and  C_8
REMARK    4  A    between atoms: C_6  and  C_11
REMARK    5  A    between atoms: C_8  and  O_9
REMARK    6  A    between atoms: C_11  and  C_12
REMARK    7  A    between atoms: C_15  and  N_16
REMARK                            x       y       z     vdW  Elec       q    Type
REMARK                         _______ _______ _______ _____ _____    ______ ____
ROOT
ATOM      1  N   UNL     1      29.156 -23.663 -16.248  0.00  0.00    -0.154 NA
ATOM      2  N   UNL     1      28.523 -24.366 -17.202  0.00  0.00    -0.063 NA
ATOM      3  N   UNL     1      27.471 -23.650 -17.586  0.00  0.00    -0.156 NA
ATOM      4  C   UNL     1      28.530 -22.481 -15.997  0.00  0.00    +0.136 C 
ATOM      5  C   UNL     1      27.461 -22.493 -16.858  0.00  0.00    +0.053 C 
ENDROOT
BRANCH   1   6
ATOM      6  C   UNL     1      30.416 -24.202 -15.593  0.00  0.00    +0.178 C 
BRANCH   6   8
ATOM      7  O   UNL     1      30.773 -24.559 -13.205  0.00  0.00    -0.249 OA
ATOM      8  C   UNL     1      30.102 -24.754 -14.209  0.00  0.00    +0.330 C 
BRANCH   8   9
ATOM      9  O   UNL     1      28.981 -25.524 -14.206  0.00  0.00    -0.479 OA
ATOM     10  H   UNL     1      28.692 -25.927 -13.411  0.00  0.00    +0.295 HD
ENDBRANCH   8   9
ENDBRANCH   6   8
BRANCH   6  11
ATOM     11  C   UNL     1      31.517 -23.117 -15.548  0.00  0.00    +0.029 C 
BRANCH  11  12
ATOM     12  C   UNL     1      32.885 -23.554 -16.119  0.00  0.00    +0.002 C 
ATOM     13  C   UNL     1      33.077 -22.948 -17.513  0.00  0.00    +0.000 C 
ATOM     14  C   UNL     1      34.053 -23.147 -15.220  0.00  0.00    +0.000 C 
ENDBRANCH  11  12
ENDBRANCH   6  11
ENDBRANCH   1   6
BRANCH   5  15
ATOM     15  C   UNL     1      26.415 -21.480 -17.051  0.00  0.00    -0.040 C 
BRANCH  15  16
ATOM     16  N   UNL     1      25.978 -21.357 -18.451  0.00  0.00    +0.384 N 
ATOM     17  H   UNL     1      25.054 -21.777 -18.558  0.00  0.00    -0.089 HD
ATOM     18  H   UNL     1      26.641 -21.838 -19.059  0.00  0.00    -0.089 HD
ATOM     19  H   UNL     1      25.935 -20.371 -18.709  0.00  0.00    -0.089 HD
ENDBRANCH  15  16
ENDBRANCH   5  15
TORSDOF 7
ENDMDL
MODEL 4
REMARK VINA RESULT:      -6.5      8.503     10.997
REMARK  Name = 49867722
REMARK  7 active torsions:
REMARK  status: ('A' for Active; 'I' for Inactive)
REMARK    1  A    between atoms: N_1  and  C_6
REMARK    2  A    between atoms: C_5  and  C_15
REMARK    3  A    between atoms: C_6  and  C_8
REMARK    4  A    between atoms: C_6  and  C_11
REMARK    5  A    between atoms: C_8  and  O_9
REMARK    6  A    between atoms: C_11  and  C_12
REMARK    7  A    between atoms: C_15  and  N_16
REMARK                            x       y       z     vdW  Elec       q    Type
REMARK                         _______ _______ _______ _____ _____    ______ ____
ROOT
ATOM      1  N   UNL     1      35.344 -24.273 -13.049  0.00  0.00    -0.154 NA
ATOM      2  N   UNL     1      34.170 -24.314 -12.397  0.00  0.00    -0.063 NA
ATOM      3  N   UNL     1      33.219 -24.024 -13.279  0.00  0.00    -0.156 NA
ATOM      4  C   UNL     1      35.177 -23.958 -14.362  0.00  0.00    +0.136 C 
ATOM      5  C   UNL     1      33.820 -23.803 -14.487  0.00  0.00    +0.053 C 
ENDROOT
BRANCH   1   6
ATOM      6  C   UNL     1      36.647 -24.565 -12.324  0.00  0.00    +0.178 C 
BRANCH   6   8
ATOM      7  O   UNL     1      37.417 -22.602 -11.094  0.00  0.00    -0.249 OA
ATOM      8  C   UNL     1      36.795 -23.656 -11.111  0.00  0.00    +0.330 C 
BRANCH   8   9
ATOM      9  O   UNL     1      36.170 -24.158 -10.014  0.00  0.00    -0.479 OA
ATOM     10  H   UNL     1      35.344 -23.806  -9.743  0.00  0.00    +0.295 HD
ENDBRANCH   8   9
ENDBRANCH   6   8
BRANCH   6  11
ATOM     11  C   UNL     1      37.849 -24.445 -13.288  0.00  0.00    +0.029 C 
BRANCH  11  12
ATOM     12  C   UNL     1      38.596 -25.770 -13.564  0.00  0.00    +0.002 C 
ATOM     13  C   UNL     1      37.798 -26.610 -14.566  0.00  0.00    +0.000 C 
ATOM     14  C   UNL     1      40.011 -25.546 -14.099  0.00  0.00    +0.000 C 
ENDBRANCH  11  12
ENDBRANCH   6  11
ENDBRANCH   1   6
BRANCH   5  15
ATOM     15  C   UNL     1      33.031 -23.460 -15.678  0.00  0.00    -0.040 C 
BRANCH  15  16
ATOM     16  N   UNL     1      33.856 -23.252 -16.879  0.00  0.00    +0.384 N 
ATOM     17  H   UNL     1      34.677 -23.857 -16.838  0.00  0.00    -0.089 HD
ATOM     18  H   UNL     1      34.155 -22.277 -16.924  0.00  0.00    -0.089 HD
ATOM     19  H   UNL     1      33.310 -23.478 -17.711  0.00  0.00    -0.089 HD
ENDBRANCH  15  16
ENDBRANCH   5  15
TORSDOF 7
ENDMDL
MODEL 5
REMARK VINA RESULT:      -6.4      1.791      2.984
REMARK  Name = 49867722
REMARK  7 active torsions:
REMARK  status: ('A' for Active; 'I' for Inactive)
REMARK    1  A    between atoms: N_1  and  C_6
REMARK    2  A    between atoms: C_5  and  C_15
REMARK    3  A    between atoms: C_6  and  C_8
REMARK    4  A    between atoms: C_6  and  C_11
REMARK    5  A    between atoms: C_8  and  O_9
REMARK    6  A    between atoms: C_11  and  C_12
REMARK    7  A    between atoms: C_15  and  N_16
REMARK                            x       y       z     vdW  Elec       q    Type
REMARK                         _______ _______ _______ _____ _____    ______ ____
ROOT
ATOM      1  N   UNL     1      35.200 -18.657 -20.976  0.00  0.00    -0.154 NA
ATOM      2  N   UNL     1      36.382 -19.010 -20.445  0.00  0.00    -0.063 NA
ATOM      3  N   UNL     1      36.222 -20.204 -19.883  0.00  0.00    -0.156 NA
ATOM      4  C   UNL     1      34.253 -19.612 -20.770  0.00  0.00    +0.136 C 
ATOM      5  C   UNL     1      34.923 -20.586 -20.074  0.00  0.00    +0.053 C 
ENDROOT
BRANCH   1   6
ATOM      6  C   UNL     1      35.039 -17.334 -21.705  0.00  0.00    +0.178 C 
BRANCH   6   8
ATOM      7  O   UNL     1      35.051 -15.598 -19.989  0.00  0.00    -0.249 OA
ATOM      8  C   UNL     1      34.426 -16.289 -20.782  0.00  0.00    +0.330 C 
BRANCH   8   9
ATOM      9  O   UNL     1      33.075 -16.216 -20.915  0.00  0.00    -0.479 OA
ATOM     10  H   UNL     1      32.651 -15.380 -20.934  0.00  0.00    +0.295 HD
ENDBRANCH   8   9
ENDBRANCH   6   8
BRANCH   6  11
ATOM     11  C   UNL     1      34.214 -17.519 -22.999  0.00  0.00    +0.029 C 
BRANCH  11  12
ATOM     12  C   UNL     1      35.043 -17.878 -24.253  0.00  0.00    +0.002 C 
ATOM     13  C   UNL     1      34.713 -19.308 -24.694  0.00  0.00    +0.000 C 
ATOM     14  C   UNL     1      34.796 -16.917 -25.416  0.00  0.00    +0.000 C 
ENDBRANCH  11  12
ENDBRANCH   6  11
ENDBRANCH   1   6
BRANCH   5  15
ATOM     15  C   UNL     1      34.426 -21.872 -19.568  0.00  0.00    -0.040 C 
BRANCH  15  16
ATOM     16  N   UNL     1      32.963 -21.906 -19.406  0.00  0.00    +0.384 N 
ATOM     17  H   UNL     1      32.667 -22.856 -19.180  0.00  0.00    -0.089 HD
ATOM     18  H   UNL     1      32.517 -21.609 -20.274  0.00  0.00    -0.089 HD
ATOM     19  H   UNL     1      32.689 -21.276 -18.652  0.00  0.00    -0.089 HD
ENDBRANCH  15  16
ENDBRANCH   5  15
TORSDOF 7
ENDMDL
MODEL 6
REMARK VINA RESULT:      -6.4      9.485     11.462
REMARK  Name = 49867722
REMARK  7 active torsions:
REMARK  status: ('A' for Active; 'I' for Inactive)
REMARK    1  A    between atoms: N_1  and  C_6
REMARK    2  A    between atoms: C_5  and  C_15
REMARK    3  A    between atoms: C_6  and  C_8
REMARK    4  A    between atoms: C_6  and  C_11
REMARK    5  A    between atoms: C_8  and  O_9
REMARK    6  A    between atoms: C_11  and  C_12
REMARK    7  A    between atoms: C_15  and  N_16
REMARK                            x       y       z     vdW  Elec       q    Type
REMARK                         _______ _______ _______ _____ _____    ______ ____
ROOT
ATOM      1  N   UNL     1      32.236  -7.654 -21.356  0.00  0.00    -0.154 NA
ATOM      2  N   UNL     1      32.548  -7.590 -20.051  0.00  0.00    -0.063 NA
ATOM      3  N   UNL     1      32.281  -8.781 -19.523  0.00  0.00    -0.156 NA
ATOM      4  C   UNL     1      31.763  -8.883 -21.699  0.00  0.00    +0.136 C 
ATOM      5  C   UNL     1      31.800  -9.583 -20.520  0.00  0.00    +0.053 C 
ENDROOT
BRANCH   1   6
ATOM      6  C   UNL     1      32.429  -6.449 -22.261  0.00  0.00    +0.178 C 
BRANCH   6   8
ATOM      7  O   UNL     1      30.646  -5.066 -23.191  0.00  0.00    -0.249 OA
ATOM      8  C   UNL     1      31.203  -5.547 -22.214  0.00  0.00    +0.330 C 
BRANCH   8   9
ATOM      9  O   UNL     1      30.792  -5.305 -20.941  0.00  0.00    -0.479 OA
ATOM     10  H   UNL     1      29.936  -4.957 -20.783  0.00  0.00    +0.295 HD
ENDBRANCH   8   9
ENDBRANCH   6   8
BRANCH   6  11
ATOM     11  C   UNL     1      32.766  -6.895 -23.702  0.00  0.00    +0.029 C 
BRANCH  11  12
ATOM     12  C   UNL     1      34.275  -6.976 -24.023  0.00  0.00    +0.002 C 
ATOM     13  C   UNL     1      34.733  -8.437 -23.976  0.00  0.00    +0.000 C 
ATOM     14  C   UNL     1      34.618  -6.377 -25.388  0.00  0.00    +0.000 C 
ENDBRANCH  11  12
ENDBRANCH   6  11
ENDBRANCH   1   6
BRANCH   5  15
ATOM     15  C   UNL     1      31.411 -10.975 -20.256  0.00  0.00    -0.040 C 
BRANCH  15  16
ATOM     16  N   UNL     1      30.556 -11.548 -21.309  0.00  0.00    +0.384 N 
ATOM     17  H   UNL     1      29.852 -10.864 -21.586  0.00  0.00    -0.089 HD
ATOM     18  H   UNL     1      30.094 -12.386 -20.954  0.00  0.00    -0.089 HD
ATOM     19  H   UNL     1      31.129 -11.793 -22.116  0.00  0.00    -0.089 HD
ENDBRANCH  15  16
ENDBRANCH   5  15
TORSDOF 7
ENDMDL
MODEL 7
REMARK VINA RESULT:      -6.4      4.053      6.528
REMARK  Name = 49867722
REMARK  7 active torsions:
REMARK  status: ('A' for Active; 'I' for Inactive)
REMARK    1  A    between atoms: N_1  and  C_6
REMARK    2  A    between atoms: C_5  and  C_15
REMARK    3  A    between atoms: C_6  and  C_8
REMARK    4  A    between atoms: C_6  and  C_11
REMARK    5  A    between atoms: C_8  and  O_9
REMARK    6  A    between atoms: C_11  and  C_12
REMARK    7  A    between atoms: C_15  and  N_16
REMARK                            x       y       z     vdW  Elec       q    Type
REMARK                         _______ _______ _______ _____ _____    ______ ____
ROOT
ATOM      1  N   UNL     1      33.716 -15.070 -22.545  0.00  0.00    -0.154 NA
ATOM      2  N   UNL     1      32.585 -14.743 -21.897  0.00  0.00    -0.063 NA
ATOM      3  N   UNL     1      32.277 -13.498 -22.245  0.00  0.00    -0.156 NA
ATOM      4  C   UNL     1      34.160 -14.046 -23.324  0.00  0.00    +0.136 C 
ATOM      5  C   UNL     1      33.232 -13.057 -23.118  0.00  0.00    +0.053 C 
ENDROOT
BRANCH   1   6
ATOM      6  C   UNL     1      34.343 -16.442 -22.372  0.00  0.00    +0.178 C 
BRANCH   6   8
ATOM      7  O   UNL     1      35.430 -17.609 -20.523  0.00  0.00    -0.249 OA
ATOM      8  C   UNL     1      34.910 -16.593 -20.967  0.00  0.00    +0.330 C 
BRANCH   8   9
ATOM      9  O   UNL     1      34.757 -15.464 -20.227  0.00  0.00    -0.479 OA
ATOM     10  H   UNL     1      34.992 -15.463 -19.319  0.00  0.00    +0.295 HD
ENDBRANCH   8   9
ENDBRANCH   6   8
BRANCH   6  11
ATOM     11  C   UNL     1      35.411 -16.698 -23.459  0.00  0.00    +0.029 C 
BRANCH  11  12
ATOM     12  C   UNL     1      35.071 -17.832 -24.452  0.00  0.00    +0.002 C 
ATOM     13  C   UNL     1      34.657 -19.087 -23.677  0.00  0.00    +0.000 C 
ATOM     14  C   UNL     1      33.958 -17.445 -25.427  0.00  0.00    +0.000 C 
ENDBRANCH  11  12
ENDBRANCH   6  11
ENDBRANCH   1   6
BRANCH   5  15
ATOM     15  C   UNL     1      33.173 -11.706 -23.692  0.00  0.00    -0.040 C 
BRANCH  15  16
ATOM     16  N   UNL     1      34.470 -11.240 -24.210  0.00  0.00    +0.384 N 
ATOM     17  H   UNL     1      34.754 -10.398 -23.708  0.00  0.00    -0.089 HD
ATOM     18  H   UNL     1      34.384 -11.029 -25.205  0.00  0.00    -0.089 HD
ATOM     19  H   UNL     1      35.172 -11.968 -24.077  0.00  0.00    -0.089 HD
ENDBRANCH  15  16
ENDBRANCH   5  15
TORSDOF 7
ENDMDL
MODEL 8
REMARK VINA RESULT:      -6.4      2.329      5.026
REMARK  Name = 49867722
REMARK  7 active torsions:
REMARK  status: ('A' for Active; 'I' for Inactive)
REMARK    1  A    between atoms: N_1  and  C_6
REMARK    2  A    between atoms: C_5  and  C_15
REMARK    3  A    between atoms: C_6  and  C_8
REMARK    4  A    between atoms: C_6  and  C_11
REMARK    5  A    between atoms: C_8  and  O_9
REMARK    6  A    between atoms: C_11  and  C_12
REMARK    7  A    between atoms: C_15  and  N_16
REMARK                            x       y       z     vdW  Elec       q    Type
REMARK                         _______ _______ _______ _____ _____    ______ ____
ROOT
ATOM      1  N   UNL     1      34.544 -17.059 -21.474  0.00  0.00    -0.154 NA
ATOM      2  N   UNL     1      35.271 -16.495 -20.495  0.00  0.00    -0.063 NA
ATOM      3  N   UNL     1      34.679 -15.348 -20.176  0.00  0.00    -0.156 NA
ATOM      4  C   UNL     1      33.471 -16.292 -21.808  0.00  0.00    +0.136 C 
ATOM      5  C   UNL     1      33.576 -15.209 -20.972  0.00  0.00    +0.053 C 
ENDROOT
BRANCH   1   6
ATOM      6  C   UNL     1      34.948 -18.397 -22.068  0.00  0.00    +0.178 C 
BRANCH   6   8
ATOM      7  O   UNL     1      34.519 -19.126 -24.358  0.00  0.00    -0.249 OA
ATOM      8  C   UNL     1      35.004 -18.309 -23.588  0.00  0.00    +0.330 C 
BRANCH   8   9
ATOM      9  O   UNL     1      35.686 -17.212 -24.014  0.00  0.00    -0.479 OA
ATOM     10  H   UNL     1      35.612 -16.932 -24.906  0.00  0.00    +0.295 HD
ENDBRANCH   8   9
ENDBRANCH   6   8
BRANCH   6  11
ATOM     11  C   UNL     1      34.000 -19.519 -21.588  0.00  0.00    +0.029 C 
BRANCH  11  12
ATOM     12  C   UNL     1      34.395 -20.175 -20.245  0.00  0.00    +0.002 C 
ATOM     13  C   UNL     1      33.315 -21.178 -19.827  0.00  0.00    +0.000 C 
ATOM     14  C   UNL     1      35.749 -20.882 -20.314  0.00  0.00    +0.000 C 
ENDBRANCH  11  12
ENDBRANCH   6  11
ENDBRANCH   1   6
BRANCH   5  15
ATOM     15  C   UNL     1      32.700 -14.035 -20.861  0.00  0.00    -0.040 C 
BRANCH  15  16
ATOM     16  N   UNL     1      32.118 -13.622 -22.149  0.00  0.00    +0.384 N 
ATOM     17  H   UNL     1      31.977 -12.612 -22.151  0.00  0.00    -0.089 HD
ATOM     18  H   UNL     1      31.222 -14.091 -22.285  0.00  0.00    -0.089 HD
ATOM     19  H   UNL     1      32.752 -13.878 -22.907  0.00  0.00    -0.089 HD
ENDBRANCH  15  16
ENDBRANCH   5  15
TORSDOF 7
ENDMDL
MODEL 9
REMARK VINA RESULT:      -6.4      6.063      8.879
REMARK  Name = 49867722
REMARK  7 active torsions:
REMARK  status: ('A' for Active; 'I' for Inactive)
REMARK    1  A    between atoms: N_1  and  C_6
REMARK    2  A    between atoms: C_5  and  C_15
REMARK    3  A    between atoms: C_6  and  C_8
REMARK    4  A    between atoms: C_6  and  C_11
REMARK    5  A    between atoms: C_8  and  O_9
REMARK    6  A    between atoms: C_11  and  C_12
REMARK    7  A    between atoms: C_15  and  N_16
REMARK                            x       y       z     vdW  Elec       q    Type
REMARK                         _______ _______ _______ _____ _____    ______ ____
ROOT
ATOM      1  N   UNL     1      36.374 -22.743 -16.312  0.00  0.00    -0.154 NA
ATOM      2  N   UNL     1      35.170 -23.258 -16.612  0.00  0.00    -0.063 NA
ATOM      3  N   UNL     1      34.832 -22.799 -17.813  0.00  0.00    -0.156 NA
ATOM      4  C   UNL     1      36.839 -21.943 -17.310  0.00  0.00    +0.136 C 
ATOM      5  C   UNL     1      35.844 -21.992 -18.253  0.00  0.00    +0.053 C 
ENDROOT
BRANCH   1   6
ATOM      6  C   UNL     1      37.057 -23.077 -14.997  0.00  0.00    +0.178 C 
BRANCH   6   8
ATOM      7  O   UNL     1      39.143 -24.343 -14.947  0.00  0.00    -0.249 OA
ATOM      8  C   UNL     1      37.938 -24.309 -15.154  0.00  0.00    +0.330 C 
BRANCH   8   9
ATOM      9  O   UNL     1      37.235 -25.392 -15.581  0.00  0.00    -0.479 OA
ATOM     10  H   UNL     1      36.886 -25.411 -16.451  0.00  0.00    +0.295 HD
ENDBRANCH   8   9
ENDBRANCH   6   8
BRANCH   6  11
ATOM     11  C   UNL     1      36.015 -23.249 -13.868  0.00  0.00    +0.029 C 
BRANCH  11  12
ATOM     12  C   UNL     1      36.557 -23.907 -12.578  0.00  0.00    +0.002 C 
ATOM     13  C   UNL     1      37.275 -22.855 -11.728  0.00  0.00    +0.000 C 
ATOM     14  C   UNL     1      35.455 -24.568 -11.749  0.00  0.00    +0.000 C 
ENDBRANCH  11  12
ENDBRANCH   6  11
ENDBRANCH   1   6
BRANCH   5  15
ATOM     15  C   UNL     1      35.773 -21.326 -19.561  0.00  0.00    -0.040 C 
BRANCH  15  16
ATOM     16  N   UNL     1      36.622 -20.127 -19.648  0.00  0.00    +0.384 N 
ATOM     17  H   UNL     1      37.264 -20.221 -20.435  0.00  0.00    -0.089 HD
ATOM     18  H   UNL     1      37.156 -20.023 -18.785  0.00  0.00    -0.089 HD
ATOM     19  H   UNL     1      36.035 -19.304 -19.785  0.00  0.00    -0.089 HD
ENDBRANCH  15  16
ENDBRANCH   5  15
TORSDOF 7
ENDMDL
