MODEL 1
REMARK VINA RESULT:     -10.4      0.000      0.000
REMARK  Name = 54723327
REMARK  6 active torsions:
REMARK  status: ('A' for Active; 'I' for Inactive)
REMARK    1  A    between atoms: N_2  and  C_5
REMARK    2  A    between atoms: C_3  and  C_18
REMARK    3  A    between atoms: C_6  and  C_11
REMARK    4  A    between atoms: C_17  and  C_19
REMARK    5  A    between atoms: C_17  and  O_22
REMARK    6  A    between atoms: C_18  and  C_25
REMARK                            x       y       z     vdW  Elec       q    Type
REMARK                         _______ _______ _______ _____ _____    ______ ____
ROOT
ATOM      1  O   UNL     1      32.088 -12.856 -22.892  0.00  0.00    -0.269 OA
ATOM      2  N   UNL     1      34.360 -13.357 -23.186  0.00  0.00    -0.280 N 
ATOM      3  C   UNL     1      33.219 -12.566 -23.265  0.00  0.00    +0.262 C 
ATOM      4  H   UNL     1      35.191 -12.960 -23.533  0.00  0.00    +0.155 HD
ENDROOT
BRANCH   2   5
ATOM      5  C   UNL     1      34.463 -14.668 -22.660  0.00  0.00    +0.051 C 
ATOM      6  C   UNL     1      34.664 -17.250 -21.625  0.00  0.00    +0.000 C 
ATOM      7  C   UNL     1      34.584 -15.758 -23.523  0.00  0.00    +0.015 C 
ATOM      8  C   UNL     1      34.442 -14.870 -21.280  0.00  0.00    +0.015 C 
ATOM      9  C   UNL     1      34.685 -17.049 -23.005  0.00  0.00    +0.001 C 
ATOM     10  C   UNL     1      34.544 -16.161 -20.762  0.00  0.00    +0.001 C 
BRANCH   6  11
ATOM     11  C   UNL     1      34.769 -18.589 -21.086  0.00  0.00    +0.000 C 
ATOM     12  C   UNL     1      36.025 -19.144 -20.839  0.00  0.00    +0.000 C 
ATOM     13  C   UNL     1      33.616 -19.325 -20.815  0.00  0.00    +0.000 C 
ATOM     14  C   UNL     1      36.127 -20.435 -20.320  0.00  0.00    +0.000 C 
ATOM     15  C   UNL     1      33.718 -20.616 -20.296  0.00  0.00    +0.000 C 
ATOM     16  C   UNL     1      34.973 -21.171 -20.048  0.00  0.00    +0.000 C 
ENDBRANCH   6  11
ENDBRANCH   2   5
BRANCH   3  18
ATOM     17  C   UNL     1      33.027 -10.104 -23.290  0.00  0.00    +0.125 C 
ATOM     18  C   UNL     1      33.497 -11.223 -23.886  0.00  0.00    +0.151 C 
BRANCH  17  19
ATOM     19  C   UNL     1      33.260  -8.726 -23.805  0.00  0.00    +0.057 C 
ATOM     20  C   UNL     1      33.167  -7.571 -22.851  0.00  0.00    +0.008 C 
ATOM     21  C   UNL     1      34.502  -7.995 -23.387  0.00  0.00    +0.008 C 
ENDBRANCH  17  19
BRANCH  17  22
ATOM     22  O   UNL     1      32.258 -10.223 -22.135  0.00  0.00    -0.509 OA
ATOM     23  H   UNL     1      31.384 -10.556 -22.188  0.00  0.00    +0.292 HD
ENDBRANCH  17  22
BRANCH  18  25
ATOM     24  N   UNL     1      34.898 -11.098 -26.061  0.00  0.00    -0.191 NA
ATOM     25  C   UNL     1      34.268 -11.154 -25.087  0.00  0.00    +0.108 C 
ENDBRANCH  18  25
ENDBRANCH   3  18
TORSDOF 6
ENDMDL
MODEL 2
REMARK VINA RESULT:     -10.2      1.697      2.511
REMARK  Name = 54723327
REMARK  6 active torsions:
REMARK  status: ('A' for Active; 'I' for Inactive)
REMARK    1  A    between atoms: N_2  and  C_5
REMARK    2  A    between atoms: C_3  and  C_18
REMARK    3  A    between atoms: C_6  and  C_11
REMARK    4  A    between atoms: C_17  and  C_19
REMARK    5  A    between atoms: C_17  and  O_22
REMARK    6  A    between atoms: C_18  and  C_25
REMARK                            x       y       z     vdW  Elec       q    Type
REMARK                         _______ _______ _______ _____ _____    ______ ____
ROOT
ATOM      1  O   UNL     1      32.454 -14.174 -23.324  0.00  0.00    -0.269 OA
ATOM      2  N   UNL     1      34.478 -15.125 -24.033  0.00  0.00    -0.280 N 
ATOM      3  C   UNL     1      33.454 -14.184 -24.033  0.00  0.00    +0.262 C 
ATOM      4  H   UNL     1      35.211 -14.972 -24.672  0.00  0.00    +0.155 HD
ENDROOT
BRANCH   2   5
ATOM      5  C   UNL     1      34.586 -16.277 -23.216  0.00  0.00    +0.051 C 
ATOM      6  C   UNL     1      34.802 -18.546 -21.609  0.00  0.00    +0.000 C 
ATOM      7  C   UNL     1      34.635 -16.146 -21.828  0.00  0.00    +0.015 C 
ATOM      8  C   UNL     1      34.647 -17.542 -23.800  0.00  0.00    +0.015 C 
ATOM      9  C   UNL     1      34.742 -17.281 -21.024  0.00  0.00    +0.001 C 
ATOM     10  C   UNL     1      34.754 -18.677 -22.997  0.00  0.00    +0.001 C 
BRANCH   6  11
ATOM     11  C   UNL     1      34.913 -19.724 -20.776  0.00  0.00    +0.000 C 
ATOM     12  C   UNL     1      33.762 -20.380 -20.339  0.00  0.00    +0.000 C 
ATOM     13  C   UNL     1      36.171 -20.203 -20.409  0.00  0.00    +0.000 C 
ATOM     14  C   UNL     1      33.868 -21.516 -19.536  0.00  0.00    +0.000 C 
ATOM     15  C   UNL     1      36.277 -21.340 -19.606  0.00  0.00    +0.000 C 
ATOM     16  C   UNL     1      35.126 -21.995 -19.170  0.00  0.00    +0.000 C 
ENDBRANCH   6  11
ENDBRANCH   2   5
BRANCH   3  18
ATOM     17  C   UNL     1      33.995 -11.845 -24.617  0.00  0.00    +0.125 C 
ATOM     18  C   UNL     1      33.683 -13.091 -25.043  0.00  0.00    +0.151 C 
BRANCH  17  19
ATOM     19  C   UNL     1      34.263 -10.697 -25.527  0.00  0.00    +0.057 C 
ATOM     20  C   UNL     1      34.953  -9.483 -24.977  0.00  0.00    +0.008 C 
ATOM     21  C   UNL     1      35.680 -10.397 -25.919  0.00  0.00    +0.008 C 
ENDBRANCH  17  19
BRANCH  17  22
ATOM     22  O   UNL     1      34.055 -11.592 -23.249  0.00  0.00    -0.509 OA
ATOM     23  H   UNL     1      34.841 -11.253 -22.870  0.00  0.00    +0.292 HD
ENDBRANCH  17  22
BRANCH  18  25
ATOM     24  N   UNL     1      33.501 -13.634 -27.569  0.00  0.00    -0.191 NA
ATOM     25  C   UNL     1      33.583 -13.393 -26.436  0.00  0.00    +0.108 C 
ENDBRANCH  18  25
ENDBRANCH   3  18
TORSDOF 6
ENDMDL
MODEL 3
REMARK VINA RESULT:     -10.2      6.625     11.811
REMARK  Name = 54723327
REMARK  6 active torsions:
REMARK  status: ('A' for Active; 'I' for Inactive)
REMARK    1  A    between atoms: N_2  and  C_5
REMARK    2  A    between atoms: C_3  and  C_18
REMARK    3  A    between atoms: C_6  and  C_11
REMARK    4  A    between atoms: C_17  and  C_19
REMARK    5  A    between atoms: C_17  and  O_22
REMARK    6  A    between atoms: C_18  and  C_25
REMARK                            x       y       z     vdW  Elec       q    Type
REMARK                         _______ _______ _______ _____ _____    ______ ____
ROOT
ATOM      1  O   UNL     1      37.211 -21.295 -16.507  0.00  0.00    -0.269 OA
ATOM      2  N   UNL     1      35.603 -22.379 -17.827  0.00  0.00    -0.280 N 
ATOM      3  C   UNL     1      36.439 -22.222 -16.727  0.00  0.00    +0.262 C 
ATOM      4  H   UNL     1      35.044 -23.189 -17.838  0.00  0.00    +0.155 HD
ENDROOT
BRANCH   2   5
ATOM      5  C   UNL     1      35.463 -21.504 -18.932  0.00  0.00    +0.051 C 
ATOM      6  C   UNL     1      35.187 -19.781 -21.107  0.00  0.00    +0.000 C 
ATOM      7  C   UNL     1      36.592 -20.918 -19.505  0.00  0.00    +0.015 C 
ATOM      8  C   UNL     1      34.196 -21.227 -19.446  0.00  0.00    +0.015 C 
ATOM      9  C   UNL     1      36.454 -20.057 -20.593  0.00  0.00    +0.001 C 
ATOM     10  C   UNL     1      34.058 -20.366 -20.534  0.00  0.00    +0.001 C 
BRANCH   6  11
ATOM     11  C   UNL     1      35.042 -18.888 -22.237  0.00  0.00    +0.000 C 
ATOM     12  C   UNL     1      35.201 -17.512 -22.062  0.00  0.00    +0.000 C 
ATOM     13  C   UNL     1      34.743 -19.401 -23.499  0.00  0.00    +0.000 C 
ATOM     14  C   UNL     1      35.062 -16.651 -23.151  0.00  0.00    +0.000 C 
ATOM     15  C   UNL     1      34.605 -18.539 -24.587  0.00  0.00    +0.000 C 
ATOM     16  C   UNL     1      34.763 -17.165 -24.414  0.00  0.00    +0.000 C 
ENDBRANCH   6  11
ENDBRANCH   2   5
BRANCH   3  18
ATOM     17  C   UNL     1      37.433 -23.968 -15.289  0.00  0.00    +0.125 C 
ATOM     18  C   UNL     1      36.315 -23.360 -15.748  0.00  0.00    +0.151 C 
BRANCH  17  19
ATOM     19  C   UNL     1      37.428 -25.086 -14.305  0.00  0.00    +0.057 C 
ATOM     20  C   UNL     1      38.726 -25.504 -13.679  0.00  0.00    +0.008 C 
ATOM     21  C   UNL     1      37.696 -24.782 -12.860  0.00  0.00    +0.008 C 
ENDBRANCH  17  19
BRANCH  17  22
ATOM     22  O   UNL     1      38.674 -23.555 -15.767  0.00  0.00    -0.509 OA
ATOM     23  H   UNL     1      39.456 -23.809 -15.319  0.00  0.00    +0.292 HD
ENDBRANCH  17  22
BRANCH  18  25
ATOM     24  N   UNL     1      33.965 -24.094 -14.945  0.00  0.00    -0.191 NA
ATOM     25  C   UNL     1      35.018 -23.766 -15.308  0.00  0.00    +0.108 C 
ENDBRANCH  18  25
ENDBRANCH   3  18
TORSDOF 6
ENDMDL
MODEL 4
REMARK VINA RESULT:      -9.7      2.076      8.985
REMARK  Name = 54723327
REMARK  6 active torsions:
REMARK  status: ('A' for Active; 'I' for Inactive)
REMARK    1  A    between atoms: N_2  and  C_5
REMARK    2  A    between atoms: C_3  and  C_18
REMARK    3  A    between atoms: C_6  and  C_11
REMARK    4  A    between atoms: C_17  and  C_19
REMARK    5  A    between atoms: C_17  and  O_22
REMARK    6  A    between atoms: C_18  and  C_25
REMARK                            x       y       z     vdW  Elec       q    Type
REMARK                         _______ _______ _______ _____ _____    ______ ____
ROOT
ATOM      1  O   UNL     1      34.894 -14.364 -21.399  0.00  0.00    -0.269 OA
ATOM      2  N   UNL     1      33.536 -14.059 -23.287  0.00  0.00    -0.280 N 
ATOM      3  C   UNL     1      34.359 -14.773 -22.423  0.00  0.00    +0.262 C 
ATOM      4  H   UNL     1      33.190 -14.551 -24.066  0.00  0.00    +0.155 HD
ENDROOT
BRANCH   2   5
ATOM      5  C   UNL     1      33.139 -12.704 -23.173  0.00  0.00    +0.051 C 
ATOM      6  C   UNL     1      32.356 -10.037 -22.946  0.00  0.00    +0.000 C 
ATOM      7  C   UNL     1      33.771 -11.725 -23.939  0.00  0.00    +0.015 C 
ATOM      8  C   UNL     1      32.116 -12.350 -22.293  0.00  0.00    +0.015 C 
ATOM      9  C   UNL     1      33.379 -10.391 -23.826  0.00  0.00    +0.001 C 
ATOM     10  C   UNL     1      31.724 -11.016 -22.180  0.00  0.00    +0.001 C 
BRANCH   6  11
ATOM     11  C   UNL     1      31.949  -8.654 -22.828  0.00  0.00    +0.000 C 
ATOM     12  C   UNL     1      32.165  -7.963 -21.635  0.00  0.00    +0.000 C 
ATOM     13  C   UNL     1      31.339  -8.011 -23.906  0.00  0.00    +0.000 C 
ATOM     14  C   UNL     1      31.772  -6.628 -21.521  0.00  0.00    +0.000 C 
ATOM     15  C   UNL     1      30.947  -6.677 -23.791  0.00  0.00    +0.000 C 
ATOM     16  C   UNL     1      31.163  -5.986 -22.600  0.00  0.00    +0.000 C 
ENDBRANCH   6  11
ENDBRANCH   2   5
BRANCH   3  18
ATOM     17  C   UNL     1      34.859 -17.147 -21.955  0.00  0.00    +0.125 C 
ATOM     18  C   UNL     1      34.559 -16.197 -22.871  0.00  0.00    +0.151 C 
BRANCH  17  19
ATOM     19  C   UNL     1      35.056 -18.586 -22.284  0.00  0.00    +0.057 C 
ATOM     20  C   UNL     1      35.513 -19.519 -21.201  0.00  0.00    +0.008 C 
ATOM     21  C   UNL     1      34.105 -19.597 -21.713  0.00  0.00    +0.008 C 
ENDBRANCH  17  19
BRANCH  17  22
ATOM     22  O   UNL     1      35.020 -16.776 -20.623  0.00  0.00    -0.509 OA
ATOM     23  H   UNL     1      35.836 -16.929 -20.191  0.00  0.00    +0.292 HD
ENDBRANCH  17  22
BRANCH  18  25
ATOM     24  N   UNL     1      34.287 -16.783 -25.379  0.00  0.00    -0.191 NA
ATOM     25  C   UNL     1      34.410 -16.523 -24.254  0.00  0.00    +0.108 C 
ENDBRANCH  18  25
ENDBRANCH   3  18
TORSDOF 6
ENDMDL
MODEL 5
REMARK VINA RESULT:      -9.7      2.075      9.037
REMARK  Name = 54723327
REMARK  6 active torsions:
REMARK  status: ('A' for Active; 'I' for Inactive)
REMARK    1  A    between atoms: N_2  and  C_5
REMARK    2  A    between atoms: C_3  and  C_18
REMARK    3  A    between atoms: C_6  and  C_11
REMARK    4  A    between atoms: C_17  and  C_19
REMARK    5  A    between atoms: C_17  and  O_22
REMARK    6  A    between atoms: C_18  and  C_25
REMARK                            x       y       z     vdW  Elec       q    Type
REMARK                         _______ _______ _______ _____ _____    ______ ____
ROOT
ATOM      1  O   UNL     1      34.887 -14.376 -21.409  0.00  0.00    -0.269 OA
ATOM      2  N   UNL     1      33.529 -14.067 -23.296  0.00  0.00    -0.280 N 
ATOM      3  C   UNL     1      34.351 -14.783 -22.434  0.00  0.00    +0.262 C 
ATOM      4  H   UNL     1      33.181 -14.559 -24.075  0.00  0.00    +0.155 HD
ENDROOT
BRANCH   2   5
ATOM      5  C   UNL     1      33.133 -12.712 -23.180  0.00  0.00    +0.051 C 
ATOM      6  C   UNL     1      32.353 -10.044 -22.954  0.00  0.00    +0.000 C 
ATOM      7  C   UNL     1      32.117 -12.356 -22.294  0.00  0.00    +0.015 C 
ATOM      8  C   UNL     1      33.759 -11.735 -23.954  0.00  0.00    +0.015 C 
ATOM      9  C   UNL     1      31.727 -11.022 -22.180  0.00  0.00    +0.001 C 
ATOM     10  C   UNL     1      33.369 -10.400 -23.841  0.00  0.00    +0.001 C 
BRANCH   6  11
ATOM     11  C   UNL     1      31.950  -8.659 -22.837  0.00  0.00    +0.000 C 
ATOM     12  C   UNL     1      31.340  -8.018 -23.915  0.00  0.00    +0.000 C 
ATOM     13  C   UNL     1      32.172  -7.966 -21.647  0.00  0.00    +0.000 C 
ATOM     14  C   UNL     1      30.951  -6.682 -23.802  0.00  0.00    +0.000 C 
ATOM     15  C   UNL     1      31.782  -6.631 -21.535  0.00  0.00    +0.000 C 
ATOM     16  C   UNL     1      31.172  -5.989 -22.612  0.00  0.00    +0.000 C 
ENDBRANCH   6  11
ENDBRANCH   2   5
BRANCH   3  18
ATOM     17  C   UNL     1      34.840 -17.159 -21.967  0.00  0.00    +0.125 C 
ATOM     18  C   UNL     1      34.549 -16.207 -22.882  0.00  0.00    +0.151 C 
BRANCH  17  19
ATOM     19  C   UNL     1      35.034 -18.599 -22.296  0.00  0.00    +0.057 C 
ATOM     20  C   UNL     1      35.502 -19.531 -21.217  0.00  0.00    +0.008 C 
ATOM     21  C   UNL     1      34.089 -19.610 -21.715  0.00  0.00    +0.008 C 
ENDBRANCH  17  19
BRANCH  17  22
ATOM     22  O   UNL     1      34.993 -16.792 -20.632  0.00  0.00    -0.509 OA
ATOM     23  H   UNL     1      35.058 -15.887 -20.401  0.00  0.00    +0.292 HD
ENDBRANCH  17  22
BRANCH  18  25
ATOM     24  N   UNL     1      34.299 -16.791 -25.393  0.00  0.00    -0.191 NA
ATOM     25  C   UNL     1      34.408 -16.530 -24.267  0.00  0.00    +0.108 C 
ENDBRANCH  18  25
ENDBRANCH   3  18
TORSDOF 6
ENDMDL
MODEL 6
REMARK VINA RESULT:      -9.2      6.752     11.635
REMARK  Name = 54723327
REMARK  6 active torsions:
REMARK  status: ('A' for Active; 'I' for Inactive)
REMARK    1  A    between atoms: N_2  and  C_5
REMARK    2  A    between atoms: C_3  and  C_18
REMARK    3  A    between atoms: C_6  and  C_11
REMARK    4  A    between atoms: C_17  and  C_19
REMARK    5  A    between atoms: C_17  and  O_22
REMARK    6  A    between atoms: C_18  and  C_25
REMARK                            x       y       z     vdW  Elec       q    Type
REMARK                         _______ _______ _______ _____ _____    ______ ____
ROOT
ATOM      1  O   UNL     1      35.953 -22.209 -16.474  0.00  0.00    -0.269 OA
ATOM      2  N   UNL     1      34.067 -22.641 -17.801  0.00  0.00    -0.280 N 
ATOM      3  C   UNL     1      34.912 -22.813 -16.711  0.00  0.00    +0.262 C 
ATOM      4  H   UNL     1      33.268 -23.215 -17.828  0.00  0.00    +0.155 HD
ENDROOT
BRANCH   2   5
ATOM      5  C   UNL     1      34.226 -21.733 -18.877  0.00  0.00    +0.051 C 
ATOM      6  C   UNL     1      34.537 -19.947 -20.997  0.00  0.00    +0.000 C 
ATOM      7  C   UNL     1      33.108 -21.116 -19.439  0.00  0.00    +0.015 C 
ATOM      8  C   UNL     1      35.499 -21.458 -19.376  0.00  0.00    +0.015 C 
ATOM      9  C   UNL     1      33.264 -20.222 -20.498  0.00  0.00    +0.001 C 
ATOM     10  C   UNL     1      35.655 -20.565 -20.435  0.00  0.00    +0.001 C 
BRANCH   6  11
ATOM     11  C   UNL     1      34.701 -19.020 -22.096  0.00  0.00    +0.000 C 
ATOM     12  C   UNL     1      34.891 -17.662 -21.839  0.00  0.00    +0.000 C 
ATOM     13  C   UNL     1      34.666 -19.484 -23.411  0.00  0.00    +0.000 C 
ATOM     14  C   UNL     1      35.049 -16.768 -22.899  0.00  0.00    +0.000 C 
ATOM     15  C   UNL     1      34.825 -18.589 -24.470  0.00  0.00    +0.000 C 
ATOM     16  C   UNL     1      35.015 -17.232 -24.214  0.00  0.00    +0.000 C 
ENDBRANCH   6  11
ENDBRANCH   2   5
BRANCH   3  18
ATOM     17  C   UNL     1      33.179 -23.764 -15.230  0.00  0.00    +0.125 C 
ATOM     18  C   UNL     1      34.416 -23.875 -15.765  0.00  0.00    +0.151 C 
BRANCH  17  19
ATOM     19  C   UNL     1      32.581 -24.764 -14.302  0.00  0.00    +0.057 C 
ATOM     20  C   UNL     1      31.492 -24.325 -13.368  0.00  0.00    +0.008 C 
ATOM     21  C   UNL     1      31.167 -25.213 -14.532  0.00  0.00    +0.008 C 
ENDBRANCH  17  19
BRANCH  17  22
ATOM     22  O   UNL     1      32.408 -22.645 -15.532  0.00  0.00    -0.509 OA
ATOM     23  H   UNL     1      31.896 -22.235 -14.863  0.00  0.00    +0.292 HD
ENDBRANCH  17  22
BRANCH  18  25
ATOM     24  N   UNL     1      35.935 -25.899 -15.215  0.00  0.00    -0.191 NA
ATOM     25  C   UNL     1      35.256 -24.991 -15.464  0.00  0.00    +0.108 C 
ENDBRANCH  18  25
ENDBRANCH   3  18
TORSDOF 6
ENDMDL
MODEL 7
REMARK VINA RESULT:      -9.0      2.510      9.257
REMARK  Name = 54723327
REMARK  6 active torsions:
REMARK  status: ('A' for Active; 'I' for Inactive)
REMARK    1  A    between atoms: N_2  and  C_5
REMARK    2  A    between atoms: C_3  and  C_18
REMARK    3  A    between atoms: C_6  and  C_11
REMARK    4  A    between atoms: C_17  and  C_19
REMARK    5  A    between atoms: C_17  and  O_22
REMARK    6  A    between atoms: C_18  and  C_25
REMARK                            x       y       z     vdW  Elec       q    Type
REMARK                         _______ _______ _______ _____ _____    ______ ____
ROOT
ATOM      1  O   UNL     1      32.691 -14.087 -25.120  0.00  0.00    -0.269 OA
ATOM      2  N   UNL     1      33.693 -13.218 -23.186  0.00  0.00    -0.280 N 
ATOM      3  C   UNL     1      33.402 -14.198 -24.128  0.00  0.00    +0.262 C 
ATOM      4  H   UNL     1      34.290 -13.484 -22.450  0.00  0.00    +0.155 HD
ENDROOT
BRANCH   2   5
ATOM      5  C   UNL     1      33.230 -11.879 -23.167  0.00  0.00    +0.051 C 
ATOM      6  C   UNL     1      32.319  -9.244 -23.128  0.00  0.00    +0.000 C 
ATOM      7  C   UNL     1      33.885 -10.904 -23.918  0.00  0.00    +0.015 C 
ATOM      8  C   UNL     1      32.119 -11.537 -22.396  0.00  0.00    +0.015 C 
ATOM      9  C   UNL     1      33.429  -9.586 -23.899  0.00  0.00    +0.001 C 
ATOM     10  C   UNL     1      31.663 -10.219 -22.376  0.00  0.00    +0.001 C 
BRANCH   6  11
ATOM     11  C   UNL     1      31.844  -7.877 -23.107  0.00  0.00    +0.000 C 
ATOM     12  C   UNL     1      31.463  -7.253 -24.296  0.00  0.00    +0.000 C 
ATOM     13  C   UNL     1      31.768  -7.183 -21.900  0.00  0.00    +0.000 C 
ATOM     14  C   UNL     1      31.006  -5.935 -24.276  0.00  0.00    +0.000 C 
ATOM     15  C   UNL     1      31.310  -5.865 -21.880  0.00  0.00    +0.000 C 
ATOM     16  C   UNL     1      30.929  -5.241 -23.068  0.00  0.00    +0.000 C 
ENDBRANCH   6  11
ENDBRANCH   2   5
BRANCH   3  18
ATOM     17  C   UNL     1      34.304 -16.393 -24.816  0.00  0.00    +0.125 C 
ATOM     18  C   UNL     1      34.079 -15.507 -23.818  0.00  0.00    +0.151 C 
BRANCH  17  19
ATOM     19  C   UNL     1      34.984 -17.705 -24.627  0.00  0.00    +0.057 C 
ATOM     20  C   UNL     1      34.423 -18.671 -23.625  0.00  0.00    +0.008 C 
ATOM     21  C   UNL     1      34.293 -18.953 -25.093  0.00  0.00    +0.008 C 
ENDBRANCH  17  19
BRANCH  17  22
ATOM     22  O   UNL     1      33.863 -16.091 -26.102  0.00  0.00    -0.509 OA
ATOM     23  H   UNL     1      33.324 -15.340 -26.247  0.00  0.00    +0.292 HD
ENDBRANCH  17  22
BRANCH  18  25
ATOM     24  N   UNL     1      34.819 -16.003 -21.386  0.00  0.00    -0.191 NA
ATOM     25  C   UNL     1      34.489 -15.783 -22.478  0.00  0.00    +0.108 C 
ENDBRANCH  18  25
ENDBRANCH   3  18
TORSDOF 6
ENDMDL
MODEL 8
REMARK VINA RESULT:      -9.0      4.165      9.670
REMARK  Name = 54723327
REMARK  6 active torsions:
REMARK  status: ('A' for Active; 'I' for Inactive)
REMARK    1  A    between atoms: N_2  and  C_5
REMARK    2  A    between atoms: C_3  and  C_18
REMARK    3  A    between atoms: C_6  and  C_11
REMARK    4  A    between atoms: C_17  and  C_19
REMARK    5  A    between atoms: C_17  and  O_22
REMARK    6  A    between atoms: C_18  and  C_25
REMARK                            x       y       z     vdW  Elec       q    Type
REMARK                         _______ _______ _______ _____ _____    ______ ____
ROOT
ATOM      1  O   UNL     1      32.635 -20.384 -20.710  0.00  0.00    -0.269 OA
ATOM      2  N   UNL     1      34.742 -19.357 -20.803  0.00  0.00    -0.280 N 
ATOM      3  C   UNL     1      33.821 -20.320 -20.406  0.00  0.00    +0.262 C 
ATOM      4  H   UNL     1      35.660 -19.464 -20.463  0.00  0.00    +0.155 HD
ENDROOT
BRANCH   2   5
ATOM      5  C   UNL     1      34.511 -18.240 -21.643  0.00  0.00    +0.051 C 
ATOM      6  C   UNL     1      34.054 -16.041 -23.296  0.00  0.00    +0.000 C 
ATOM      7  C   UNL     1      34.011 -17.054 -21.104  0.00  0.00    +0.015 C 
ATOM      8  C   UNL     1      34.781 -18.326 -23.009  0.00  0.00    +0.015 C 
ATOM      9  C   UNL     1      33.784 -15.954 -21.930  0.00  0.00    +0.001 C 
ATOM     10  C   UNL     1      34.553 -17.227 -23.835  0.00  0.00    +0.001 C 
BRANCH   6  11
ATOM     11  C   UNL     1      33.818 -14.901 -24.155  0.00  0.00    +0.000 C 
ATOM     12  C   UNL     1      33.974 -13.608 -23.655  0.00  0.00    +0.000 C 
ATOM     13  C   UNL     1      33.434 -15.094 -25.482  0.00  0.00    +0.000 C 
ATOM     14  C   UNL     1      33.746 -12.508 -24.483  0.00  0.00    +0.000 C 
ATOM     15  C   UNL     1      33.208 -13.994 -26.310  0.00  0.00    +0.000 C 
ATOM     16  C   UNL     1      33.363 -12.702 -25.811  0.00  0.00    +0.000 C 
ENDBRANCH   6  11
ENDBRANCH   2   5
BRANCH   3  18
ATOM     17  C   UNL     1      33.633 -22.126 -18.732  0.00  0.00    +0.125 C 
ATOM     18  C   UNL     1      34.435 -21.361 -19.508  0.00  0.00    +0.151 C 
BRANCH  17  19
ATOM     19  C   UNL     1      34.131 -23.198 -17.824  0.00  0.00    +0.057 C 
ATOM     20  C   UNL     1      34.826 -22.805 -16.554  0.00  0.00    +0.008 C 
ATOM     21  C   UNL     1      33.451 -23.402 -16.502  0.00  0.00    +0.008 C 
ENDBRANCH  17  19
BRANCH  17  22
ATOM     22  O   UNL     1      32.259 -21.902 -18.748  0.00  0.00    -0.509 OA
ATOM     23  H   UNL     1      31.720 -22.346 -19.372  0.00  0.00    +0.292 HD
ENDBRANCH  17  22
BRANCH  18  25
ATOM     24  N   UNL     1      37.006 -21.672 -19.504  0.00  0.00    -0.191 NA
ATOM     25  C   UNL     1      35.853 -21.536 -19.506  0.00  0.00    +0.108 C 
ENDBRANCH  18  25
ENDBRANCH   3  18
TORSDOF 6
ENDMDL
MODEL 9
REMARK VINA RESULT:      -9.0      4.386      9.579
REMARK  Name = 54723327
REMARK  6 active torsions:
REMARK  status: ('A' for Active; 'I' for Inactive)
REMARK    1  A    between atoms: N_2  and  C_5
REMARK    2  A    between atoms: C_3  and  C_18
REMARK    3  A    between atoms: C_6  and  C_11
REMARK    4  A    between atoms: C_17  and  C_19
REMARK    5  A    between atoms: C_17  and  O_22
REMARK    6  A    between atoms: C_18  and  C_25
REMARK                            x       y       z     vdW  Elec       q    Type
REMARK                         _______ _______ _______ _____ _____    ______ ____
ROOT
ATOM      1  O   UNL     1      32.962 -20.666 -20.510  0.00  0.00    -0.269 OA
ATOM      2  N   UNL     1      35.042 -19.609 -20.752  0.00  0.00    -0.280 N 
ATOM      3  C   UNL     1      34.159 -20.565 -20.264  0.00  0.00    +0.262 C 
ATOM      4  H   UNL     1      35.976 -19.682 -20.448  0.00  0.00    +0.155 HD
ENDROOT
BRANCH   2   5
ATOM      5  C   UNL     1      34.751 -18.542 -21.637  0.00  0.00    +0.051 C 
ATOM      6  C   UNL     1      34.181 -16.441 -23.380  0.00  0.00    +0.000 C 
ATOM      7  C   UNL     1      34.869 -18.728 -23.015  0.00  0.00    +0.015 C 
ATOM      8  C   UNL     1      34.349 -17.306 -21.131  0.00  0.00    +0.015 C 
ATOM      9  C   UNL     1      34.583 -17.677 -23.886  0.00  0.00    +0.001 C 
ATOM     10  C   UNL     1      34.063 -16.256 -22.003  0.00  0.00    +0.001 C 
BRANCH   6  11
ATOM     11  C   UNL     1      33.884 -15.351 -24.284  0.00  0.00    +0.000 C 
ATOM     12  C   UNL     1      33.918 -14.034 -23.822  0.00  0.00    +0.000 C 
ATOM     13  C   UNL     1      33.562 -15.615 -25.615  0.00  0.00    +0.000 C 
ATOM     14  C   UNL     1      33.631 -12.982 -24.693  0.00  0.00    +0.000 C 
ATOM     15  C   UNL     1      33.276 -14.562 -26.486  0.00  0.00    +0.000 C 
ATOM     16  C   UNL     1      33.310 -13.247 -26.025  0.00  0.00    +0.000 C 
ENDBRANCH   6  11
ENDBRANCH   2   5
BRANCH   3  18
ATOM     17  C   UNL     1      36.060 -21.263 -18.849  0.00  0.00    +0.125 C 
ATOM     18  C   UNL     1      34.832 -21.547 -19.342  0.00  0.00    +0.151 C 
BRANCH  17  19
ATOM     19  C   UNL     1      36.807 -22.151 -17.914  0.00  0.00    +0.057 C 
ATOM     20  C   UNL     1      37.510 -21.536 -16.740  0.00  0.00    +0.008 C 
ATOM     21  C   UNL     1      36.273 -22.357 -16.527  0.00  0.00    +0.008 C 
ENDBRANCH  17  19
BRANCH  17  22
ATOM     22  O   UNL     1      36.693 -20.087 -19.242  0.00  0.00    -0.509 OA
ATOM     23  H   UNL     1      36.195 -19.397 -19.633  0.00  0.00    +0.292 HD
ENDBRANCH  17  22
BRANCH  18  25
ATOM     24  N   UNL     1      33.606 -23.736 -18.698  0.00  0.00    -0.191 NA
ATOM     25  C   UNL     1      34.154 -22.754 -18.989  0.00  0.00    +0.108 C 
ENDBRANCH  18  25
ENDBRANCH   3  18
TORSDOF 6
ENDMDL
