MODEL 1
REMARK VINA RESULT:     -11.4      0.000      0.000
REMARK  Name = 1150567
REMARK  6 active torsions:
REMARK  status: ('A' for Active; 'I' for Inactive)
REMARK    1  A    between atoms: C_1  and  C_3
REMARK    2  A    between atoms: C_1  and  C_17
REMARK    3  A    between atoms: C_10  and  O_12
REMARK    4  A    between atoms: C_11  and  O_14
REMARK    5  A    between atoms: N_16  and  C_23
REMARK    6  A    between atoms: C_23  and  C_24
REMARK                            x       y       z     vdW  Elec       q    Type
REMARK                         _______ _______ _______ _____ _____    ______ ____
ROOT
ATOM      1  C   UNL     1      35.636 -16.956 -21.870  0.00  0.00    +0.008 C 
ENDROOT
BRANCH   1   3
ATOM      2  O   UNL     1      37.524 -19.140 -20.983  0.00  0.00    -0.291 OA
ATOM      3  C   UNL     1      35.443 -18.447 -22.069  0.00  0.00    +0.066 C 
ATOM      4  C   UNL     1      33.999 -18.906 -21.758  0.00  0.00    +0.034 C 
ATOM      5  C   UNL     1      36.319 -19.247 -21.122  0.00  0.00    +0.173 C 
ATOM      6  C   UNL     1      34.173 -20.006 -20.760  0.00  0.00    -0.016 C 
ATOM      7  C   UNL     1      35.497 -20.195 -20.387  0.00  0.00    +0.034 C 
ATOM      8  C   UNL     1      33.182 -20.794 -20.196  0.00  0.00    +0.036 C 
ATOM      9  C   UNL     1      35.892 -21.146 -19.465  0.00  0.00    +0.043 C 
ATOM     10  C   UNL     1      33.550 -21.767 -19.261  0.00  0.00    +0.172 C 
ATOM     11  C   UNL     1      34.895 -21.941 -18.898  0.00  0.00    +0.172 C 
BRANCH  10  12
ATOM     12  O   UNL     1      32.582 -22.547 -18.701  0.00  0.00    -0.468 OA
ATOM     13  C   UNL     1      32.388 -22.426 -17.294  0.00  0.00    +0.253 C 
ENDBRANCH  10  12
BRANCH  11  14
ATOM     14  O   UNL     1      35.241 -22.892 -17.984  0.00  0.00    -0.468 OA
ATOM     15  C   UNL     1      36.026 -22.466 -16.873  0.00  0.00    +0.253 C 
ENDBRANCH  11  14
ENDBRANCH   1   3
BRANCH   1  17
ATOM     16  N   UNL     1      32.835 -13.671 -21.990  0.00  0.00    +0.390 N 
ATOM     17  C   UNL     1      34.322 -16.197 -22.028  0.00  0.00    -0.004 C 
ATOM     18  C   UNL     1      33.933 -15.491 -20.725  0.00  0.00    -0.023 C 
ATOM     19  C   UNL     1      34.410 -15.173 -23.165  0.00  0.00    -0.023 C 
ATOM     20  C   UNL     1      32.670 -14.646 -20.905  0.00  0.00    -0.077 C 
ATOM     21  C   UNL     1      33.132 -14.339 -23.265  0.00  0.00    -0.077 C 
ATOM     22  H   UNL     1      33.626 -13.072 -21.757  0.00  0.00    -0.079 HD
BRANCH  16  23
ATOM     23  C   UNL     1      31.639 -12.837 -22.116  0.00  0.00    -0.050 C 
BRANCH  23  24
ATOM     24  C   UNL     1      31.759 -11.561 -21.325  0.00  0.00    -0.043 C 
ATOM     25  C   UNL     1      32.032 -10.371 -21.986  0.00  0.00    -0.006 C 
ATOM     26  C   UNL     1      31.595 -11.592 -19.948  0.00  0.00    -0.006 C 
ATOM     27  C   UNL     1      32.143  -9.189 -21.255  0.00  0.00    -0.000 C 
ATOM     28  C   UNL     1      31.706 -10.409 -19.216  0.00  0.00    -0.000 C 
ATOM     29  C   UNL     1      31.980  -9.208 -19.870  0.00  0.00    -0.000 C 
ENDBRANCH  23  24
ENDBRANCH  16  23
ENDBRANCH   1  17
TORSDOF 6
ENDMDL
MODEL 2
REMARK VINA RESULT:     -11.4      1.908      3.382
REMARK  Name = 1150567
REMARK  6 active torsions:
REMARK  status: ('A' for Active; 'I' for Inactive)
REMARK    1  A    between atoms: C_1  and  C_3
REMARK    2  A    between atoms: C_1  and  C_17
REMARK    3  A    between atoms: C_10  and  O_12
REMARK    4  A    between atoms: C_11  and  O_14
REMARK    5  A    between atoms: N_16  and  C_23
REMARK    6  A    between atoms: C_23  and  C_24
REMARK                            x       y       z     vdW  Elec       q    Type
REMARK                         _______ _______ _______ _____ _____    ______ ____
ROOT
ATOM      1  C   UNL     1      35.094 -19.448 -22.886  0.00  0.00    +0.008 C 
ENDROOT
BRANCH   1   3
ATOM      2  O   UNL     1      32.609 -20.106 -21.300  0.00  0.00    -0.291 OA
ATOM      3  C   UNL     1      34.922 -19.306 -21.386  0.00  0.00    +0.066 C 
ATOM      4  C   UNL     1      36.145 -19.823 -20.595  0.00  0.00    +0.034 C 
ATOM      5  C   UNL     1      33.754 -20.137 -20.885  0.00  0.00    +0.173 C 
ATOM      6  C   UNL     1      35.567 -20.808 -19.630  0.00  0.00    -0.016 C 
ATOM      7  C   UNL     1      34.202 -20.997 -19.801  0.00  0.00    +0.034 C 
ATOM      8  C   UNL     1      36.241 -21.518 -18.649  0.00  0.00    +0.036 C 
ATOM      9  C   UNL     1      33.460 -21.873 -19.031  0.00  0.00    +0.043 C 
ATOM     10  C   UNL     1      35.517 -22.411 -17.851  0.00  0.00    +0.172 C 
ATOM     11  C   UNL     1      34.136 -22.587 -18.042  0.00  0.00    +0.172 C 
BRANCH  10  12
ATOM     12  O   UNL     1      36.170 -23.115 -16.883  0.00  0.00    -0.468 OA
ATOM     13  C   UNL     1      37.112 -22.399 -16.087  0.00  0.00    +0.253 C 
ENDBRANCH  10  12
BRANCH  11  14
ATOM     14  O   UNL     1      33.443 -23.462 -17.260  0.00  0.00    -0.468 OA
ATOM     15  C   UNL     1      32.158 -23.044 -16.804  0.00  0.00    +0.253 C 
ENDBRANCH  11  14
ENDBRANCH   1   3
BRANCH   1  17
ATOM     16  N   UNL     1      33.859 -15.587 -24.374  0.00  0.00    +0.390 N 
ATOM     17  C   UNL     1      35.162 -18.087 -23.572  0.00  0.00    -0.004 C 
ATOM     18  C   UNL     1      34.180 -18.011 -24.745  0.00  0.00    -0.023 C 
ATOM     19  C   UNL     1      34.871 -16.956 -22.580  0.00  0.00    -0.023 C 
ATOM     20  C   UNL     1      34.170 -16.616 -25.374  0.00  0.00    -0.077 C 
ATOM     21  C   UNL     1      34.839 -15.595 -23.279  0.00  0.00    -0.077 C 
ATOM     22  H   UNL     1      32.943 -15.799 -23.979  0.00  0.00    -0.079 HD
BRANCH  16  23
ATOM     23  C   UNL     1      33.802 -14.265 -25.000  0.00  0.00    -0.050 C 
BRANCH  23  24
ATOM     24  C   UNL     1      33.251 -13.224 -24.063  0.00  0.00    -0.043 C 
ATOM     25  C   UNL     1      32.427 -13.615 -23.016  0.00  0.00    -0.006 C 
ATOM     26  C   UNL     1      33.572 -11.889 -24.259  0.00  0.00    -0.006 C 
ATOM     27  C   UNL     1      31.915 -12.651 -22.147  0.00  0.00    -0.000 C 
ATOM     28  C   UNL     1      33.060 -10.924 -23.389  0.00  0.00    -0.000 C 
ATOM     29  C   UNL     1      32.231 -11.306 -22.334  0.00  0.00    -0.000 C 
ENDBRANCH  23  24
ENDBRANCH  16  23
ENDBRANCH   1  17
TORSDOF 6
ENDMDL
MODEL 3
REMARK VINA RESULT:     -11.3      3.432      9.362
REMARK  Name = 1150567
REMARK  6 active torsions:
REMARK  status: ('A' for Active; 'I' for Inactive)
REMARK    1  A    between atoms: C_1  and  C_3
REMARK    2  A    between atoms: C_1  and  C_17
REMARK    3  A    between atoms: C_10  and  O_12
REMARK    4  A    between atoms: C_11  and  O_14
REMARK    5  A    between atoms: N_16  and  C_23
REMARK    6  A    between atoms: C_23  and  C_24
REMARK                            x       y       z     vdW  Elec       q    Type
REMARK                         _______ _______ _______ _____ _____    ______ ____
ROOT
ATOM      1  C   UNL     1      36.266 -19.521 -20.878  0.00  0.00    +0.008 C 
ENDROOT
BRANCH   1   3
ATOM      2  O   UNL     1      35.186 -16.806 -20.113  0.00  0.00    -0.291 OA
ATOM      3  C   UNL     1      34.992 -18.882 -21.397  0.00  0.00    +0.066 C 
ATOM      4  C   UNL     1      34.821 -19.052 -22.924  0.00  0.00    +0.034 C 
ATOM      5  C   UNL     1      34.999 -17.380 -21.171  0.00  0.00    +0.173 C 
ATOM      6  C   UNL     1      34.621 -17.659 -23.427  0.00  0.00    -0.016 C 
ATOM      7  C   UNL     1      34.733 -16.700 -22.429  0.00  0.00    +0.034 C 
ATOM      8  C   UNL     1      34.365 -17.265 -24.731  0.00  0.00    +0.036 C 
ATOM      9  C   UNL     1      34.601 -15.345 -22.666  0.00  0.00    +0.043 C 
ATOM     10  C   UNL     1      34.224 -15.900 -25.003  0.00  0.00    +0.172 C 
ATOM     11  C   UNL     1      34.342 -14.947 -23.978  0.00  0.00    +0.172 C 
BRANCH  10  12
ATOM     12  O   UNL     1      33.973 -15.502 -26.283  0.00  0.00    -0.468 OA
ATOM     13  C   UNL     1      32.660 -15.024 -26.566  0.00  0.00    +0.253 C 
ENDBRANCH  10  12
BRANCH  11  14
ATOM     14  O   UNL     1      34.204 -13.619 -24.257  0.00  0.00    -0.468 OA
ATOM     15  C   UNL     1      33.294 -12.879 -23.447  0.00  0.00    +0.253 C 
ENDBRANCH  11  14
ENDBRANCH   1   3
BRANCH   1  17
ATOM     16  N   UNL     1      34.815 -22.247 -17.858  0.00  0.00    +0.390 N 
ATOM     17  C   UNL     1      35.976 -20.828 -20.146  0.00  0.00    -0.004 C 
ATOM     18  C   UNL     1      36.641 -20.847 -18.766  0.00  0.00    -0.023 C 
ATOM     19  C   UNL     1      34.467 -21.052 -19.996  0.00  0.00    -0.023 C 
ATOM     20  C   UNL     1      36.271 -22.111 -17.987  0.00  0.00    -0.077 C 
ATOM     21  C   UNL     1      34.169 -22.310 -19.177  0.00  0.00    -0.077 C 
ATOM     22  H   UNL     1      34.463 -21.422 -17.374  0.00  0.00    -0.079 HD
BRANCH  16  23
ATOM     23  C   UNL     1      34.478 -23.431 -17.068  0.00  0.00    -0.050 C 
BRANCH  23  24
ATOM     24  C   UNL     1      33.213 -23.237 -16.276  0.00  0.00    -0.043 C 
ATOM     25  C   UNL     1      33.268 -23.240 -14.889  0.00  0.00    -0.006 C 
ATOM     26  C   UNL     1      32.009 -23.060 -16.943  0.00  0.00    -0.006 C 
ATOM     27  C   UNL     1      32.095 -23.061 -14.154  0.00  0.00    -0.000 C 
ATOM     28  C   UNL     1      30.836 -22.880 -16.208  0.00  0.00    -0.000 C 
ATOM     29  C   UNL     1      30.880 -22.880 -14.814  0.00  0.00    -0.000 C 
ENDBRANCH  23  24
ENDBRANCH  16  23
ENDBRANCH   1  17
TORSDOF 6
ENDMDL
MODEL 4
REMARK VINA RESULT:     -11.3      1.382      1.789
REMARK  Name = 1150567
REMARK  6 active torsions:
REMARK  status: ('A' for Active; 'I' for Inactive)
REMARK    1  A    between atoms: C_1  and  C_3
REMARK    2  A    between atoms: C_1  and  C_17
REMARK    3  A    between atoms: C_10  and  O_12
REMARK    4  A    between atoms: C_11  and  O_14
REMARK    5  A    between atoms: N_16  and  C_23
REMARK    6  A    between atoms: C_23  and  C_24
REMARK                            x       y       z     vdW  Elec       q    Type
REMARK                         _______ _______ _______ _____ _____    ______ ____
ROOT
ATOM      1  C   UNL     1      35.644 -17.584 -21.401  0.00  0.00    +0.008 C 
ENDROOT
BRANCH   1   3
ATOM      2  O   UNL     1      37.410 -19.826 -20.411  0.00  0.00    -0.291 OA
ATOM      3  C   UNL     1      35.385 -19.069 -21.562  0.00  0.00    +0.066 C 
ATOM      4  C   UNL     1      33.916 -19.453 -21.269  0.00  0.00    +0.034 C 
ATOM      5  C   UNL     1      36.204 -19.881 -20.574  0.00  0.00    +0.173 C 
ATOM      6  C   UNL     1      34.018 -20.530 -20.238  0.00  0.00    -0.016 C 
ATOM      7  C   UNL     1      35.324 -20.769 -19.830  0.00  0.00    +0.034 C 
ATOM      8  C   UNL     1      32.980 -21.255 -19.674  0.00  0.00    +0.036 C 
ATOM      9  C   UNL     1      35.655 -21.710 -18.874  0.00  0.00    +0.043 C 
ATOM     10  C   UNL     1      33.283 -22.216 -18.704  0.00  0.00    +0.172 C 
ATOM     11  C   UNL     1      34.611 -22.442 -18.307  0.00  0.00    +0.172 C 
BRANCH  10  12
ATOM     12  O   UNL     1      32.268 -22.935 -18.143  0.00  0.00    -0.468 OA
ATOM     13  C   UNL     1      31.846 -22.547 -16.838  0.00  0.00    +0.253 C 
ENDBRANCH  10  12
BRANCH  11  14
ATOM     14  O   UNL     1      34.893 -23.380 -17.359  0.00  0.00    -0.468 OA
ATOM     15  C   UNL     1      35.460 -22.915 -16.136  0.00  0.00    +0.253 C 
ENDBRANCH  11  14
ENDBRANCH   1   3
BRANCH   1  17
ATOM     16  N   UNL     1      33.391 -14.162 -22.767  0.00  0.00    +0.390 N 
ATOM     17  C   UNL     1      34.483 -16.754 -21.941  0.00  0.00    -0.004 C 
ATOM     18  C   UNL     1      34.056 -15.682 -20.933  0.00  0.00    -0.023 C 
ATOM     19  C   UNL     1      34.852 -16.093 -23.273  0.00  0.00    -0.023 C 
ATOM     20  C   UNL     1      32.961 -14.782 -21.508  0.00  0.00    -0.077 C 
ATOM     21  C   UNL     1      33.730 -15.180 -23.772  0.00  0.00    -0.077 C 
ATOM     22  H   UNL     1      34.231 -13.615 -22.578  0.00  0.00    -0.079 HD
BRANCH  16  23
ATOM     23  C   UNL     1      32.354 -13.265 -23.278  0.00  0.00    -0.050 C 
BRANCH  23  24
ATOM     24  C   UNL     1      32.853 -11.851 -23.416  0.00  0.00    -0.043 C 
ATOM     25  C   UNL     1      33.948 -11.590 -24.229  0.00  0.00    -0.006 C 
ATOM     26  C   UNL     1      32.214 -10.830 -22.728  0.00  0.00    -0.006 C 
ATOM     27  C   UNL     1      34.411 -10.280 -24.357  0.00  0.00    -0.000 C 
ATOM     28  C   UNL     1      32.677  -9.519 -22.857  0.00  0.00    -0.000 C 
ATOM     29  C   UNL     1      33.776  -9.246 -23.672  0.00  0.00    -0.000 C 
ENDBRANCH  23  24
ENDBRANCH  16  23
ENDBRANCH   1  17
TORSDOF 6
ENDMDL
MODEL 5
REMARK VINA RESULT:     -11.2      2.449      3.568
REMARK  Name = 1150567
REMARK  6 active torsions:
REMARK  status: ('A' for Active; 'I' for Inactive)
REMARK    1  A    between atoms: C_1  and  C_3
REMARK    2  A    between atoms: C_1  and  C_17
REMARK    3  A    between atoms: C_10  and  O_12
REMARK    4  A    between atoms: C_11  and  O_14
REMARK    5  A    between atoms: N_16  and  C_23
REMARK    6  A    between atoms: C_23  and  C_24
REMARK                            x       y       z     vdW  Elec       q    Type
REMARK                         _______ _______ _______ _____ _____    ______ ____
ROOT
ATOM      1  C   UNL     1      35.082 -18.321 -23.244  0.00  0.00    +0.008 C 
ENDROOT
BRANCH   1   3
ATOM      2  O   UNL     1      32.842 -19.507 -21.601  0.00  0.00    -0.291 OA
ATOM      3  C   UNL     1      35.007 -18.370 -21.730  0.00  0.00    +0.066 C 
ATOM      4  C   UNL     1      36.348 -18.786 -21.081  0.00  0.00    +0.034 C 
ATOM      5  C   UNL     1      34.008 -19.415 -21.263  0.00  0.00    +0.173 C 
ATOM      6  C   UNL     1      35.988 -19.944 -20.208  0.00  0.00    -0.016 C 
ATOM      7  C   UNL     1      34.653 -20.313 -20.318  0.00  0.00    +0.034 C 
ATOM      8  C   UNL     1      36.827 -20.651 -19.361  0.00  0.00    +0.036 C 
ATOM      9  C   UNL     1      34.102 -21.367 -19.615  0.00  0.00    +0.043 C 
ATOM     10  C   UNL     1      36.298 -21.723 -18.634  0.00  0.00    +0.172 C 
ATOM     11  C   UNL     1      34.945 -22.078 -18.761  0.00  0.00    +0.172 C 
BRANCH  10  12
ATOM     12  O   UNL     1      37.115 -22.425 -17.798  0.00  0.00    -0.468 OA
ATOM     13  C   UNL     1      37.192 -21.981 -16.445  0.00  0.00    +0.253 C 
ENDBRANCH  10  12
BRANCH  11  14
ATOM     14  O   UNL     1      34.442 -23.126 -18.048  0.00  0.00    -0.468 OA
ATOM     15  C   UNL     1      33.062 -23.064 -17.693  0.00  0.00    +0.253 C 
ENDBRANCH  11  14
ENDBRANCH   1   3
BRANCH   1  17
ATOM     16  N   UNL     1      33.864 -14.514 -24.879  0.00  0.00    +0.390 N 
ATOM     17  C   UNL     1      34.186 -17.225 -23.811  0.00  0.00    -0.004 C 
ATOM     18  C   UNL     1      34.201 -15.981 -22.917  0.00  0.00    -0.023 C 
ATOM     19  C   UNL     1      34.612 -16.845 -25.233  0.00  0.00    -0.023 C 
ATOM     20  C   UNL     1      33.384 -14.843 -23.531  0.00  0.00    -0.077 C 
ATOM     21  C   UNL     1      33.781 -15.679 -25.772  0.00  0.00    -0.077 C 
ATOM     22  H   UNL     1      34.844 -14.242 -24.807  0.00  0.00    -0.079 HD
BRANCH  16  23
ATOM     23  C   UNL     1      33.108 -13.391 -25.433  0.00  0.00    -0.050 C 
BRANCH  23  24
ATOM     24  C   UNL     1      33.796 -12.075 -25.188  0.00  0.00    -0.043 C 
ATOM     25  C   UNL     1      33.493 -11.349 -24.043  0.00  0.00    -0.006 C 
ATOM     26  C   UNL     1      34.722 -11.605 -26.108  0.00  0.00    -0.006 C 
ATOM     27  C   UNL     1      34.130 -10.128 -23.815  0.00  0.00    -0.000 C 
ATOM     28  C   UNL     1      35.360 -10.384 -25.879  0.00  0.00    -0.000 C 
ATOM     29  C   UNL     1      35.063  -9.647 -24.732  0.00  0.00    -0.000 C 
ENDBRANCH  23  24
ENDBRANCH  16  23
ENDBRANCH   1  17
TORSDOF 6
ENDMDL
MODEL 6
REMARK VINA RESULT:     -10.9      2.779      5.816
REMARK  Name = 1150567
REMARK  6 active torsions:
REMARK  status: ('A' for Active; 'I' for Inactive)
REMARK    1  A    between atoms: C_1  and  C_3
REMARK    2  A    between atoms: C_1  and  C_17
REMARK    3  A    between atoms: C_10  and  O_12
REMARK    4  A    between atoms: C_11  and  O_14
REMARK    5  A    between atoms: N_16  and  C_23
REMARK    6  A    between atoms: C_23  and  C_24
REMARK                            x       y       z     vdW  Elec       q    Type
REMARK                         _______ _______ _______ _____ _____    ______ ____
ROOT
ATOM      1  C   UNL     1      34.947 -22.466 -19.543  0.00  0.00    +0.008 C 
ENDROOT
BRANCH   1   3
ATOM      2  O   UNL     1      32.291 -22.521 -18.106  0.00  0.00    -0.291 OA
ATOM      3  C   UNL     1      34.674 -21.962 -18.139  0.00  0.00    +0.066 C 
ATOM      4  C   UNL     1      35.771 -22.380 -17.132  0.00  0.00    +0.034 C 
ATOM      5  C   UNL     1      33.390 -22.551 -17.582  0.00  0.00    +0.173 C 
ATOM      6  C   UNL     1      35.019 -23.059 -16.033  0.00  0.00    -0.016 C 
ATOM      7  C   UNL     1      33.659 -23.168 -16.293  0.00  0.00    +0.034 C 
ATOM      8  C   UNL     1      35.535 -23.574 -14.854  0.00  0.00    +0.036 C 
ATOM      9  C   UNL     1      32.771 -23.773 -15.424  0.00  0.00    +0.043 C 
ATOM     10  C   UNL     1      34.661 -24.191 -13.953  0.00  0.00    +0.172 C 
ATOM     11  C   UNL     1      33.289 -24.290 -14.236  0.00  0.00    +0.172 C 
BRANCH  10  12
ATOM     12  O   UNL     1      35.159 -24.701 -12.790  0.00  0.00    -0.468 OA
ATOM     13  C   UNL     1      35.550 -23.765 -11.788  0.00  0.00    +0.253 C 
ENDBRANCH  10  12
BRANCH  11  14
ATOM     14  O   UNL     1      32.448 -24.896 -13.350  0.00  0.00    -0.468 OA
ATOM     15  C   UNL     1      31.092 -25.065 -13.757  0.00  0.00    +0.253 C 
ENDBRANCH  11  14
ENDBRANCH   1   3
BRANCH   1  17
ATOM     16  N   UNL     1      35.436 -18.435 -21.016  0.00  0.00    +0.390 N 
ATOM     17  C   UNL     1      35.226 -21.315 -20.504  0.00  0.00    -0.004 C 
ATOM     18  C   UNL     1      33.996 -20.415 -20.658  0.00  0.00    -0.023 C 
ATOM     19  C   UNL     1      36.422 -20.480 -20.032  0.00  0.00    -0.023 C 
ATOM     20  C   UNL     1      34.299 -19.202 -21.541  0.00  0.00    -0.077 C 
ATOM     21  C   UNL     1      36.646 -19.266 -20.936  0.00  0.00    -0.077 C 
ATOM     22  H   UNL     1      35.200 -18.131 -20.072  0.00  0.00    -0.079 HD
BRANCH  16  23
ATOM     23  C   UNL     1      35.681 -17.253 -21.841  0.00  0.00    -0.050 C 
BRANCH  23  24
ATOM     24  C   UNL     1      34.573 -16.241 -21.716  0.00  0.00    -0.043 C 
ATOM     25  C   UNL     1      34.022 -15.687 -22.864  0.00  0.00    -0.006 C 
ATOM     26  C   UNL     1      34.118 -15.876 -20.458  0.00  0.00    -0.006 C 
ATOM     27  C   UNL     1      32.996 -14.749 -22.750  0.00  0.00    -0.000 C 
ATOM     28  C   UNL     1      33.091 -14.938 -20.344  0.00  0.00    -0.000 C 
ATOM     29  C   UNL     1      32.530 -14.376 -21.491  0.00  0.00    -0.000 C 
ENDBRANCH  23  24
ENDBRANCH  16  23
ENDBRANCH   1  17
TORSDOF 6
ENDMDL
MODEL 7
REMARK VINA RESULT:     -10.9      4.466     10.824
REMARK  Name = 1150567
REMARK  6 active torsions:
REMARK  status: ('A' for Active; 'I' for Inactive)
REMARK    1  A    between atoms: C_1  and  C_3
REMARK    2  A    between atoms: C_1  and  C_17
REMARK    3  A    between atoms: C_10  and  O_12
REMARK    4  A    between atoms: C_11  and  O_14
REMARK    5  A    between atoms: N_16  and  C_23
REMARK    6  A    between atoms: C_23  and  C_24
REMARK                            x       y       z     vdW  Elec       q    Type
REMARK                         _______ _______ _______ _____ _____    ______ ____
ROOT
ATOM      1  C   UNL     1      32.513 -13.170 -20.264  0.00  0.00    +0.008 C 
ENDROOT
BRANCH   1   3
ATOM      2  O   UNL     1      31.127 -10.734 -19.137  0.00  0.00    -0.291 OA
ATOM      3  C   UNL     1      31.632 -12.201 -21.031  0.00  0.00    +0.066 C 
ATOM      4  C   UNL     1      32.225 -11.821 -22.407  0.00  0.00    +0.034 C 
ATOM      5  C   UNL     1      31.489 -10.883 -20.291  0.00  0.00    +0.173 C 
ATOM      6  C   UNL     1      32.257 -10.326 -22.392  0.00  0.00    -0.016 C 
ATOM      7  C   UNL     1      31.847  -9.788 -21.178  0.00  0.00    +0.034 C 
ATOM      8  C   UNL     1      32.653  -9.482 -23.417  0.00  0.00    +0.036 C 
ATOM      9  C   UNL     1      31.810  -8.429 -20.931  0.00  0.00    +0.043 C 
ATOM     10  C   UNL     1      32.625  -8.101 -23.198  0.00  0.00    +0.172 C 
ATOM     11  C   UNL     1      32.207  -7.579 -21.963  0.00  0.00    +0.172 C 
BRANCH  10  12
ATOM     12  O   UNL     1      33.013  -7.263 -24.201  0.00  0.00    -0.468 OA
ATOM     13  C   UNL     1      34.413  -7.036 -24.349  0.00  0.00    +0.253 C 
ENDBRANCH  10  12
BRANCH  11  14
ATOM     14  O   UNL     1      32.187  -6.230 -21.761  0.00  0.00    -0.468 OA
ATOM     15  C   UNL     1      30.928  -5.575 -21.896  0.00  0.00    +0.253 C 
ENDBRANCH  11  14
ENDBRANCH   1   3
BRANCH   1  17
ATOM     16  N   UNL     1      34.072 -17.057 -21.317  0.00  0.00    +0.390 N 
ATOM     17  C   UNL     1      32.821 -14.415 -21.089  0.00  0.00    -0.004 C 
ATOM     18  C   UNL     1      34.332 -14.598 -21.267  0.00  0.00    -0.023 C 
ATOM     19  C   UNL     1      32.222 -15.668 -20.441  0.00  0.00    -0.023 C 
ATOM     20  C   UNL     1      34.652 -15.899 -22.007  0.00  0.00    -0.077 C 
ATOM     21  C   UNL     1      32.611 -16.933 -21.208  0.00  0.00    -0.077 C 
ATOM     22  H   UNL     1      34.456 -17.087 -20.373  0.00  0.00    -0.079 HD
BRANCH  16  23
ATOM     23  C   UNL     1      34.429 -18.297 -22.007  0.00  0.00    -0.050 C 
BRANCH  23  24
ATOM     24  C   UNL     1      34.481 -19.469 -21.064  0.00  0.00    -0.043 C 
ATOM     25  C   UNL     1      35.713 -19.961 -20.654  0.00  0.00    -0.006 C 
ATOM     26  C   UNL     1      33.299 -20.042 -20.619  0.00  0.00    -0.006 C 
ATOM     27  C   UNL     1      35.762 -21.048 -19.780  0.00  0.00    -0.000 C 
ATOM     28  C   UNL     1      33.348 -21.129 -19.744  0.00  0.00    -0.000 C 
ATOM     29  C   UNL     1      34.581 -21.631 -19.326  0.00  0.00    -0.000 C 
ENDBRANCH  23  24
ENDBRANCH  16  23
ENDBRANCH   1  17
TORSDOF 6
ENDMDL
MODEL 8
REMARK VINA RESULT:     -10.8      3.505      9.760
REMARK  Name = 1150567
REMARK  6 active torsions:
REMARK  status: ('A' for Active; 'I' for Inactive)
REMARK    1  A    between atoms: C_1  and  C_3
REMARK    2  A    between atoms: C_1  and  C_17
REMARK    3  A    between atoms: C_10  and  O_12
REMARK    4  A    between atoms: C_11  and  O_14
REMARK    5  A    between atoms: N_16  and  C_23
REMARK    6  A    between atoms: C_23  and  C_24
REMARK                            x       y       z     vdW  Elec       q    Type
REMARK                         _______ _______ _______ _____ _____    ______ ____
ROOT
ATOM      1  C   UNL     1      35.065 -17.186 -21.465  0.00  0.00    +0.008 C 
ENDROOT
BRANCH   1   3
ATOM      2  O   UNL     1      32.397 -16.056 -20.609  0.00  0.00    -0.291 OA
ATOM      3  C   UNL     1      34.017 -16.568 -22.372  0.00  0.00    +0.066 C 
ATOM      4  C   UNL     1      34.628 -15.610 -23.420  0.00  0.00    +0.034 C 
ATOM      5  C   UNL     1      33.042 -15.712 -21.583  0.00  0.00    +0.173 C 
ATOM      6  C   UNL     1      33.875 -14.333 -23.231  0.00  0.00    -0.016 C 
ATOM      7  C   UNL     1      32.975 -14.385 -22.175  0.00  0.00    +0.034 C 
ATOM      8  C   UNL     1      34.002 -13.165 -23.967  0.00  0.00    +0.036 C 
ATOM      9  C   UNL     1      32.181 -13.315 -21.807  0.00  0.00    +0.043 C 
ATOM     10  C   UNL     1      33.210 -12.065 -23.620  0.00  0.00    +0.172 C 
ATOM     11  C   UNL     1      32.307 -12.140 -22.547  0.00  0.00    +0.172 C 
BRANCH  10  12
ATOM     12  O   UNL     1      33.329 -10.911 -24.337  0.00  0.00    -0.468 OA
ATOM     13  C   UNL     1      34.537 -10.171 -24.178  0.00  0.00    +0.253 C 
ENDBRANCH  10  12
BRANCH  11  14
ATOM     14  O   UNL     1      31.543 -11.060 -22.217  0.00  0.00    -0.468 OA
ATOM     15  C   UNL     1      30.684 -11.195 -21.087  0.00  0.00    +0.253 C 
ENDBRANCH  11  14
ENDBRANCH   1   3
BRANCH   1  17
ATOM     16  N   UNL     1      34.488 -21.072 -19.671  0.00  0.00    +0.390 N 
ATOM     17  C   UNL     1      34.876 -18.694 -21.342  0.00  0.00    -0.004 C 
ATOM     18  C   UNL     1      36.015 -19.328 -20.536  0.00  0.00    -0.023 C 
ATOM     19  C   UNL     1      33.531 -19.031 -20.690  0.00  0.00    -0.023 C 
ATOM     20  C   UNL     1      35.780 -20.826 -20.323  0.00  0.00    -0.077 C 
ATOM     21  C   UNL     1      33.378 -20.537 -20.473  0.00  0.00    -0.077 C 
ATOM     22  H   UNL     1      34.490 -20.587 -18.774  0.00  0.00    -0.079 HD
BRANCH  16  23
ATOM     23  C   UNL     1      34.301 -22.502 -19.428  0.00  0.00    -0.050 C 
BRANCH  23  24
ATOM     24  C   UNL     1      33.983 -22.789 -17.985  0.00  0.00    -0.043 C 
ATOM     25  C   UNL     1      32.664 -22.996 -17.604  0.00  0.00    -0.006 C 
ATOM     26  C   UNL     1      35.011 -22.842 -17.055  0.00  0.00    -0.006 C 
ATOM     27  C   UNL     1      32.368 -23.261 -16.267  0.00  0.00    -0.000 C 
ATOM     28  C   UNL     1      34.715 -23.109 -15.717  0.00  0.00    -0.000 C 
ATOM     29  C   UNL     1      33.393 -23.318 -15.324  0.00  0.00    -0.000 C 
ENDBRANCH  23  24
ENDBRANCH  16  23
ENDBRANCH   1  17
TORSDOF 6
ENDMDL
MODEL 9
REMARK VINA RESULT:     -10.6      3.551      6.179
REMARK  Name = 1150567
REMARK  6 active torsions:
REMARK  status: ('A' for Active; 'I' for Inactive)
REMARK    1  A    between atoms: C_1  and  C_3
REMARK    2  A    between atoms: C_1  and  C_17
REMARK    3  A    between atoms: C_10  and  O_12
REMARK    4  A    between atoms: C_11  and  O_14
REMARK    5  A    between atoms: N_16  and  C_23
REMARK    6  A    between atoms: C_23  and  C_24
REMARK                            x       y       z     vdW  Elec       q    Type
REMARK                         _______ _______ _______ _____ _____    ______ ____
ROOT
ATOM      1  C   UNL     1      33.843 -12.600 -25.352  0.00  0.00    +0.008 C 
ENDROOT
BRANCH   1   3
ATOM      2  O   UNL     1      33.273 -15.277 -26.630  0.00  0.00    -0.291 OA
ATOM      3  C   UNL     1      33.237 -13.811 -24.669  0.00  0.00    +0.066 C 
ATOM      4  C   UNL     1      33.840 -14.068 -23.268  0.00  0.00    +0.034 C 
ATOM      5  C   UNL     1      33.516 -15.081 -25.452  0.00  0.00    +0.173 C 
ATOM      6  C   UNL     1      34.298 -15.490 -23.323  0.00  0.00    -0.016 C 
ATOM      7  C   UNL     1      34.124 -16.068 -24.574  0.00  0.00    +0.034 C 
ATOM      8  C   UNL     1      34.865 -16.231 -22.298  0.00  0.00    +0.036 C 
ATOM      9  C   UNL     1      34.490 -17.370 -24.860  0.00  0.00    +0.043 C 
ATOM     10  C   UNL     1      35.244 -17.552 -22.556  0.00  0.00    +0.172 C 
ATOM     11  C   UNL     1      35.059 -18.117 -23.828  0.00  0.00    +0.172 C 
BRANCH  10  12
ATOM     12  O   UNL     1      35.802 -18.289 -21.554  0.00  0.00    -0.468 OA
ATOM     13  C   UNL     1      34.951 -19.212 -20.878  0.00  0.00    +0.253 C 
ENDBRANCH  10  12
BRANCH  11  14
ATOM     14  O   UNL     1      35.435 -19.406 -24.068  0.00  0.00    -0.468 OA
ATOM     15  C   UNL     1      34.738 -20.102 -25.098  0.00  0.00    +0.253 C 
ENDBRANCH  11  14
ENDBRANCH   1   3
BRANCH   1  17
ATOM     16  N   UNL     1      33.568  -8.620 -23.696  0.00  0.00    +0.390 N 
ATOM     17  C   UNL     1      34.011 -11.437 -24.379  0.00  0.00    -0.004 C 
ATOM     18  C   UNL     1      34.819 -10.300 -25.013  0.00  0.00    -0.023 C 
ATOM     19  C   UNL     1      32.651 -10.907 -23.913  0.00  0.00    -0.023 C 
ATOM     20  C   UNL     1      34.905  -9.090 -24.080  0.00  0.00    -0.077 C 
ATOM     21  C   UNL     1      32.808  -9.678 -23.016  0.00  0.00    -0.077 C 
ATOM     22  H   UNL     1      33.066  -8.370 -24.548  0.00  0.00    -0.079 HD
BRANCH  16  23
ATOM     23  C   UNL     1      33.666  -7.433 -22.847  0.00  0.00    -0.050 C 
BRANCH  23  24
ATOM     24  C   UNL     1      32.764  -6.326 -23.323  0.00  0.00    -0.043 C 
ATOM     25  C   UNL     1      31.916  -5.699 -22.419  0.00  0.00    -0.006 C 
ATOM     26  C   UNL     1      32.791  -5.948 -24.658  0.00  0.00    -0.006 C 
ATOM     27  C   UNL     1      31.079  -4.674 -22.860  0.00  0.00    -0.000 C 
ATOM     28  C   UNL     1      31.954  -4.921 -25.098  0.00  0.00    -0.000 C 
ATOM     29  C   UNL     1      31.099  -4.285 -24.198  0.00  0.00    -0.000 C 
ENDBRANCH  23  24
ENDBRANCH  16  23
ENDBRANCH   1  17
TORSDOF 6
ENDMDL
