MODEL 1
REMARK VINA RESULT:      -4.6      0.000      0.000
REMARK  Name = 9543424
REMARK  5 active torsions:
REMARK  status: ('A' for Active; 'I' for Inactive)
REMARK    1  A    between atoms: S_1  and  C_3
REMARK    2  A    between atoms: S_1  and  C_8
REMARK    3  A    between atoms: C_3  and  C_4
REMARK    4  A    between atoms: C_5  and  S_6
REMARK    5  A    between atoms: C_8  and  C_9
REMARK                            x       y       z     vdW  Elec       q    Type
REMARK                         _______ _______ _______ _____ _____    ______ ____
ROOT
ATOM      1  S   UNL     1      34.399 -17.090 -24.394  0.00  0.00    +0.051 S 
ATOM      2  O   UNL     1      34.952 -16.930 -25.776  0.00  0.00    -0.255 OA
ENDROOT
BRANCH   1   3
ATOM      3  C   UNL     1      35.435 -18.316 -23.540  0.00  0.00    +0.119 C 
BRANCH   3   4
ATOM      4  C   UNL     1      34.581 -19.260 -22.757  0.00  0.00    -0.005 C 
ATOM      5  C   UNL     1      34.308 -19.095 -21.455  0.00  0.00    +0.023 C 
BRANCH   5   6
ATOM      6  S   UNL     1      33.307 -20.197 -20.579  0.00  0.00    -0.141 S 
ATOM      7  H   UNL     1      33.960 -20.611 -19.461  0.00  0.00    +0.107 HD
ENDBRANCH   5   6
ENDBRANCH   3   4
ENDBRANCH   1   3
BRANCH   1   8
ATOM      8  C   UNL     1      34.956 -15.678 -23.412  0.00  0.00    +0.118 C 
BRANCH   8   9
ATOM      9  C   UNL     1      34.061 -15.479 -22.234  0.00  0.00    -0.012 C 
ATOM     10  C   UNL     1      34.495 -15.430 -20.969  0.00  0.00    -0.004 C 
ENDBRANCH   8   9
ENDBRANCH   1   8
TORSDOF 5
ENDMDL
MODEL 2
REMARK VINA RESULT:      -4.5      2.617      4.633
REMARK  Name = 9543424
REMARK  5 active torsions:
REMARK  status: ('A' for Active; 'I' for Inactive)
REMARK    1  A    between atoms: S_1  and  C_3
REMARK    2  A    between atoms: S_1  and  C_8
REMARK    3  A    between atoms: C_3  and  C_4
REMARK    4  A    between atoms: C_5  and  S_6
REMARK    5  A    between atoms: C_8  and  C_9
REMARK                            x       y       z     vdW  Elec       q    Type
REMARK                         _______ _______ _______ _____ _____    ______ ____
ROOT
ATOM      1  S   UNL     1      34.511 -17.525 -21.370  0.00  0.00    +0.051 S 
ATOM      2  O   UNL     1      35.227 -16.702 -20.344  0.00  0.00    -0.255 OA
ENDROOT
BRANCH   1   3
ATOM      3  C   UNL     1      35.254 -17.137 -22.983  0.00  0.00    +0.119 C 
BRANCH   3   4
ATOM      4  C   UNL     1      34.493 -16.041 -23.653  0.00  0.00    -0.005 C 
ATOM      5  C   UNL     1      34.414 -14.795 -23.164  0.00  0.00    +0.023 C 
BRANCH   5   6
ATOM      6  S   UNL     1      33.536 -13.544 -23.968  0.00  0.00    -0.141 S 
ATOM      7  H   UNL     1      32.637 -14.100 -24.824  0.00  0.00    +0.107 HD
ENDBRANCH   5   6
ENDBRANCH   3   4
ENDBRANCH   1   3
BRANCH   1   8
ATOM      8  C   UNL     1      35.165 -19.208 -21.278  0.00  0.00    +0.118 C 
BRANCH   8   9
ATOM      9  C   UNL     1      34.181 -20.112 -20.610  0.00  0.00    -0.012 C 
ATOM     10  C   UNL     1      32.857 -19.912 -20.626  0.00  0.00    -0.004 C 
ENDBRANCH   8   9
ENDBRANCH   1   8
TORSDOF 5
ENDMDL
MODEL 3
REMARK VINA RESULT:      -4.5      2.881      3.794
REMARK  Name = 9543424
REMARK  5 active torsions:
REMARK  status: ('A' for Active; 'I' for Inactive)
REMARK    1  A    between atoms: S_1  and  C_3
REMARK    2  A    between atoms: S_1  and  C_8
REMARK    3  A    between atoms: C_3  and  C_4
REMARK    4  A    between atoms: C_5  and  S_6
REMARK    5  A    between atoms: C_8  and  C_9
REMARK                            x       y       z     vdW  Elec       q    Type
REMARK                         _______ _______ _______ _____ _____    ______ ____
ROOT
ATOM      1  S   UNL     1      35.053 -19.559 -21.328  0.00  0.00    +0.051 S 
ATOM      2  O   UNL     1      35.545 -18.275 -20.737  0.00  0.00    -0.255 OA
ENDROOT
BRANCH   1   3
ATOM      3  C   UNL     1      33.281 -19.684 -20.943  0.00  0.00    +0.119 C 
BRANCH   3   4
ATOM      4  C   UNL     1      33.056 -20.694 -19.865  0.00  0.00    -0.005 C 
ATOM      5  C   UNL     1      33.959 -21.627 -19.531  0.00  0.00    +0.023 C 
BRANCH   5   6
ATOM      6  S   UNL     1      33.674 -22.774 -18.272  0.00  0.00    -0.141 S 
ATOM      7  H   UNL     1      33.864 -24.032 -18.753  0.00  0.00    +0.107 HD
ENDBRANCH   5   6
ENDBRANCH   3   4
ENDBRANCH   1   3
BRANCH   1   8
ATOM      8  C   UNL     1      34.827 -19.297 -23.103  0.00  0.00    +0.118 C 
BRANCH   8   9
ATOM      9  C   UNL     1      35.251 -17.916 -23.482  0.00  0.00    -0.012 C 
ATOM     10  C   UNL     1      34.706 -17.220 -24.487  0.00  0.00    -0.004 C 
ENDBRANCH   8   9
ENDBRANCH   1   8
TORSDOF 5
ENDMDL
MODEL 4
REMARK VINA RESULT:      -4.4      1.693      1.807
REMARK  Name = 9543424
REMARK  5 active torsions:
REMARK  status: ('A' for Active; 'I' for Inactive)
REMARK    1  A    between atoms: S_1  and  C_3
REMARK    2  A    between atoms: S_1  and  C_8
REMARK    3  A    between atoms: C_3  and  C_4
REMARK    4  A    between atoms: C_5  and  S_6
REMARK    5  A    between atoms: C_8  and  C_9
REMARK                            x       y       z     vdW  Elec       q    Type
REMARK                         _______ _______ _______ _____ _____    ______ ____
ROOT
ATOM      1  S   UNL     1      34.657 -16.725 -22.550  0.00  0.00    +0.051 S 
ATOM      2  O   UNL     1      35.419 -15.796 -23.442  0.00  0.00    -0.255 OA
ENDROOT
BRANCH   1   3
ATOM      3  C   UNL     1      35.702 -18.187 -22.278  0.00  0.00    +0.119 C 
BRANCH   3   4
ATOM      4  C   UNL     1      35.109 -19.058 -21.219  0.00  0.00    -0.005 C 
ATOM      5  C   UNL     1      33.913 -19.652 -21.341  0.00  0.00    +0.023 C 
BRANCH   5   6
ATOM      6  S   UNL     1      33.258 -20.665 -20.104  0.00  0.00    -0.141 S 
ATOM      7  H   UNL     1      33.356 -21.966 -20.486  0.00  0.00    +0.107 HD
ENDBRANCH   5   6
ENDBRANCH   3   4
ENDBRANCH   1   3
BRANCH   1   8
ATOM      8  C   UNL     1      34.792 -16.098 -20.860  0.00  0.00    +0.118 C 
BRANCH   8   9
ATOM      9  C   UNL     1      33.942 -14.882 -20.687  0.00  0.00    -0.012 C 
ATOM     10  C   UNL     1      32.648 -14.921 -20.346  0.00  0.00    -0.004 C 
ENDBRANCH   8   9
ENDBRANCH   1   8
TORSDOF 5
ENDMDL
MODEL 5
REMARK VINA RESULT:      -4.4      2.241      4.354
REMARK  Name = 9543424
REMARK  5 active torsions:
REMARK  status: ('A' for Active; 'I' for Inactive)
REMARK    1  A    between atoms: S_1  and  C_3
REMARK    2  A    between atoms: S_1  and  C_8
REMARK    3  A    between atoms: C_3  and  C_4
REMARK    4  A    between atoms: C_5  and  S_6
REMARK    5  A    between atoms: C_8  and  C_9
REMARK                            x       y       z     vdW  Elec       q    Type
REMARK                         _______ _______ _______ _____ _____    ______ ____
ROOT
ATOM      1  S   UNL     1      35.843 -18.261 -22.086  0.00  0.00    +0.051 S 
ATOM      2  O   UNL     1      35.226 -18.472 -23.433  0.00  0.00    -0.255 OA
ENDROOT
BRANCH   1   3
ATOM      3  C   UNL     1      34.922 -16.919 -21.277  0.00  0.00    +0.119 C 
BRANCH   3   4
ATOM      4  C   UNL     1      34.184 -16.111 -22.294  0.00  0.00    -0.005 C 
ATOM      5  C   UNL     1      34.509 -14.848 -22.605  0.00  0.00    +0.023 C 
BRANCH   5   6
ATOM      6  S   UNL     1      33.645 -13.942 -23.795  0.00  0.00    -0.141 S 
ATOM      7  H   UNL     1      32.931 -12.958 -23.185  0.00  0.00    +0.107 HD
ENDBRANCH   5   6
ENDBRANCH   3   4
ENDBRANCH   1   3
BRANCH   1   8
ATOM      8  C   UNL     1      35.239 -19.569 -20.994  0.00  0.00    +0.118 C 
BRANCH   8   9
ATOM      9  C   UNL     1      33.746 -19.583 -20.976  0.00  0.00    -0.012 C 
ATOM     10  C   UNL     1      33.017 -20.423 -20.231  0.00  0.00    -0.004 C 
ENDBRANCH   8   9
ENDBRANCH   1   8
TORSDOF 5
ENDMDL
MODEL 6
REMARK VINA RESULT:      -4.4      2.805      3.345
REMARK  Name = 9543424
REMARK  5 active torsions:
REMARK  status: ('A' for Active; 'I' for Inactive)
REMARK    1  A    between atoms: S_1  and  C_3
REMARK    2  A    between atoms: S_1  and  C_8
REMARK    3  A    between atoms: C_3  and  C_4
REMARK    4  A    between atoms: C_5  and  S_6
REMARK    5  A    between atoms: C_8  and  C_9
REMARK                            x       y       z     vdW  Elec       q    Type
REMARK                         _______ _______ _______ _____ _____    ______ ____
ROOT
ATOM      1  S   UNL     1      35.210 -17.753 -21.315  0.00  0.00    +0.051 S 
ATOM      2  O   UNL     1      34.615 -16.417 -21.631  0.00  0.00    -0.255 OA
ENDROOT
BRANCH   1   3
ATOM      3  C   UNL     1      33.839 -18.944 -21.226  0.00  0.00    +0.119 C 
BRANCH   3   4
ATOM      4  C   UNL     1      34.274 -20.181 -20.511  0.00  0.00    -0.005 C 
ATOM      5  C   UNL     1      33.432 -20.971 -19.830  0.00  0.00    +0.023 C 
BRANCH   5   6
ATOM      6  S   UNL     1      33.962 -22.404 -19.023  0.00  0.00    -0.141 S 
ATOM      7  H   UNL     1      35.108 -22.140 -18.339  0.00  0.00    +0.107 HD
ENDBRANCH   5   6
ENDBRANCH   3   4
ENDBRANCH   1   3
BRANCH   1   8
ATOM      8  C   UNL     1      35.916 -18.415 -22.842  0.00  0.00    +0.118 C 
BRANCH   8   9
ATOM      9  C   UNL     1      34.839 -18.673 -23.843  0.00  0.00    -0.012 C 
ATOM     10  C   UNL     1      34.600 -17.886 -24.900  0.00  0.00    -0.004 C 
ENDBRANCH   8   9
ENDBRANCH   1   8
TORSDOF 5
ENDMDL
MODEL 7
REMARK VINA RESULT:      -4.4      2.564      4.465
REMARK  Name = 9543424
REMARK  5 active torsions:
REMARK  status: ('A' for Active; 'I' for Inactive)
REMARK    1  A    between atoms: S_1  and  C_3
REMARK    2  A    between atoms: S_1  and  C_8
REMARK    3  A    between atoms: C_3  and  C_4
REMARK    4  A    between atoms: C_5  and  S_6
REMARK    5  A    between atoms: C_8  and  C_9
REMARK                            x       y       z     vdW  Elec       q    Type
REMARK                         _______ _______ _______ _____ _____    ______ ____
ROOT
ATOM      1  S   UNL     1      34.640 -18.430 -21.524  0.00  0.00    +0.051 S 
ATOM      2  O   UNL     1      35.385 -19.256 -20.523  0.00  0.00    -0.255 OA
ENDROOT
BRANCH   1   3
ATOM      3  C   UNL     1      34.909 -16.686 -21.089  0.00  0.00    +0.119 C 
BRANCH   3   4
ATOM      4  C   UNL     1      33.997 -15.808 -21.882  0.00  0.00    -0.005 C 
ATOM      5  C   UNL     1      34.437 -14.842 -22.702  0.00  0.00    +0.023 C 
BRANCH   5   6
ATOM      6  S   UNL     1      33.358 -13.850 -23.616  0.00  0.00    -0.141 S 
ATOM      7  H   UNL     1      32.076 -14.238 -23.380  0.00  0.00    +0.107 HD
ENDBRANCH   5   6
ENDBRANCH   3   4
ENDBRANCH   1   3
BRANCH   1   8
ATOM      8  C   UNL     1      35.623 -18.385 -23.040  0.00  0.00    +0.118 C 
BRANCH   8   9
ATOM      9  C   UNL     1      34.760 -18.652 -24.229  0.00  0.00    -0.012 C 
ATOM     10  C   UNL     1      34.423 -17.721 -25.130  0.00  0.00    -0.004 C 
ENDBRANCH   8   9
ENDBRANCH   1   8
TORSDOF 5
ENDMDL
MODEL 8
REMARK VINA RESULT:      -4.4      2.735      4.725
REMARK  Name = 9543424
REMARK  5 active torsions:
REMARK  status: ('A' for Active; 'I' for Inactive)
REMARK    1  A    between atoms: S_1  and  C_3
REMARK    2  A    between atoms: S_1  and  C_8
REMARK    3  A    between atoms: C_3  and  C_4
REMARK    4  A    between atoms: C_5  and  S_6
REMARK    5  A    between atoms: C_8  and  C_9
REMARK                            x       y       z     vdW  Elec       q    Type
REMARK                         _______ _______ _______ _____ _____    ______ ____
ROOT
ATOM      1  S   UNL     1      34.279 -16.334 -21.317  0.00  0.00    +0.051 S 
ATOM      2  O   UNL     1      35.074 -16.075 -20.077  0.00  0.00    -0.255 OA
ENDROOT
BRANCH   1   3
ATOM      3  C   UNL     1      34.396 -14.844 -22.352  0.00  0.00    +0.119 C 
BRANCH   3   4
ATOM      4  C   UNL     1      34.123 -15.182 -23.781  0.00  0.00    -0.005 C 
ATOM      5  C   UNL     1      33.328 -14.447 -24.572  0.00  0.00    +0.023 C 
BRANCH   5   6
ATOM      6  S   UNL     1      33.042 -14.858 -26.225  0.00  0.00    -0.141 S 
ATOM      7  H   UNL     1      32.351 -16.028 -26.288  0.00  0.00    +0.107 HD
ENDBRANCH   5   6
ENDBRANCH   3   4
ENDBRANCH   1   3
BRANCH   1   8
ATOM      8  C   UNL     1      35.279 -17.378 -22.403  0.00  0.00    +0.118 C 
BRANCH   8   9
ATOM      9  C   UNL     1      35.282 -18.787 -21.911  0.00  0.00    -0.012 C 
ATOM     10  C   UNL     1      34.215 -19.391 -21.373  0.00  0.00    -0.004 C 
ENDBRANCH   8   9
ENDBRANCH   1   8
TORSDOF 5
ENDMDL
MODEL 9
REMARK VINA RESULT:      -4.4      2.421      2.728
REMARK  Name = 9543424
REMARK  5 active torsions:
REMARK  status: ('A' for Active; 'I' for Inactive)
REMARK    1  A    between atoms: S_1  and  C_3
REMARK    2  A    between atoms: S_1  and  C_8
REMARK    3  A    between atoms: C_3  and  C_4
REMARK    4  A    between atoms: C_5  and  S_6
REMARK    5  A    between atoms: C_8  and  C_9
REMARK                            x       y       z     vdW  Elec       q    Type
REMARK                         _______ _______ _______ _____ _____    ______ ____
ROOT
ATOM      1  S   UNL     1      35.319 -18.516 -22.285  0.00  0.00    +0.051 S 
ATOM      2  O   UNL     1      36.562 -18.678 -21.467  0.00  0.00    -0.255 OA
ENDROOT
BRANCH   1   3
ATOM      3  C   UNL     1      33.921 -19.044 -21.250  0.00  0.00    +0.119 C 
BRANCH   3   4
ATOM      4  C   UNL     1      34.299 -20.242 -20.441  0.00  0.00    -0.005 C 
ATOM      5  C   UNL     1      33.403 -21.019 -19.816  0.00  0.00    +0.023 C 
BRANCH   5   6
ATOM      6  S   UNL     1      33.869 -22.405 -18.898  0.00  0.00    -0.141 S 
ATOM      7  H   UNL     1      33.652 -23.529 -19.633  0.00  0.00    +0.107 HD
ENDBRANCH   5   6
ENDBRANCH   3   4
ENDBRANCH   1   3
BRANCH   1   8
ATOM      8  C   UNL     1      34.884 -16.761 -22.282  0.00  0.00    +0.118 C 
BRANCH   8   9
ATOM      9  C   UNL     1      34.760 -16.259 -20.882  0.00  0.00    -0.012 C 
ATOM     10  C   UNL     1      34.219 -15.078 -20.560  0.00  0.00    -0.004 C 
ENDBRANCH   8   9
ENDBRANCH   1   8
TORSDOF 5
ENDMDL
