MODEL 1
REMARK VINA RESULT:      -9.6      0.000      0.000
REMARK  Name = 148198
REMARK  10 active torsions:
REMARK  status: ('A' for Active; 'I' for Inactive)
REMARK    1  A    between atoms: N_1  and  C_15
REMARK    2  A    between atoms: N_2  and  C_8
REMARK    3  A    between atoms: N_3  and  C_14
REMARK    4  A    between atoms: C_15  and  C_16
REMARK    5  A    between atoms: C_16  and  C_17
REMARK    6  A    between atoms: C_17  and  C_18
REMARK    7  A    between atoms: C_18  and  C_19
REMARK    8  A    between atoms: C_19  and  C_20
REMARK    9  A    between atoms: C_20  and  O_21
REMARK   10  A    between atoms: O_21  and  C_23
REMARK                            x       y       z     vdW  Elec       q    Type
REMARK                         _______ _______ _______ _____ _____    ______ ____
ROOT
ATOM      1  N   UNL     1      34.208 -23.413 -17.240  0.00  0.00    -0.239 NA
ATOM      2  N   UNL     1      34.570 -24.093 -14.971  0.00  0.00    -0.324 N 
ATOM      3  N   UNL     1      32.505 -23.115 -15.642  0.00  0.00    -0.263 N 
ATOM      4  C   UNL     1      33.822 -23.573 -16.016  0.00  0.00    +0.211 C 
ATOM      5  H   UNL     1      34.105 -24.140 -14.105  0.00  0.00    +0.169 HD
ATOM      6  H   UNL     1      31.906 -22.688 -16.297  0.00  0.00    +0.181 HD
ENDROOT
BRANCH   2   8
ATOM      7  N   UNL     1      38.534 -25.506 -14.954  0.00  0.00    -0.242 NA
ATOM      8  C   UNL     1      35.901 -24.567 -14.965  0.00  0.00    +0.062 C 
ATOM      9  C   UNL     1      36.963 -23.669 -14.936  0.00  0.00    +0.038 C 
ATOM     10  C   UNL     1      36.155 -25.935 -14.989  0.00  0.00    +0.038 C 
ATOM     11  C   UNL     1      38.248 -24.185 -14.931  0.00  0.00    +0.100 C 
ATOM     12  C   UNL     1      37.477 -26.348 -14.981  0.00  0.00    +0.100 C 
ENDBRANCH   2   8
BRANCH   3  14
ATOM     13  N   UNL     1      31.810 -23.462 -13.264  0.00  0.00    -0.171 NA
ATOM     14  C   UNL     1      32.132 -23.296 -14.366  0.00  0.00    +0.184 C 
ENDBRANCH   3  14
BRANCH   1  15
ATOM     15  C   UNL     1      33.271 -22.771 -18.162  0.00  0.00    +0.129 C 
BRANCH  15  16
ATOM     16  C   UNL     1      34.029 -21.855 -19.117  0.00  0.00    +0.026 C 
BRANCH  16  17
ATOM     17  C   UNL     1      33.115 -20.831 -19.795  0.00  0.00    +0.002 C 
BRANCH  17  18
ATOM     18  C   UNL     1      33.848 -20.087 -20.913  0.00  0.00    +0.004 C 
BRANCH  18  19
ATOM     19  C   UNL     1      35.362 -20.182 -20.744  0.00  0.00    +0.047 C 
BRANCH  19  20
ATOM     20  C   UNL     1      36.058 -18.898 -21.173  0.00  0.00    +0.205 C 
BRANCH  20  21
ATOM     21  O   UNL     1      35.427 -17.798 -20.532  0.00  0.00    -0.475 OA
BRANCH  21  23
ATOM     22 CL   UNL     1      33.876 -13.269 -23.948  0.00  0.00    -0.082 Cl
ATOM     23  C   UNL     1      35.065 -16.743 -21.329  0.00  0.00    +0.139 C 
ATOM     24  C   UNL     1      34.574 -15.571 -20.754  0.00  0.00    +0.038 C 
ATOM     25  C   UNL     1      35.188 -16.841 -22.715  0.00  0.00    +0.038 C 
ATOM     26  C   UNL     1      34.207 -14.496 -21.565  0.00  0.00    +0.015 C 
ATOM     27  C   UNL     1      34.821 -15.766 -23.525  0.00  0.00    +0.015 C 
ATOM     28  C   UNL     1      34.331 -14.594 -22.950  0.00  0.00    +0.058 C 
ENDBRANCH  21  23
ENDBRANCH  20  21
ENDBRANCH  19  20
ENDBRANCH  18  19
ENDBRANCH  17  18
ENDBRANCH  16  17
ENDBRANCH  15  16
ENDBRANCH   1  15
TORSDOF 10
ENDMDL
MODEL 2
REMARK VINA RESULT:      -9.5      5.137      8.593
REMARK  Name = 148198
REMARK  10 active torsions:
REMARK  status: ('A' for Active; 'I' for Inactive)
REMARK    1  A    between atoms: N_1  and  C_15
REMARK    2  A    between atoms: N_2  and  C_8
REMARK    3  A    between atoms: N_3  and  C_14
REMARK    4  A    between atoms: C_15  and  C_16
REMARK    5  A    between atoms: C_16  and  C_17
REMARK    6  A    between atoms: C_17  and  C_18
REMARK    7  A    between atoms: C_18  and  C_19
REMARK    8  A    between atoms: C_19  and  C_20
REMARK    9  A    between atoms: C_20  and  O_21
REMARK   10  A    between atoms: O_21  and  C_23
REMARK                            x       y       z     vdW  Elec       q    Type
REMARK                         _______ _______ _______ _____ _____    ______ ____
ROOT
ATOM      1  N   UNL     1      34.321 -16.238 -20.993  0.00  0.00    -0.239 NA
ATOM      2  N   UNL     1      34.563 -18.210 -22.332  0.00  0.00    -0.324 N 
ATOM      3  N   UNL     1      34.423 -16.056 -23.338  0.00  0.00    -0.263 N 
ATOM      4  C   UNL     1      34.454 -16.843 -22.129  0.00  0.00    +0.211 C 
ATOM      5  H   UNL     1      34.659 -18.488 -23.272  0.00  0.00    +0.169 HD
ATOM      6  H   UNL     1      34.304 -15.079 -23.311  0.00  0.00    +0.181 HD
ENDROOT
BRANCH   2   8
ATOM      7  N   UNL     1      34.551 -21.350 -19.530  0.00  0.00    -0.242 NA
ATOM      8  C   UNL     1      34.559 -19.265 -21.392  0.00  0.00    +0.062 C 
ATOM      9  C   UNL     1      33.354 -19.788 -20.935  0.00  0.00    +0.038 C 
ATOM     10  C   UNL     1      35.760 -19.783 -20.919  0.00  0.00    +0.038 C 
ATOM     11  C   UNL     1      33.404 -20.820 -20.012  0.00  0.00    +0.100 C 
ATOM     12  C   UNL     1      35.701 -20.816 -19.998  0.00  0.00    +0.100 C 
ENDBRANCH   2   8
BRANCH   3  14
ATOM     13  N   UNL     1      34.695 -17.273 -25.507  0.00  0.00    -0.171 NA
ATOM     14  C   UNL     1      34.564 -16.712 -24.501  0.00  0.00    +0.184 C 
ENDBRANCH   3  14
BRANCH   1  15
ATOM     15  C   UNL     1      34.146 -14.786 -21.022  0.00  0.00    +0.129 C 
BRANCH  15  16
ATOM     16  C   UNL     1      32.720 -14.427 -20.618  0.00  0.00    +0.026 C 
BRANCH  16  17
ATOM     17  C   UNL     1      32.289 -13.055 -21.143  0.00  0.00    +0.002 C 
BRANCH  17  18
ATOM     18  C   UNL     1      31.869 -12.129 -20.000  0.00  0.00    +0.004 C 
BRANCH  18  19
ATOM     19  C   UNL     1      31.080 -10.930 -20.517  0.00  0.00    +0.047 C 
BRANCH  19  20
ATOM     20  C   UNL     1      31.922  -9.662 -20.520  0.00  0.00    +0.205 C 
BRANCH  20  21
ATOM     21  O   UNL     1      31.781  -9.020 -21.779  0.00  0.00    -0.475 OA
BRANCH  21  23
ATOM     22 CL   UNL     1      35.895 -10.176 -25.819  0.00  0.00    -0.082 Cl
ATOM     23  C   UNL     1      32.739  -9.290 -22.722  0.00  0.00    +0.139 C 
ATOM     24  C   UNL     1      33.694  -8.325 -23.041  0.00  0.00    +0.038 C 
ATOM     25  C   UNL     1      32.760 -10.530 -23.361  0.00  0.00    +0.038 C 
ATOM     26  C   UNL     1      34.671  -8.600 -23.998  0.00  0.00    +0.015 C 
ATOM     27  C   UNL     1      33.736 -10.804 -24.318  0.00  0.00    +0.015 C 
ATOM     28  C   UNL     1      34.691  -9.839 -24.637  0.00  0.00    +0.058 C 
ENDBRANCH  21  23
ENDBRANCH  20  21
ENDBRANCH  19  20
ENDBRANCH  18  19
ENDBRANCH  17  18
ENDBRANCH  16  17
ENDBRANCH  15  16
ENDBRANCH   1  15
TORSDOF 10
ENDMDL
MODEL 3
REMARK VINA RESULT:      -9.5      5.729      8.955
REMARK  Name = 148198
REMARK  10 active torsions:
REMARK  status: ('A' for Active; 'I' for Inactive)
REMARK    1  A    between atoms: N_1  and  C_15
REMARK    2  A    between atoms: N_2  and  C_8
REMARK    3  A    between atoms: N_3  and  C_14
REMARK    4  A    between atoms: C_15  and  C_16
REMARK    5  A    between atoms: C_16  and  C_17
REMARK    6  A    between atoms: C_17  and  C_18
REMARK    7  A    between atoms: C_18  and  C_19
REMARK    8  A    between atoms: C_19  and  C_20
REMARK    9  A    between atoms: C_20  and  O_21
REMARK   10  A    between atoms: O_21  and  C_23
REMARK                            x       y       z     vdW  Elec       q    Type
REMARK                         _______ _______ _______ _____ _____    ______ ____
ROOT
ATOM      1  N   UNL     1      34.505 -16.368 -20.998  0.00  0.00    -0.239 NA
ATOM      2  N   UNL     1      34.528 -18.385 -22.289  0.00  0.00    -0.324 N 
ATOM      3  N   UNL     1      34.558 -16.253 -23.348  0.00  0.00    -0.263 N 
ATOM      4  C   UNL     1      34.550 -17.010 -22.120  0.00  0.00    +0.211 C 
ATOM      5  H   UNL     1      34.572 -18.693 -23.224  0.00  0.00    +0.169 HD
ATOM      6  H   UNL     1      34.531 -15.269 -23.344  0.00  0.00    +0.181 HD
ENDROOT
BRANCH   2   8
ATOM      7  N   UNL     1      34.303 -21.442 -19.405  0.00  0.00    -0.242 NA
ATOM      8  C   UNL     1      34.452 -19.412 -21.321  0.00  0.00    +0.062 C 
ATOM      9  C   UNL     1      33.214 -19.860 -20.873  0.00  0.00    +0.038 C 
ATOM     10  C   UNL     1      35.616 -19.978 -20.812  0.00  0.00    +0.038 C 
ATOM     11  C   UNL     1      33.194 -20.868 -19.923  0.00  0.00    +0.100 C 
ATOM     12  C   UNL     1      35.488 -20.981 -19.865  0.00  0.00    +0.100 C 
ENDBRANCH   2   8
BRANCH   3  14
ATOM     13  N   UNL     1      34.642 -17.551 -25.486  0.00  0.00    -0.171 NA
ATOM     14  C   UNL     1      34.607 -16.947 -24.496  0.00  0.00    +0.184 C 
ENDBRANCH   3  14
BRANCH   1  15
ATOM     15  C   UNL     1      34.464 -14.906 -21.061  0.00  0.00    +0.129 C 
BRANCH  15  16
ATOM     16  C   UNL     1      33.080 -14.409 -20.656  0.00  0.00    +0.026 C 
BRANCH  16  17
ATOM     17  C   UNL     1      32.280 -13.873 -21.846  0.00  0.00    +0.002 C 
BRANCH  17  18
ATOM     18  C   UNL     1      31.834 -12.428 -21.610  0.00  0.00    +0.004 C 
BRANCH  18  19
ATOM     19  C   UNL     1      31.828 -12.085 -20.123  0.00  0.00    +0.047 C 
BRANCH  19  20
ATOM     20  C   UNL     1      31.231 -10.707 -19.866  0.00  0.00    +0.205 C 
BRANCH  20  21
ATOM     21  O   UNL     1      32.279  -9.748 -19.855  0.00  0.00    -0.475 OA
BRANCH  21  23
ATOM     22 CL   UNL     1      31.665  -5.110 -23.418  0.00  0.00    -0.082 Cl
ATOM     23  C   UNL     1      32.136  -8.667 -20.685  0.00  0.00    +0.139 C 
ATOM     24  C   UNL     1      31.929  -8.858 -22.051  0.00  0.00    +0.038 C 
ATOM     25  C   UNL     1      32.198  -7.374 -20.164  0.00  0.00    +0.038 C 
ATOM     26  C   UNL     1      31.783  -7.758 -22.896  0.00  0.00    +0.015 C 
ATOM     27  C   UNL     1      32.051  -6.274 -21.009  0.00  0.00    +0.015 C 
ATOM     28  C   UNL     1      31.844  -6.466 -22.375  0.00  0.00    +0.058 C 
ENDBRANCH  21  23
ENDBRANCH  20  21
ENDBRANCH  19  20
ENDBRANCH  18  19
ENDBRANCH  17  18
ENDBRANCH  16  17
ENDBRANCH  15  16
ENDBRANCH   1  15
TORSDOF 10
ENDMDL
MODEL 4
REMARK VINA RESULT:      -9.4      5.889      9.009
REMARK  Name = 148198
REMARK  10 active torsions:
REMARK  status: ('A' for Active; 'I' for Inactive)
REMARK    1  A    between atoms: N_1  and  C_15
REMARK    2  A    between atoms: N_2  and  C_8
REMARK    3  A    between atoms: N_3  and  C_14
REMARK    4  A    between atoms: C_15  and  C_16
REMARK    5  A    between atoms: C_16  and  C_17
REMARK    6  A    between atoms: C_17  and  C_18
REMARK    7  A    between atoms: C_18  and  C_19
REMARK    8  A    between atoms: C_19  and  C_20
REMARK    9  A    between atoms: C_20  and  O_21
REMARK   10  A    between atoms: O_21  and  C_23
REMARK                            x       y       z     vdW  Elec       q    Type
REMARK                         _______ _______ _______ _____ _____    ______ ____
ROOT
ATOM      1  N   UNL     1      34.598 -16.372 -20.994  0.00  0.00    -0.239 NA
ATOM      2  N   UNL     1      34.576 -18.393 -22.281  0.00  0.00    -0.324 N 
ATOM      3  N   UNL     1      34.619 -16.263 -23.345  0.00  0.00    -0.263 N 
ATOM      4  C   UNL     1      34.619 -17.017 -22.115  0.00  0.00    +0.211 C 
ATOM      5  H   UNL     1      34.603 -18.703 -23.215  0.00  0.00    +0.169 HD
ATOM      6  H   UNL     1      34.604 -15.279 -23.343  0.00  0.00    +0.181 HD
ENDROOT
BRANCH   2   8
ATOM      7  N   UNL     1      34.351 -21.442 -19.388  0.00  0.00    -0.242 NA
ATOM      8  C   UNL     1      34.501 -19.416 -21.309  0.00  0.00    +0.062 C 
ATOM      9  C   UNL     1      35.664 -19.989 -20.807  0.00  0.00    +0.038 C 
ATOM     10  C   UNL     1      33.262 -19.854 -20.852  0.00  0.00    +0.038 C 
ATOM     11  C   UNL     1      35.536 -20.989 -19.857  0.00  0.00    +0.100 C 
ATOM     12  C   UNL     1      33.243 -20.860 -19.899  0.00  0.00    +0.100 C 
ENDBRANCH   2   8
BRANCH   3  14
ATOM     13  N   UNL     1      34.654 -17.565 -25.482  0.00  0.00    -0.171 NA
ATOM     14  C   UNL     1      34.643 -16.960 -24.492  0.00  0.00    +0.184 C 
ENDBRANCH   3  14
BRANCH   1  15
ATOM     15  C   UNL     1      34.575 -14.910 -21.060  0.00  0.00    +0.129 C 
BRANCH  15  16
ATOM     16  C   UNL     1      33.200 -14.394 -20.646  0.00  0.00    +0.026 C 
BRANCH  16  17
ATOM     17  C   UNL     1      32.317 -14.052 -21.849  0.00  0.00    +0.002 C 
BRANCH  17  18
ATOM     18  C   UNL     1      32.060 -12.547 -21.940  0.00  0.00    +0.004 C 
BRANCH  18  19
ATOM     19  C   UNL     1      31.718 -11.958 -20.573  0.00  0.00    +0.047 C 
BRANCH  19  20
ATOM     20  C   UNL     1      31.610 -10.441 -20.626  0.00  0.00    +0.205 C 
BRANCH  20  21
ATOM     21  O   UNL     1      31.789 -10.014 -21.969  0.00  0.00    -0.475 OA
BRANCH  21  23
ATOM     22 CL   UNL     1      31.430  -4.233 -22.986  0.00  0.00    -0.082 Cl
ATOM     23  C   UNL     1      31.704  -8.666 -22.206  0.00  0.00    +0.139 C 
ATOM     24  C   UNL     1      32.078  -7.759 -21.216  0.00  0.00    +0.038 C 
ATOM     25  C   UNL     1      31.245  -8.203 -23.439  0.00  0.00    +0.038 C 
ATOM     26  C   UNL     1      31.994  -6.388 -21.458  0.00  0.00    +0.015 C 
ATOM     27  C   UNL     1      31.160  -6.831 -23.681  0.00  0.00    +0.015 C 
ATOM     28  C   UNL     1      31.535  -5.924 -22.690  0.00  0.00    +0.058 C 
ENDBRANCH  21  23
ENDBRANCH  20  21
ENDBRANCH  19  20
ENDBRANCH  18  19
ENDBRANCH  17  18
ENDBRANCH  16  17
ENDBRANCH  15  16
ENDBRANCH   1  15
TORSDOF 10
ENDMDL
MODEL 5
REMARK VINA RESULT:      -9.4      5.123      8.348
REMARK  Name = 148198
REMARK  10 active torsions:
REMARK  status: ('A' for Active; 'I' for Inactive)
REMARK    1  A    between atoms: N_1  and  C_15
REMARK    2  A    between atoms: N_2  and  C_8
REMARK    3  A    between atoms: N_3  and  C_14
REMARK    4  A    between atoms: C_15  and  C_16
REMARK    5  A    between atoms: C_16  and  C_17
REMARK    6  A    between atoms: C_17  and  C_18
REMARK    7  A    between atoms: C_18  and  C_19
REMARK    8  A    between atoms: C_19  and  C_20
REMARK    9  A    between atoms: C_20  and  O_21
REMARK   10  A    between atoms: O_21  and  C_23
REMARK                            x       y       z     vdW  Elec       q    Type
REMARK                         _______ _______ _______ _____ _____    ______ ____
ROOT
ATOM      1  N   UNL     1      34.556 -16.642 -20.900  0.00  0.00    -0.239 NA
ATOM      2  N   UNL     1      34.587 -18.671 -22.175  0.00  0.00    -0.324 N 
ATOM      3  N   UNL     1      34.556 -16.547 -23.252  0.00  0.00    -0.263 N 
ATOM      4  C   UNL     1      34.589 -17.294 -22.018  0.00  0.00    +0.211 C 
ATOM      5  H   UNL     1      34.617 -18.986 -23.108  0.00  0.00    +0.169 HD
ATOM      6  H   UNL     1      34.511 -15.564 -23.256  0.00  0.00    +0.181 HD
ENDROOT
BRANCH   2   8
ATOM      7  N   UNL     1      34.480 -21.707 -19.263  0.00  0.00    -0.242 NA
ATOM      8  C   UNL     1      34.551 -19.690 -21.197  0.00  0.00    +0.062 C 
ATOM      9  C   UNL     1      35.736 -20.237 -20.714  0.00  0.00    +0.038 C 
ATOM     10  C   UNL     1      33.331 -20.151 -20.714  0.00  0.00    +0.038 C 
ATOM     11  C   UNL     1      35.646 -21.233 -19.756  0.00  0.00    +0.100 C 
ATOM     12  C   UNL     1      33.350 -21.152 -19.756  0.00  0.00    +0.100 C 
ENDBRANCH   2   8
BRANCH   3  14
ATOM     13  N   UNL     1      34.615 -17.860 -25.382  0.00  0.00    -0.171 NA
ATOM     14  C   UNL     1      34.593 -17.250 -24.395  0.00  0.00    +0.184 C 
ENDBRANCH   3  14
BRANCH   1  15
ATOM     15  C   UNL     1      34.487 -15.182 -20.975  0.00  0.00    +0.129 C 
BRANCH  15  16
ATOM     16  C   UNL     1      33.035 -14.726 -20.869  0.00  0.00    +0.026 C 
BRANCH  16  17
ATOM     17  C   UNL     1      32.772 -13.428 -21.637  0.00  0.00    +0.002 C 
BRANCH  17  18
ATOM     18  C   UNL     1      32.645 -13.687 -23.139  0.00  0.00    +0.004 C 
BRANCH  18  19
ATOM     19  C   UNL     1      33.851 -13.144 -23.901  0.00  0.00    +0.047 C 
BRANCH  19  20
ATOM     20  C   UNL     1      33.502 -11.883 -24.680  0.00  0.00    +0.205 C 
BRANCH  20  21
ATOM     21  O   UNL     1      34.434 -10.865 -24.345  0.00  0.00    -0.475 OA
BRANCH  21  23
ATOM     22 CL   UNL     1      32.253  -5.969 -21.922  0.00  0.00    -0.082 Cl
ATOM     23  C   UNL     1      33.925  -9.724 -23.779  0.00  0.00    +0.139 C 
ATOM     24  C   UNL     1      34.627  -8.523 -23.880  0.00  0.00    +0.038 C 
ATOM     25  C   UNL     1      32.705  -9.764 -23.104  0.00  0.00    +0.038 C 
ATOM     26  C   UNL     1      34.109  -7.362 -23.306  0.00  0.00    +0.015 C 
ATOM     27  C   UNL     1      32.188  -8.603 -22.530  0.00  0.00    +0.015 C 
ATOM     28  C   UNL     1      32.890  -7.402 -22.631  0.00  0.00    +0.058 C 
ENDBRANCH  21  23
ENDBRANCH  20  21
ENDBRANCH  19  20
ENDBRANCH  18  19
ENDBRANCH  17  18
ENDBRANCH  16  17
ENDBRANCH  15  16
ENDBRANCH   1  15
TORSDOF 10
ENDMDL
MODEL 6
REMARK VINA RESULT:      -9.3      2.133      4.399
REMARK  Name = 148198
REMARK  10 active torsions:
REMARK  status: ('A' for Active; 'I' for Inactive)
REMARK    1  A    between atoms: N_1  and  C_15
REMARK    2  A    between atoms: N_2  and  C_8
REMARK    3  A    between atoms: N_3  and  C_14
REMARK    4  A    between atoms: C_15  and  C_16
REMARK    5  A    between atoms: C_16  and  C_17
REMARK    6  A    between atoms: C_17  and  C_18
REMARK    7  A    between atoms: C_18  and  C_19
REMARK    8  A    between atoms: C_19  and  C_20
REMARK    9  A    between atoms: C_20  and  O_21
REMARK   10  A    between atoms: O_21  and  C_23
REMARK                            x       y       z     vdW  Elec       q    Type
REMARK                         _______ _______ _______ _____ _____    ______ ____
ROOT
ATOM      1  N   UNL     1      35.545 -23.645 -14.705  0.00  0.00    -0.239 NA
ATOM      2  N   UNL     1      33.859 -24.103 -13.066  0.00  0.00    -0.324 N 
ATOM      3  N   UNL     1      36.168 -24.119 -12.485  0.00  0.00    -0.263 N 
ATOM      4  C   UNL     1      35.162 -23.916 -13.500  0.00  0.00    +0.211 C 
ATOM      5  H   UNL     1      33.760 -24.301 -12.107  0.00  0.00    +0.169 HD
ATOM      6  H   UNL     1      37.128 -24.055 -12.694  0.00  0.00    +0.181 HD
ENDROOT
BRANCH   2   8
ATOM      7  N   UNL     1      30.258 -23.943 -15.240  0.00  0.00    -0.242 NA
ATOM      8  C   UNL     1      32.649 -24.049 -13.796  0.00  0.00    +0.062 C 
ATOM      9  C   UNL     1      31.797 -25.148 -13.817  0.00  0.00    +0.038 C 
ATOM     10  C   UNL     1      32.308 -22.897 -14.496  0.00  0.00    +0.038 C 
ATOM     11  C   UNL     1      30.625 -25.045 -14.547  0.00  0.00    +0.100 C 
ATOM     12  C   UNL     1      31.111 -22.896 -15.196  0.00  0.00    +0.100 C 
ENDBRANCH   2   8
BRANCH   3  14
ATOM     13  N   UNL     1      35.379 -24.639 -10.168  0.00  0.00    -0.171 NA
ATOM     14  C   UNL     1      35.740 -24.397 -11.244  0.00  0.00    +0.184 C 
ENDBRANCH   3  14
BRANCH   1  15
ATOM     15  C   UNL     1      36.986 -23.565 -14.951  0.00  0.00    +0.129 C 
BRANCH  15  16
ATOM     16  C   UNL     1      37.273 -22.501 -16.004  0.00  0.00    +0.026 C 
BRANCH  16  17
ATOM     17  C   UNL     1      36.075 -22.246 -16.923  0.00  0.00    +0.002 C 
BRANCH  17  18
ATOM     18  C   UNL     1      36.517 -21.641 -18.256  0.00  0.00    +0.004 C 
BRANCH  18  19
ATOM     19  C   UNL     1      35.352 -21.552 -19.239  0.00  0.00    +0.047 C 
BRANCH  19  20
ATOM     20  C   UNL     1      35.747 -20.820 -20.514  0.00  0.00    +0.205 C 
BRANCH  20  21
ATOM     21  O   UNL     1      35.449 -19.440 -20.362  0.00  0.00    -0.475 OA
BRANCH  21  23
ATOM     22 CL   UNL     1      34.411 -16.394 -25.285  0.00  0.00    -0.082 Cl
ATOM     23  C   UNL     1      35.208 -18.729 -21.510  0.00  0.00    +0.139 C 
ATOM     24  C   UNL     1      34.983 -19.400 -22.711  0.00  0.00    +0.038 C 
ATOM     25  C   UNL     1      35.186 -17.335 -21.475  0.00  0.00    +0.038 C 
ATOM     26  C   UNL     1      34.736 -18.677 -23.878  0.00  0.00    +0.015 C 
ATOM     27  C   UNL     1      34.939 -16.612 -22.643  0.00  0.00    +0.015 C 
ATOM     28  C   UNL     1      34.714 -17.284 -23.844  0.00  0.00    +0.058 C 
ENDBRANCH  21  23
ENDBRANCH  20  21
ENDBRANCH  19  20
ENDBRANCH  18  19
ENDBRANCH  17  18
ENDBRANCH  16  17
ENDBRANCH  15  16
ENDBRANCH   1  15
TORSDOF 10
ENDMDL
MODEL 7
REMARK VINA RESULT:      -9.3      7.939     13.210
REMARK  Name = 148198
REMARK  10 active torsions:
REMARK  status: ('A' for Active; 'I' for Inactive)
REMARK    1  A    between atoms: N_1  and  C_15
REMARK    2  A    between atoms: N_2  and  C_8
REMARK    3  A    between atoms: N_3  and  C_14
REMARK    4  A    between atoms: C_15  and  C_16
REMARK    5  A    between atoms: C_16  and  C_17
REMARK    6  A    between atoms: C_17  and  C_18
REMARK    7  A    between atoms: C_18  and  C_19
REMARK    8  A    between atoms: C_19  and  C_20
REMARK    9  A    between atoms: C_20  and  O_21
REMARK   10  A    between atoms: O_21  and  C_23
REMARK                            x       y       z     vdW  Elec       q    Type
REMARK                         _______ _______ _______ _____ _____    ______ ____
ROOT
ATOM      1  N   UNL     1      32.270 -11.319 -22.532  0.00  0.00    -0.239 NA
ATOM      2  N   UNL     1      33.159  -9.388 -23.637  0.00  0.00    -0.324 N 
ATOM      3  N   UNL     1      33.936 -11.574 -24.175  0.00  0.00    -0.263 N 
ATOM      4  C   UNL     1      33.041 -10.749 -23.400  0.00  0.00    +0.211 C 
ATOM      5  H   UNL     1      33.800  -9.139 -24.342  0.00  0.00    +0.169 HD
ATOM      6  H   UNL     1      33.967 -12.550 -24.055  0.00  0.00    +0.181 HD
ENDROOT
BRANCH   2   8
ATOM      7  N   UNL     1      31.183  -6.160 -21.797  0.00  0.00    -0.242 NA
ATOM      8  C   UNL     1      32.495  -8.304 -23.019  0.00  0.00    +0.062 C 
ATOM      9  C   UNL     1      31.396  -7.715 -23.636  0.00  0.00    +0.038 C 
ATOM     10  C   UNL     1      32.939  -7.822 -21.793  0.00  0.00    +0.038 C 
ATOM     11  C   UNL     1      30.781  -6.656 -22.989  0.00  0.00    +0.100 C 
ATOM     12  C   UNL     1      32.254  -6.758 -21.229  0.00  0.00    +0.100 C 
ENDBRANCH   2   8
BRANCH   3  14
ATOM     13  N   UNL     1      35.407 -10.414 -25.834  0.00  0.00    -0.171 NA
ATOM     14  C   UNL     1      34.723 -10.954 -25.069  0.00  0.00    +0.184 C 
ENDBRANCH   3  14
BRANCH   1  15
ATOM     15  C   UNL     1      32.366 -12.773 -22.400  0.00  0.00    +0.129 C 
BRANCH  15  16
ATOM     16  C   UNL     1      32.319 -13.165 -20.927  0.00  0.00    +0.026 C 
BRANCH  16  17
ATOM     17  C   UNL     1      32.671 -14.637 -20.701  0.00  0.00    +0.002 C 
BRANCH  17  18
ATOM     18  C   UNL     1      33.881 -15.054 -21.539  0.00  0.00    +0.004 C 
BRANCH  18  19
ATOM     19  C   UNL     1      34.589 -16.262 -20.931  0.00  0.00    +0.047 C 
BRANCH  19  20
ATOM     20  C   UNL     1      35.273 -17.107 -21.996  0.00  0.00    +0.205 C 
BRANCH  20  21
ATOM     21  O   UNL     1      34.434 -18.207 -22.319  0.00  0.00    -0.475 OA
BRANCH  21  23
ATOM     22 CL   UNL     1      34.185 -22.594 -18.410  0.00  0.00    -0.082 Cl
ATOM     23  C   UNL     1      34.377 -19.230 -21.407  0.00  0.00    +0.139 C 
ATOM     24  C   UNL     1      33.145 -19.648 -20.905  0.00  0.00    +0.038 C 
ATOM     25  C   UNL     1      35.550 -19.852 -20.982  0.00  0.00    +0.038 C 
ATOM     26  C   UNL     1      33.086 -20.689 -19.979  0.00  0.00    +0.015 C 
ATOM     27  C   UNL     1      35.491 -20.893 -20.056  0.00  0.00    +0.015 C 
ATOM     28  C   UNL     1      34.259 -21.311 -19.554  0.00  0.00    +0.058 C 
ENDBRANCH  21  23
ENDBRANCH  20  21
ENDBRANCH  19  20
ENDBRANCH  18  19
ENDBRANCH  17  18
ENDBRANCH  16  17
ENDBRANCH  15  16
ENDBRANCH   1  15
TORSDOF 10
ENDMDL
MODEL 8
REMARK VINA RESULT:      -9.2      6.878     12.141
REMARK  Name = 148198
REMARK  10 active torsions:
REMARK  status: ('A' for Active; 'I' for Inactive)
REMARK    1  A    between atoms: N_1  and  C_15
REMARK    2  A    between atoms: N_2  and  C_8
REMARK    3  A    between atoms: N_3  and  C_14
REMARK    4  A    between atoms: C_15  and  C_16
REMARK    5  A    between atoms: C_16  and  C_17
REMARK    6  A    between atoms: C_17  and  C_18
REMARK    7  A    between atoms: C_18  and  C_19
REMARK    8  A    between atoms: C_19  and  C_20
REMARK    9  A    between atoms: C_20  and  O_21
REMARK   10  A    between atoms: O_21  and  C_23
REMARK                            x       y       z     vdW  Elec       q    Type
REMARK                         _______ _______ _______ _____ _____    ______ ____
ROOT
ATOM      1  N   UNL     1      33.013 -13.186 -22.586  0.00  0.00    -0.239 NA
ATOM      2  N   UNL     1      33.468 -11.913 -24.565  0.00  0.00    -0.324 N 
ATOM      3  N   UNL     1      33.151 -14.270 -24.671  0.00  0.00    -0.263 N 
ATOM      4  C   UNL     1      33.184 -13.075 -23.864  0.00  0.00    +0.211 C 
ATOM      5  H   UNL     1      33.564 -12.024 -25.538  0.00  0.00    +0.169 HD
ATOM      6  H   UNL     1      33.001 -15.157 -24.269  0.00  0.00    +0.181 HD
ENDROOT
BRANCH   2   8
ATOM      7  N   UNL     1      33.979  -7.982 -23.149  0.00  0.00    -0.242 NA
ATOM      8  C   UNL     1      33.640 -10.593 -24.090  0.00  0.00    +0.062 C 
ATOM      9  C   UNL     1      34.774  -9.867 -24.439  0.00  0.00    +0.038 C 
ATOM     10  C   UNL     1      32.676 -10.015 -23.271  0.00  0.00    +0.038 C 
ATOM     11  C   UNL     1      34.895  -8.577 -23.947  0.00  0.00    +0.100 C 
ATOM     12  C   UNL     1      32.891  -8.719 -22.832  0.00  0.00    +0.100 C 
ENDBRANCH   2   8
BRANCH   3  14
ATOM     13  N   UNL     1      33.480 -14.004 -27.137  0.00  0.00    -0.171 NA
ATOM     14  C   UNL     1      33.331 -14.124 -25.993  0.00  0.00    +0.184 C 
ENDBRANCH   3  14
BRANCH   1  15
ATOM     15  C   UNL     1      32.796 -14.530 -22.051  0.00  0.00    +0.129 C 
BRANCH  15  16
ATOM     16  C   UNL     1      33.855 -14.847 -21.000  0.00  0.00    +0.026 C 
BRANCH  16  17
ATOM     17  C   UNL     1      34.577 -16.168 -21.275  0.00  0.00    +0.002 C 
BRANCH  17  18
ATOM     18  C   UNL     1      34.930 -16.310 -22.757  0.00  0.00    +0.004 C 
BRANCH  18  19
ATOM     19  C   UNL     1      35.622 -17.641 -23.038  0.00  0.00    +0.047 C 
BRANCH  19  20
ATOM     20  C   UNL     1      34.879 -18.807 -22.399  0.00  0.00    +0.205 C 
BRANCH  20  21
ATOM     21  O   UNL     1      35.727 -19.420 -21.439  0.00  0.00    -0.475 OA
BRANCH  21  23
ATOM     22 CL   UNL     1      33.202 -23.176 -17.682  0.00  0.00    -0.082 Cl
ATOM     23  C   UNL     1      35.138 -20.296 -20.563  0.00  0.00    +0.139 C 
ATOM     24  C   UNL     1      35.928 -21.124 -19.768  0.00  0.00    +0.038 C 
ATOM     25  C   UNL     1      33.748 -20.358 -20.469  0.00  0.00    +0.038 C 
ATOM     26  C   UNL     1      35.329 -22.014 -18.876  0.00  0.00    +0.015 C 
ATOM     27  C   UNL     1      33.149 -21.249 -19.577  0.00  0.00    +0.015 C 
ATOM     28  C   UNL     1      33.940 -22.076 -18.781  0.00  0.00    +0.058 C 
ENDBRANCH  21  23
ENDBRANCH  20  21
ENDBRANCH  19  20
ENDBRANCH  18  19
ENDBRANCH  17  18
ENDBRANCH  16  17
ENDBRANCH  15  16
ENDBRANCH   1  15
TORSDOF 10
ENDMDL
MODEL 9
REMARK VINA RESULT:      -9.2      1.995      4.288
REMARK  Name = 148198
REMARK  10 active torsions:
REMARK  status: ('A' for Active; 'I' for Inactive)
REMARK    1  A    between atoms: N_1  and  C_15
REMARK    2  A    between atoms: N_2  and  C_8
REMARK    3  A    between atoms: N_3  and  C_14
REMARK    4  A    between atoms: C_15  and  C_16
REMARK    5  A    between atoms: C_16  and  C_17
REMARK    6  A    between atoms: C_17  and  C_18
REMARK    7  A    between atoms: C_18  and  C_19
REMARK    8  A    between atoms: C_19  and  C_20
REMARK    9  A    between atoms: C_20  and  O_21
REMARK   10  A    between atoms: O_21  and  C_23
REMARK                            x       y       z     vdW  Elec       q    Type
REMARK                         _______ _______ _______ _____ _____    ______ ____
ROOT
ATOM      1  N   UNL     1      32.637 -22.771 -17.956  0.00  0.00    -0.239 NA
ATOM      2  N   UNL     1      32.342 -23.557 -15.712  0.00  0.00    -0.324 N 
ATOM      3  N   UNL     1      34.508 -23.040 -16.554  0.00  0.00    -0.263 N 
ATOM      4  C   UNL     1      33.085 -23.092 -16.786  0.00  0.00    +0.211 C 
ATOM      5  H   UNL     1      32.859 -23.749 -14.897  0.00  0.00    +0.169 HD
ATOM      6  H   UNL     1      35.134 -22.766 -17.264  0.00  0.00    +0.181 HD
ENDROOT
BRANCH   2   8
ATOM      7  N   UNL     1      28.203 -24.263 -15.415  0.00  0.00    -0.242 NA
ATOM      8  C   UNL     1      30.952 -23.794 -15.613  0.00  0.00    +0.062 C 
ATOM      9  C   UNL     1      30.048 -22.878 -16.140  0.00  0.00    +0.038 C 
ATOM     10  C   UNL     1      30.484 -24.944 -14.987  0.00  0.00    +0.038 C 
ATOM     11  C   UNL     1      28.697 -23.157 -16.016  0.00  0.00    +0.100 C 
ATOM     12  C   UNL     1      29.113 -25.130 -14.915  0.00  0.00    +0.100 C 
ENDBRANCH   2   8
BRANCH   3  14
ATOM     13  N   UNL     1      35.317 -23.678 -14.274  0.00  0.00    -0.171 NA
ATOM     14  C   UNL     1      34.944 -23.377 -15.330  0.00  0.00    +0.184 C 
ENDBRANCH   3  14
BRANCH   1  15
ATOM     15  C   UNL     1      33.619 -22.375 -18.967  0.00  0.00    +0.129 C 
BRANCH  15  16
ATOM     16  C   UNL     1      33.201 -21.055 -19.606  0.00  0.00    +0.026 C 
BRANCH  16  17
ATOM     17  C   UNL     1      34.248 -20.522 -20.587  0.00  0.00    +0.002 C 
BRANCH  17  18
ATOM     18  C   UNL     1      35.667 -20.753 -20.064  0.00  0.00    +0.004 C 
BRANCH  18  19
ATOM     19  C   UNL     1      36.606 -19.628 -20.489  0.00  0.00    +0.047 C 
BRANCH  19  20
ATOM     20  C   UNL     1      35.850 -18.485 -21.153  0.00  0.00    +0.205 C 
BRANCH  20  21
ATOM     21  O   UNL     1      36.206 -18.436 -22.527  0.00  0.00    -0.475 OA
BRANCH  21  23
ATOM     22 CL   UNL     1      32.927 -15.000 -25.995  0.00  0.00    -0.082 Cl
ATOM     23  C   UNL     1      35.441 -17.636 -23.336  0.00  0.00    +0.139 C 
ATOM     24  C   UNL     1      35.161 -16.324 -22.954  0.00  0.00    +0.038 C 
ATOM     25  C   UNL     1      34.943 -18.133 -24.540  0.00  0.00    +0.038 C 
ATOM     26  C   UNL     1      34.384 -15.509 -23.778  0.00  0.00    +0.015 C 
ATOM     27  C   UNL     1      34.166 -17.318 -25.363  0.00  0.00    +0.015 C 
ATOM     28  C   UNL     1      33.887 -16.006 -24.982  0.00  0.00    +0.058 C 
ENDBRANCH  21  23
ENDBRANCH  20  21
ENDBRANCH  19  20
ENDBRANCH  18  19
ENDBRANCH  17  18
ENDBRANCH  16  17
ENDBRANCH  15  16
ENDBRANCH   1  15
TORSDOF 10
ENDMDL
