MODEL 1
REMARK VINA RESULT:      -6.4      0.000      0.000
REMARK  Name = 65784
REMARK  3 active torsions:
REMARK  status: ('A' for Active; 'I' for Inactive)
REMARK    1  A    between atoms: C_3  and  C_12
REMARK    2  A    between atoms: C_5  and  O_9
REMARK    3  A    between atoms: C_12  and  O_13
REMARK                            x       y       z     vdW  Elec       q    Type
REMARK                         _______ _______ _______ _____ _____    ______ ____
ROOT
ATOM      1  O   UNL     1      38.428 -23.046 -16.013  0.00  0.00    -0.275 OA
ATOM      2  N   UNL     1      37.373 -24.167 -14.284  0.00  0.00    -0.269 N 
ATOM      3  C   UNL     1      38.561 -24.834 -13.770  0.00  0.00    +0.177 C 
ATOM      4  C   UNL     1      38.164 -25.303 -12.377  0.00  0.00    +0.062 C 
ATOM      5  C   UNL     1      36.659 -25.546 -12.496  0.00  0.00    +0.132 C 
ATOM      6  C   UNL     1      36.200 -24.463 -13.464  0.00  0.00    +0.123 C 
ATOM      7  C   UNL     1      37.420 -23.271 -15.341  0.00  0.00    +0.227 C 
ATOM      8  C   UNL     1      36.125 -22.563 -15.653  0.00  0.00    +0.095 C 
ENDROOT
BRANCH   5   9
ATOM      9  O   UNL     1      36.036 -25.420 -11.233  0.00  0.00    -0.383 OA
ATOM     10  H   UNL     1      36.079 -26.268 -10.766  0.00  0.00    +0.210 HD
ENDBRANCH   5   9
BRANCH   3  12
ATOM     11  O   UNL     1      38.306 -27.075 -14.640  0.00  0.00    -0.248 OA
ATOM     12  C   UNL     1      38.853 -25.983 -14.687  0.00  0.00    +0.332 C 
BRANCH  12  13
ATOM     13  O   UNL     1      39.815 -25.649 -15.581  0.00  0.00    -0.479 OA
ATOM     14  H   UNL     1      40.717 -25.675 -15.329  0.00  0.00    +0.295 HD
ENDBRANCH  12  13
ENDBRANCH   3  12
TORSDOF 3
ENDMDL
MODEL 2
REMARK VINA RESULT:      -6.4      1.708      3.742
REMARK  Name = 65784
REMARK  3 active torsions:
REMARK  status: ('A' for Active; 'I' for Inactive)
REMARK    1  A    between atoms: C_3  and  C_12
REMARK    2  A    between atoms: C_5  and  O_9
REMARK    3  A    between atoms: C_12  and  O_13
REMARK                            x       y       z     vdW  Elec       q    Type
REMARK                         _______ _______ _______ _____ _____    ______ ____
ROOT
ATOM      1  O   UNL     1      34.384 -24.263 -12.356  0.00  0.00    -0.275 OA
ATOM      2  N   UNL     1      36.347 -24.574 -13.542  0.00  0.00    -0.269 N 
ATOM      3  C   UNL     1      37.116 -25.141 -12.443  0.00  0.00    +0.177 C 
ATOM      4  C   UNL     1      38.315 -25.798 -13.113  0.00  0.00    +0.062 C 
ATOM      5  C   UNL     1      38.537 -24.948 -14.364  0.00  0.00    +0.132 C 
ATOM      6  C   UNL     1      37.125 -24.552 -14.779  0.00  0.00    +0.123 C 
ATOM      7  C   UNL     1      35.009 -24.233 -13.417  0.00  0.00    +0.227 C 
ATOM      8  C   UNL     1      34.328 -23.795 -14.689  0.00  0.00    +0.095 C 
ENDROOT
BRANCH   5   9
ATOM      9  O   UNL     1      39.185 -25.703 -15.367  0.00  0.00    -0.383 OA
ATOM     10  H   UNL     1      38.525 -26.059 -15.982  0.00  0.00    +0.210 HD
ENDBRANCH   5   9
BRANCH   3  12
ATOM     11  O   UNL     1      38.463 -23.251 -11.766  0.00  0.00    -0.248 OA
ATOM     12  C   UNL     1      37.523 -24.002 -11.556  0.00  0.00    +0.332 C 
BRANCH  12  13
ATOM     13  O   UNL     1      36.705 -23.919 -10.479  0.00  0.00    -0.479 OA
ATOM     14  H   UNL     1      36.586 -23.098 -10.044  0.00  0.00    +0.295 HD
ENDBRANCH  12  13
ENDBRANCH   3  12
TORSDOF 3
ENDMDL
MODEL 3
REMARK VINA RESULT:      -6.3      1.991      2.812
REMARK  Name = 65784
REMARK  3 active torsions:
REMARK  status: ('A' for Active; 'I' for Inactive)
REMARK    1  A    between atoms: C_3  and  C_12
REMARK    2  A    between atoms: C_5  and  O_9
REMARK    3  A    between atoms: C_12  and  O_13
REMARK                            x       y       z     vdW  Elec       q    Type
REMARK                         _______ _______ _______ _____ _____    ______ ____
ROOT
ATOM      1  O   UNL     1      39.034 -23.495 -11.727  0.00  0.00    -0.275 OA
ATOM      2  N   UNL     1      37.753 -24.690 -13.240  0.00  0.00    -0.269 N 
ATOM      3  C   UNL     1      38.832 -25.529 -13.743  0.00  0.00    +0.177 C 
ATOM      4  C   UNL     1      38.126 -26.673 -14.458  0.00  0.00    +0.062 C 
ATOM      5  C   UNL     1      36.825 -26.039 -14.952  0.00  0.00    +0.132 C 
ATOM      6  C   UNL     1      36.474 -25.046 -13.851  0.00  0.00    +0.123 C 
ATOM      7  C   UNL     1      37.938 -23.772 -12.218  0.00  0.00    +0.227 C 
ATOM      8  C   UNL     1      36.688 -23.089 -11.722  0.00  0.00    +0.095 C 
ENDROOT
BRANCH   5   9
ATOM      9  O   UNL     1      35.823 -27.023 -15.110  0.00  0.00    -0.383 OA
ATOM     10  H   UNL     1      34.950 -26.600 -15.101  0.00  0.00    +0.210 HD
ENDBRANCH   5   9
BRANCH   3  12
ATOM     11  O   UNL     1      39.180 -23.859 -15.456  0.00  0.00    -0.248 OA
ATOM     12  C   UNL     1      39.639 -24.691 -14.687  0.00  0.00    +0.332 C 
BRANCH  12  13
ATOM     13  O   UNL     1      40.958 -24.982 -14.578  0.00  0.00    -0.479 OA
ATOM     14  H   UNL     1      41.339 -25.117 -13.733  0.00  0.00    +0.295 HD
ENDBRANCH  12  13
ENDBRANCH   3  12
TORSDOF 3
ENDMDL
MODEL 4
REMARK VINA RESULT:      -6.3      2.036      2.460
REMARK  Name = 65784
REMARK  3 active torsions:
REMARK  status: ('A' for Active; 'I' for Inactive)
REMARK    1  A    between atoms: C_3  and  C_12
REMARK    2  A    between atoms: C_5  and  O_9
REMARK    3  A    between atoms: C_12  and  O_13
REMARK                            x       y       z     vdW  Elec       q    Type
REMARK                         _______ _______ _______ _____ _____    ______ ____
ROOT
ATOM      1  O   UNL     1      35.648 -25.370 -15.716  0.00  0.00    -0.275 OA
ATOM      2  N   UNL     1      36.127 -24.322 -13.709  0.00  0.00    -0.269 N 
ATOM      3  C   UNL     1      37.469 -24.866 -13.555  0.00  0.00    +0.177 C 
ATOM      4  C   UNL     1      38.123 -23.980 -12.503  0.00  0.00    +0.062 C 
ATOM      5  C   UNL     1      36.950 -23.529 -11.633  0.00  0.00    +0.132 C 
ATOM      6  C   UNL     1      35.803 -23.393 -12.627  0.00  0.00    +0.123 C 
ATOM      7  C   UNL     1      35.343 -24.578 -14.822  0.00  0.00    +0.227 C 
ATOM      8  C   UNL     1      34.039 -23.822 -14.888  0.00  0.00    +0.095 C 
ENDROOT
BRANCH   5   9
ATOM      9  O   UNL     1      37.245 -22.300 -11.002  0.00  0.00    -0.383 OA
ATOM     10  H   UNL     1      38.122 -22.351 -10.589  0.00  0.00    +0.210 HD
ENDBRANCH   5   9
BRANCH   3  12
ATOM     11  O   UNL     1      36.981 -26.612 -11.956  0.00  0.00    -0.248 OA
ATOM     12  C   UNL     1      37.320 -26.280 -13.082  0.00  0.00    +0.332 C 
BRANCH  12  13
ATOM     13  O   UNL     1      37.617 -27.151 -14.077  0.00  0.00    -0.479 OA
ATOM     14  H   UNL     1      38.405 -27.045 -14.572  0.00  0.00    +0.295 HD
ENDBRANCH  12  13
ENDBRANCH   3  12
TORSDOF 3
ENDMDL
MODEL 5
REMARK VINA RESULT:      -6.2      1.924      3.304
REMARK  Name = 65784
REMARK  3 active torsions:
REMARK  status: ('A' for Active; 'I' for Inactive)
REMARK    1  A    between atoms: C_3  and  C_12
REMARK    2  A    between atoms: C_5  and  O_9
REMARK    3  A    between atoms: C_12  and  O_13
REMARK                            x       y       z     vdW  Elec       q    Type
REMARK                         _______ _______ _______ _____ _____    ______ ____
ROOT
ATOM      1  O   UNL     1      38.509 -27.035 -14.843  0.00  0.00    -0.275 OA
ATOM      2  N   UNL     1      37.999 -25.248 -13.464  0.00  0.00    -0.269 N 
ATOM      3  C   UNL     1      36.586 -25.561 -13.304  0.00  0.00    +0.177 C 
ATOM      4  C   UNL     1      36.147 -24.740 -12.099  0.00  0.00    +0.062 C 
ATOM      5  C   UNL     1      37.064 -23.518 -12.143  0.00  0.00    +0.132 C 
ATOM      6  C   UNL     1      38.378 -24.080 -12.671  0.00  0.00    +0.123 C 
ATOM      7  C   UNL     1      38.864 -26.057 -14.184  0.00  0.00    +0.227 C 
ATOM      8  C   UNL     1      40.320 -25.664 -14.130  0.00  0.00    +0.095 C 
ENDROOT
BRANCH   5   9
ATOM      9  O   UNL     1      37.212 -22.963 -10.852  0.00  0.00    -0.383 OA
ATOM     10  H   UNL     1      37.226 -23.675 -10.194  0.00  0.00    +0.210 HD
ENDBRANCH   5   9
BRANCH   3  12
ATOM     11  O   UNL     1      35.566 -23.980 -14.822  0.00  0.00    -0.248 OA
ATOM     12  C   UNL     1      35.893 -25.128 -14.560  0.00  0.00    +0.332 C 
BRANCH  12  13
ATOM     13  O   UNL     1      35.671 -26.189 -15.374  0.00  0.00    -0.479 OA
ATOM     14  H   UNL     1      36.185 -26.300 -16.149  0.00  0.00    +0.295 HD
ENDBRANCH  12  13
ENDBRANCH   3  12
TORSDOF 3
ENDMDL
MODEL 6
REMARK VINA RESULT:      -6.1      1.620      2.015
REMARK  Name = 65784
REMARK  3 active torsions:
REMARK  status: ('A' for Active; 'I' for Inactive)
REMARK    1  A    between atoms: C_3  and  C_12
REMARK    2  A    between atoms: C_5  and  O_9
REMARK    3  A    between atoms: C_12  and  O_13
REMARK                            x       y       z     vdW  Elec       q    Type
REMARK                         _______ _______ _______ _____ _____    ______ ____
ROOT
ATOM      1  O   UNL     1      38.783 -23.582 -15.755  0.00  0.00    -0.275 OA
ATOM      2  N   UNL     1      36.686 -23.736 -14.786  0.00  0.00    -0.269 N 
ATOM      3  C   UNL     1      36.987 -24.868 -13.922  0.00  0.00    +0.177 C 
ATOM      4  C   UNL     1      35.863 -24.875 -12.895  0.00  0.00    +0.062 C 
ATOM      5  C   UNL     1      34.677 -24.282 -13.656  0.00  0.00    +0.132 C 
ATOM      6  C   UNL     1      35.325 -23.251 -14.572  0.00  0.00    +0.123 C 
ATOM      7  C   UNL     1      37.642 -23.145 -15.598  0.00  0.00    +0.227 C 
ATOM      8  C   UNL     1      37.200 -21.895 -16.319  0.00  0.00    +0.095 C 
ENDROOT
BRANCH   5   9
ATOM      9  O   UNL     1      33.761 -23.686 -12.760  0.00  0.00    -0.383 OA
ATOM     10  H   UNL     1      33.041 -24.308 -12.574  0.00  0.00    +0.210 HD
ENDBRANCH   5   9
BRANCH   3  12
ATOM     11  O   UNL     1      36.151 -26.326 -15.660  0.00  0.00    -0.248 OA
ATOM     12  C   UNL     1      36.969 -26.096 -14.781  0.00  0.00    +0.332 C 
BRANCH  12  13
ATOM     13  O   UNL     1      37.986 -26.928 -14.448  0.00  0.00    -0.479 OA
ATOM     14  H   UNL     1      37.800 -27.785 -14.116  0.00  0.00    +0.295 HD
ENDBRANCH  12  13
ENDBRANCH   3  12
TORSDOF 3
ENDMDL
MODEL 7
REMARK VINA RESULT:      -6.0      1.342      1.377
REMARK  Name = 65784
REMARK  3 active torsions:
REMARK  status: ('A' for Active; 'I' for Inactive)
REMARK    1  A    between atoms: C_3  and  C_12
REMARK    2  A    between atoms: C_5  and  O_9
REMARK    3  A    between atoms: C_12  and  O_13
REMARK                            x       y       z     vdW  Elec       q    Type
REMARK                         _______ _______ _______ _____ _____    ______ ____
ROOT
ATOM      1  O   UNL     1      36.565 -23.612 -16.138  0.00  0.00    -0.275 OA
ATOM      2  N   UNL     1      36.349 -24.059 -13.878  0.00  0.00    -0.269 N 
ATOM      3  C   UNL     1      37.718 -24.508 -13.667  0.00  0.00    +0.177 C 
ATOM      4  C   UNL     1      37.908 -24.463 -12.157  0.00  0.00    +0.062 C 
ATOM      5  C   UNL     1      36.504 -24.728 -11.611  0.00  0.00    +0.132 C 
ATOM      6  C   UNL     1      35.595 -24.048 -12.626  0.00  0.00    +0.123 C 
ATOM      7  C   UNL     1      35.901 -23.587 -15.102  0.00  0.00    +0.227 C 
ATOM      8  C   UNL     1      34.499 -23.028 -15.109  0.00  0.00    +0.095 C 
ENDROOT
BRANCH   5   9
ATOM      9  O   UNL     1      36.362 -24.169 -10.321  0.00  0.00    -0.383 OA
ATOM     10  H   UNL     1      35.620 -23.544 -10.320  0.00  0.00    +0.210 HD
ENDBRANCH   5   9
BRANCH   3  12
ATOM     11  O   UNL     1      37.401 -26.905 -13.630  0.00  0.00    -0.248 OA
ATOM     12  C   UNL     1      37.811 -25.906 -14.202  0.00  0.00    +0.332 C 
BRANCH  12  13
ATOM     13  O   UNL     1      38.418 -25.915 -15.413  0.00  0.00    -0.479 OA
ATOM     14  H   UNL     1      37.989 -25.537 -16.155  0.00  0.00    +0.295 HD
ENDBRANCH  12  13
ENDBRANCH   3  12
TORSDOF 3
ENDMDL
MODEL 8
REMARK VINA RESULT:      -5.9     10.130     12.298
REMARK  Name = 65784
REMARK  3 active torsions:
REMARK  status: ('A' for Active; 'I' for Inactive)
REMARK    1  A    between atoms: C_3  and  C_12
REMARK    2  A    between atoms: C_5  and  O_9
REMARK    3  A    between atoms: C_12  and  O_13
REMARK                            x       y       z     vdW  Elec       q    Type
REMARK                         _______ _______ _______ _____ _____    ______ ____
ROOT
ATOM      1  O   UNL     1      33.946 -14.632 -23.840  0.00  0.00    -0.275 OA
ATOM      2  N   UNL     1      34.325 -16.565 -22.625  0.00  0.00    -0.269 N 
ATOM      3  C   UNL     1      35.373 -17.097 -23.484  0.00  0.00    +0.177 C 
ATOM      4  C   UNL     1      36.051 -18.169 -22.642  0.00  0.00    +0.062 C 
ATOM      5  C   UNL     1      34.930 -18.675 -21.734  0.00  0.00    +0.132 C 
ATOM      6  C   UNL     1      34.100 -17.426 -21.466  0.00  0.00    +0.123 C 
ATOM      7  C   UNL     1      33.733 -15.332 -22.849  0.00  0.00    +0.227 C 
ATOM      8  C   UNL     1      32.769 -14.870 -21.784  0.00  0.00    +0.095 C 
ENDROOT
BRANCH   5   9
ATOM      9  O   UNL     1      35.463 -19.218 -20.543  0.00  0.00    -0.383 OA
ATOM     10  H   UNL     1      36.207 -19.802 -20.759  0.00  0.00    +0.210 HD
ENDBRANCH   5   9
BRANCH   3  12
ATOM     11  O   UNL     1      34.146 -18.763 -24.735  0.00  0.00    -0.248 OA
ATOM     12  C   UNL     1      34.702 -17.676 -24.693  0.00  0.00    +0.332 C 
BRANCH  12  13
ATOM     13  O   UNL     1      34.798 -16.827 -25.746  0.00  0.00    -0.479 OA
ATOM     14  H   UNL     1      35.515 -16.226 -25.798  0.00  0.00    +0.295 HD
ENDBRANCH  12  13
ENDBRANCH   3  12
TORSDOF 3
ENDMDL
MODEL 9
REMARK VINA RESULT:      -5.9     10.806     13.622
REMARK  Name = 65784
REMARK  3 active torsions:
REMARK  status: ('A' for Active; 'I' for Inactive)
REMARK    1  A    between atoms: C_3  and  C_12
REMARK    2  A    between atoms: C_5  and  O_9
REMARK    3  A    between atoms: C_12  and  O_13
REMARK                            x       y       z     vdW  Elec       q    Type
REMARK                         _______ _______ _______ _____ _____    ______ ____
ROOT
ATOM      1  O   UNL     1      34.994 -15.961 -20.092  0.00  0.00    -0.275 OA
ATOM      2  N   UNL     1      34.521 -16.125 -22.352  0.00  0.00    -0.269 N 
ATOM      3  C   UNL     1      34.117 -14.738 -22.537  0.00  0.00    +0.177 C 
ATOM      4  C   UNL     1      34.157 -14.526 -24.044  0.00  0.00    +0.062 C 
ATOM      5  C   UNL     1      33.838 -15.910 -24.610  0.00  0.00    +0.132 C 
ATOM      6  C   UNL     1      34.494 -16.859 -23.615  0.00  0.00    +0.123 C 
ATOM      7  C   UNL     1      34.987 -16.609 -21.140  0.00  0.00    +0.227 C 
ATOM      8  C   UNL     1      35.497 -18.029 -21.159  0.00  0.00    +0.095 C 
ENDROOT
BRANCH   5   9
ATOM      9  O   UNL     1      34.381 -16.052 -25.907  0.00  0.00    -0.383 OA
ATOM     10  H   UNL     1      35.238 -15.600 -25.950  0.00  0.00    +0.210 HD
ENDBRANCH   5   9
BRANCH   3  12
ATOM     11  O   UNL     1      32.122 -15.484 -21.394  0.00  0.00    -0.248 OA
ATOM     12  C   UNL     1      32.729 -14.606 -21.988  0.00  0.00    +0.332 C 
BRANCH  12  13
ATOM     13  O   UNL     1      32.229 -13.372 -22.243  0.00  0.00    -0.479 OA
ATOM     14  H   UNL     1      31.648 -13.242 -22.967  0.00  0.00    +0.295 HD
ENDBRANCH  12  13
ENDBRANCH   3  12
TORSDOF 3
ENDMDL
