MODEL 1
REMARK VINA RESULT:     -11.5      0.000      0.000
REMARK  Name = 72098
REMARK  4 active torsions:
REMARK  status: ('A' for Active; 'I' for Inactive)
REMARK    1  A    between atoms: N_1  and  C_9
REMARK    2  A    between atoms: N_2  and  C_19
REMARK    3  A    between atoms: C_9  and  C_12
REMARK    4  A    between atoms: C_19  and  C_23
REMARK                            x       y       z     vdW  Elec       q    Type
REMARK                         _______ _______ _______ _____ _____    ______ ____
ROOT
ATOM      1  N   UNL     1      34.904 -20.341 -20.137  0.00  0.00    +0.387 N 
ATOM      2  N   UNL     1      35.123 -18.112 -21.964  0.00  0.00    +0.390 N 
ATOM      3  C   UNL     1      36.110 -20.138 -20.950  0.00  0.00    -0.100 C 
ATOM      4  C   UNL     1      33.725 -19.799 -20.822  0.00  0.00    -0.100 C 
ATOM      5  C   UNL     1      36.302 -18.652 -21.278  0.00  0.00    -0.100 C 
ATOM      6  C   UNL     1      33.919 -18.314 -21.150  0.00  0.00    -0.100 C 
ATOM      7  H   UNL     1      35.022 -19.840 -19.257  0.00  0.00    -0.079 HD
ATOM      8  H   UNL     1      35.004 -18.613 -22.844  0.00  0.00    -0.079 HD
ENDROOT
BRANCH   1   9
ATOM      9  C   UNL     1      34.720 -21.758 -19.828  0.00  0.00    -0.050 C 
BRANCH   9  12
ATOM     10  O   UNL     1      34.100 -23.722 -15.342  0.00  0.00    -0.435 OA
ATOM     11  O   UNL     1      36.305 -23.066 -14.623  0.00  0.00    -0.435 OA
ATOM     12  C   UNL     1      35.180 -22.093 -18.435  0.00  0.00    -0.040 C 
ATOM     13  C   UNL     1      34.321 -22.779 -17.582  0.00  0.00    +0.034 C 
ATOM     14  C   UNL     1      36.461 -21.708 -18.028  0.00  0.00    -0.003 C 
ATOM     15  C   UNL     1      34.786 -23.065 -16.315  0.00  0.00    +0.176 C 
ATOM     16  C   UNL     1      36.909 -22.009 -16.739  0.00  0.00    +0.040 C 
ATOM     17  C   UNL     1      36.046 -22.690 -15.905  0.00  0.00    +0.176 C 
ATOM     18  C   UNL     1      35.068 -23.721 -14.272  0.00  0.00    +0.429 C 
ENDBRANCH   9  12
ENDBRANCH   1   9
BRANCH   2  19
ATOM     19  C   UNL     1      35.308 -16.695 -22.275  0.00  0.00    +0.011 C 
BRANCH  19  23
ATOM     20  S   UNL     1      33.777 -12.110 -23.616  0.00  0.00    -0.084 S 
ATOM     21  O   UNL     1      34.637 -17.247 -24.456  0.00  0.00    -0.276 OA
ATOM     22  N   UNL     1      33.777 -15.224 -23.598  0.00  0.00    -0.238 N 
ATOM     23  C   UNL     1      34.505 -16.434 -23.535  0.00  0.00    +0.212 C 
ATOM     24  C   UNL     1      33.237 -14.565 -22.433  0.00  0.00    +0.064 C 
ATOM     25  C   UNL     1      33.505 -14.587 -24.869  0.00  0.00    +0.064 C 
ATOM     26  C   UNL     1      33.168 -13.167 -22.328  0.00  0.00    +0.043 C 
ATOM     27  C   UNL     1      33.461 -13.185 -24.997  0.00  0.00    +0.043 C 
ATOM     28  C   UNL     1      32.691 -15.328 -21.385  0.00  0.00    +0.016 C 
ATOM     29  C   UNL     1      33.270 -15.350 -26.028  0.00  0.00    +0.016 C 
ATOM     30  C   UNL     1      32.635 -12.563 -21.178  0.00  0.00    +0.008 C 
ATOM     31  C   UNL     1      33.217 -12.584 -26.242  0.00  0.00    +0.008 C 
ATOM     32  C   UNL     1      32.152 -14.725 -20.246  0.00  0.00    +0.001 C 
ATOM     33  C   UNL     1      33.021 -14.747 -27.264  0.00  0.00    +0.001 C 
ATOM     34  C   UNL     1      32.133 -13.340 -20.139  0.00  0.00    +0.001 C 
ATOM     35  C   UNL     1      33.000 -13.363 -27.373  0.00  0.00    +0.001 C 
ENDBRANCH  19  23
ENDBRANCH   2  19
TORSDOF 4
ENDMDL
MODEL 2
REMARK VINA RESULT:     -10.2      3.698     10.844
REMARK  Name = 72098
REMARK  4 active torsions:
REMARK  status: ('A' for Active; 'I' for Inactive)
REMARK    1  A    between atoms: N_1  and  C_9
REMARK    2  A    between atoms: N_2  and  C_19
REMARK    3  A    between atoms: C_9  and  C_12
REMARK    4  A    between atoms: C_19  and  C_23
REMARK                            x       y       z     vdW  Elec       q    Type
REMARK                         _______ _______ _______ _____ _____    ______ ____
ROOT
ATOM      1  N   UNL     1      35.200 -19.762 -20.848  0.00  0.00    +0.387 N 
ATOM      2  N   UNL     1      35.004 -21.937 -18.954  0.00  0.00    +0.390 N 
ATOM      3  C   UNL     1      33.936 -20.482 -20.642  0.00  0.00    -0.100 C 
ATOM      4  C   UNL     1      36.342 -20.643 -20.578  0.00  0.00    -0.100 C 
ATOM      5  C   UNL     1      33.861 -21.056 -19.222  0.00  0.00    -0.100 C 
ATOM      6  C   UNL     1      36.266 -21.216 -19.159  0.00  0.00    -0.100 C 
ATOM      7  H   UNL     1      35.234 -18.981 -20.194  0.00  0.00    -0.079 HD
ATOM      8  H   UNL     1      34.970 -22.717 -19.609  0.00  0.00    -0.079 HD
ENDROOT
BRANCH   1   9
ATOM      9  C   UNL     1      35.271 -19.219 -22.203  0.00  0.00    -0.050 C 
BRANCH   9  12
ATOM     10  O   UNL     1      33.964 -15.056 -24.512  0.00  0.00    -0.435 OA
ATOM     11  O   UNL     1      34.009 -13.773 -22.472  0.00  0.00    -0.435 OA
ATOM     12  C   UNL     1      34.937 -17.751 -22.238  0.00  0.00    -0.040 C 
ATOM     13  C   UNL     1      34.606 -17.158 -23.452  0.00  0.00    +0.034 C 
ATOM     14  C   UNL     1      34.966 -17.016 -21.048  0.00  0.00    -0.003 C 
ATOM     15  C   UNL     1      34.307 -15.812 -23.435  0.00  0.00    +0.176 C 
ATOM     16  C   UNL     1      34.658 -15.653 -21.057  0.00  0.00    +0.040 C 
ATOM     17  C   UNL     1      34.333 -15.080 -22.269  0.00  0.00    +0.176 C 
ATOM     18  C   UNL     1      33.775 -13.765 -23.896  0.00  0.00    +0.429 C 
ENDBRANCH   9  12
ENDBRANCH   1   9
BRANCH   2  19
ATOM     19  C   UNL     1      34.931 -22.483 -17.599  0.00  0.00    +0.011 C 
BRANCH  19  23
ATOM     20  S   UNL     1      32.472 -22.862 -13.243  0.00  0.00    -0.084 S 
ATOM     21  O   UNL     1      32.863 -23.134 -18.497  0.00  0.00    -0.276 OA
ATOM     22  N   UNL     1      33.164 -23.565 -16.198  0.00  0.00    -0.238 N 
ATOM     23  C   UNL     1      33.565 -23.132 -17.482  0.00  0.00    +0.212 C 
ATOM     24  C   UNL     1      34.093 -24.008 -15.186  0.00  0.00    +0.064 C 
ATOM     25  C   UNL     1      31.763 -23.613 -15.835  0.00  0.00    +0.064 C 
ATOM     26  C   UNL     1      33.885 -23.766 -13.819  0.00  0.00    +0.043 C 
ATOM     27  C   UNL     1      31.331 -23.333 -14.524  0.00  0.00    +0.043 C 
ATOM     28  C   UNL     1      35.218 -24.771 -15.553  0.00  0.00    +0.016 C 
ATOM     29  C   UNL     1      30.779 -23.947 -16.784  0.00  0.00    +0.016 C 
ATOM     30  C   UNL     1      34.813 -24.215 -12.866  0.00  0.00    +0.008 C 
ATOM     31  C   UNL     1      29.966 -23.363 -14.195  0.00  0.00    +0.008 C 
ATOM     32  C   UNL     1      36.134 -25.225 -14.601  0.00  0.00    +0.001 C 
ATOM     33  C   UNL     1      29.422 -23.982 -16.449  0.00  0.00    +0.001 C 
ATOM     34  C   UNL     1      35.936 -24.938 -13.257  0.00  0.00    +0.001 C 
ATOM     35  C   UNL     1      29.015 -23.685 -15.157  0.00  0.00    +0.001 C 
ENDBRANCH  19  23
ENDBRANCH   2  19
TORSDOF 4
ENDMDL
MODEL 3
REMARK VINA RESULT:     -10.0      4.228      7.447
REMARK  Name = 72098
REMARK  4 active torsions:
REMARK  status: ('A' for Active; 'I' for Inactive)
REMARK    1  A    between atoms: N_1  and  C_9
REMARK    2  A    between atoms: N_2  and  C_19
REMARK    3  A    between atoms: C_9  and  C_12
REMARK    4  A    between atoms: C_19  and  C_23
REMARK                            x       y       z     vdW  Elec       q    Type
REMARK                         _______ _______ _______ _____ _____    ______ ____
ROOT
ATOM      1  N   UNL     1      33.953 -14.454 -24.917  0.00  0.00    +0.387 N 
ATOM      2  N   UNL     1      33.532 -11.752 -23.978  0.00  0.00    +0.390 N 
ATOM      3  C   UNL     1      33.679 -13.356 -25.853  0.00  0.00    -0.100 C 
ATOM      4  C   UNL     1      33.327 -14.188 -23.617  0.00  0.00    -0.100 C 
ATOM      5  C   UNL     1      34.159 -12.018 -25.279  0.00  0.00    -0.100 C 
ATOM      6  C   UNL     1      33.808 -12.850 -23.044  0.00  0.00    -0.100 C 
ATOM      7  H   UNL     1      34.961 -14.517 -24.782  0.00  0.00    -0.079 HD
ATOM      8  H   UNL     1      32.524 -11.691 -24.114  0.00  0.00    -0.079 HD
ENDROOT
BRANCH   1   9
ATOM      9  C   UNL     1      33.491 -15.728 -25.465  0.00  0.00    -0.050 C 
BRANCH   9  12
ATOM     10  O   UNL     1      35.240 -17.823 -21.351  0.00  0.00    -0.435 OA
ATOM     11  O   UNL     1      35.387 -19.996 -22.382  0.00  0.00    -0.435 OA
ATOM     12  C   UNL     1      33.996 -16.899 -24.665  0.00  0.00    -0.040 C 
ATOM     13  C   UNL     1      34.371 -16.707 -23.340  0.00  0.00    +0.034 C 
ATOM     14  C   UNL     1      34.077 -18.156 -25.273  0.00  0.00    -0.003 C 
ATOM     15  C   UNL     1      34.828 -17.808 -22.647  0.00  0.00    +0.176 C 
ATOM     16  C   UNL     1      34.543 -19.257 -24.550  0.00  0.00    +0.040 C 
ATOM     17  C   UNL     1      34.911 -19.050 -23.236  0.00  0.00    +0.176 C 
ATOM     18  C   UNL     1      35.592 -19.212 -21.188  0.00  0.00    +0.429 C 
ENDBRANCH   9  12
ENDBRANCH   1   9
BRANCH   2  19
ATOM     19  C   UNL     1      33.993 -10.477 -23.432  0.00  0.00    +0.011 C 
BRANCH  19  23
ATOM     20  S   UNL     1      32.316  -6.988 -20.241  0.00  0.00    -0.084 S 
ATOM     21  O   UNL     1      32.848  -9.173 -25.013  0.00  0.00    -0.276 OA
ATOM     22  N   UNL     1      32.245  -8.817 -22.760  0.00  0.00    -0.238 N 
ATOM     23  C   UNL     1      32.940  -9.453 -23.814  0.00  0.00    +0.212 C 
ATOM     24  C   UNL     1      31.989  -9.448 -21.488  0.00  0.00    +0.064 C 
ATOM     25  C   UNL     1      31.717  -7.479 -22.921  0.00  0.00    +0.064 C 
ATOM     26  C   UNL     1      31.979  -8.728 -20.283  0.00  0.00    +0.043 C 
ATOM     27  C   UNL     1      31.680  -6.568 -21.848  0.00  0.00    +0.043 C 
ATOM     28  C   UNL     1      31.667 -10.817 -21.435  0.00  0.00    +0.016 C 
ATOM     29  C   UNL     1      31.216  -7.040 -24.161  0.00  0.00    +0.016 C 
ATOM     30  C   UNL     1      31.724  -9.379 -19.065  0.00  0.00    +0.008 C 
ATOM     31  C   UNL     1      31.185  -5.265 -22.027  0.00  0.00    +0.008 C 
ATOM     32  C   UNL     1      31.405 -11.460 -20.224  0.00  0.00    +0.001 C 
ATOM     33  C   UNL     1      30.717  -5.746 -24.332  0.00  0.00    +0.001 C 
ATOM     34  C   UNL     1      31.444 -10.741 -19.036  0.00  0.00    +0.001 C 
ATOM     35  C   UNL     1      30.706  -4.856 -23.267  0.00  0.00    +0.001 C 
ENDBRANCH  19  23
ENDBRANCH   2  19
TORSDOF 4
ENDMDL
MODEL 4
REMARK VINA RESULT:      -9.5      2.368      3.970
REMARK  Name = 72098
REMARK  4 active torsions:
REMARK  status: ('A' for Active; 'I' for Inactive)
REMARK    1  A    between atoms: N_1  and  C_9
REMARK    2  A    between atoms: N_2  and  C_19
REMARK    3  A    between atoms: C_9  and  C_12
REMARK    4  A    between atoms: C_19  and  C_23
REMARK                            x       y       z     vdW  Elec       q    Type
REMARK                         _______ _______ _______ _____ _____    ______ ____
ROOT
ATOM      1  N   UNL     1      34.547 -17.399 -21.977  0.00  0.00    +0.387 N 
ATOM      2  N   UNL     1      33.690 -14.645 -21.788  0.00  0.00    +0.390 N 
ATOM      3  C   UNL     1      33.901 -16.884 -20.763  0.00  0.00    -0.100 C 
ATOM      4  C   UNL     1      35.272 -16.327 -22.667  0.00  0.00    -0.100 C 
ATOM      5  C   UNL     1      32.963 -15.718 -21.098  0.00  0.00    -0.100 C 
ATOM      6  C   UNL     1      34.334 -15.161 -23.001  0.00  0.00    -0.100 C 
ATOM      7  H   UNL     1      33.822 -17.751 -22.602  0.00  0.00    -0.079 HD
ATOM      8  H   UNL     1      34.415 -14.294 -21.163  0.00  0.00    -0.079 HD
ENDROOT
BRANCH   1   9
ATOM      9  C   UNL     1      35.443 -18.509 -21.656  0.00  0.00    -0.050 C 
BRANCH   9  12
ATOM     10  O   UNL     1      35.345 -22.357 -18.565  0.00  0.00    -0.435 OA
ATOM     11  O   UNL     1      32.952 -22.585 -18.741  0.00  0.00    -0.435 OA
ATOM     12  C   UNL     1      34.740 -19.594 -20.885  0.00  0.00    -0.040 C 
ATOM     13  C   UNL     1      35.485 -20.450 -20.082  0.00  0.00    +0.034 C 
ATOM     14  C   UNL     1      33.350 -19.717 -20.995  0.00  0.00    -0.003 C 
ATOM     15  C   UNL     1      34.797 -21.428 -19.395  0.00  0.00    +0.176 C 
ATOM     16  C   UNL     1      32.677 -20.717 -20.288  0.00  0.00    +0.040 C 
ATOM     17  C   UNL     1      33.430 -21.558 -19.496  0.00  0.00    +0.176 C 
ATOM     18  C   UNL     1      34.170 -23.086 -18.153  0.00  0.00    +0.429 C 
ENDBRANCH   9  12
ENDBRANCH   1   9
BRANCH   2  19
ATOM     19  C   UNL     1      32.794 -13.535 -22.107  0.00  0.00    +0.011 C 
BRANCH  19  23
ATOM     20  S   UNL     1      35.158  -9.527 -23.981  0.00  0.00    -0.084 S 
ATOM     21  O   UNL     1      32.910 -14.287 -24.327  0.00  0.00    -0.276 OA
ATOM     22  N   UNL     1      33.228 -11.971 -24.011  0.00  0.00    -0.238 N 
ATOM     23  C   UNL     1      32.942 -13.292 -23.597  0.00  0.00    +0.212 C 
ATOM     24  C   UNL     1      32.791 -10.802 -23.285  0.00  0.00    +0.064 C 
ATOM     25  C   UNL     1      33.967 -11.719 -25.230  0.00  0.00    +0.064 C 
ATOM     26  C   UNL     1      33.564  -9.634 -23.210  0.00  0.00    +0.043 C 
ATOM     27  C   UNL     1      34.855 -10.632 -25.342  0.00  0.00    +0.043 C 
ATOM     28  C   UNL     1      31.519 -10.786 -22.682  0.00  0.00    +0.016 C 
ATOM     29  C   UNL     1      33.820 -12.554 -26.354  0.00  0.00    +0.016 C 
ATOM     30  C   UNL     1      33.103  -8.517 -22.495  0.00  0.00    +0.008 C 
ATOM     31  C   UNL     1      35.581 -10.416 -26.525  0.00  0.00    +0.008 C 
ATOM     32  C   UNL     1      31.059  -9.671 -21.978  0.00  0.00    +0.001 C 
ATOM     33  C   UNL     1      34.539 -12.329 -27.531  0.00  0.00    +0.001 C 
ATOM     34  C   UNL     1      31.856  -8.538 -21.877  0.00  0.00    +0.001 C 
ATOM     35  C   UNL     1      35.424 -11.264 -27.615  0.00  0.00    +0.001 C 
ENDBRANCH  19  23
ENDBRANCH   2  19
TORSDOF 4
ENDMDL
MODEL 5
REMARK VINA RESULT:      -9.1      5.284      8.985
REMARK  Name = 72098
REMARK  4 active torsions:
REMARK  status: ('A' for Active; 'I' for Inactive)
REMARK    1  A    between atoms: N_1  and  C_9
REMARK    2  A    between atoms: N_2  and  C_19
REMARK    3  A    between atoms: C_9  and  C_12
REMARK    4  A    between atoms: C_19  and  C_23
REMARK                            x       y       z     vdW  Elec       q    Type
REMARK                         _______ _______ _______ _____ _____    ______ ____
ROOT
ATOM      1  N   UNL     1      33.772 -13.075 -24.329  0.00  0.00    +0.387 N 
ATOM      2  N   UNL     1      33.881 -10.260 -24.977  0.00  0.00    +0.390 N 
ATOM      3  C   UNL     1      33.825 -12.615 -25.723  0.00  0.00    -0.100 C 
ATOM      4  C   UNL     1      33.114 -12.073 -23.483  0.00  0.00    -0.100 C 
ATOM      5  C   UNL     1      34.540 -11.262 -25.823  0.00  0.00    -0.100 C 
ATOM      6  C   UNL     1      33.829 -10.720 -23.584  0.00  0.00    -0.100 C 
ATOM      7  H   UNL     1      34.727 -13.201 -23.996  0.00  0.00    -0.079 HD
ATOM      8  H   UNL     1      32.926 -10.135 -25.310  0.00  0.00    -0.079 HD
ENDROOT
BRANCH   1   9
ATOM      9  C   UNL     1      33.088 -14.363 -24.235  0.00  0.00    -0.050 C 
BRANCH   9  12
ATOM     10  O   UNL     1      35.931 -18.182 -22.930  0.00  0.00    -0.435 OA
ATOM     11  O   UNL     1      35.554 -17.809 -20.579  0.00  0.00    -0.435 OA
ATOM     12  C   UNL     1      33.736 -15.271 -23.223  0.00  0.00    -0.040 C 
ATOM     13  C   UNL     1      34.544 -16.313 -23.664  0.00  0.00    +0.034 C 
ATOM     14  C   UNL     1      33.510 -15.045 -21.861  0.00  0.00    -0.003 C 
ATOM     15  C   UNL     1      35.116 -17.117 -22.701  0.00  0.00    +0.176 C 
ATOM     16  C   UNL     1      34.101 -15.874 -20.905  0.00  0.00    +0.040 C 
ATOM     17  C   UNL     1      34.900 -16.904 -21.358  0.00  0.00    +0.176 C 
ATOM     18  C   UNL     1      36.206 -18.615 -21.581  0.00  0.00    +0.429 C 
ENDBRANCH   9  12
ENDBRANCH   1   9
BRANCH   2  19
ATOM     19  C   UNL     1      34.564  -8.971 -25.073  0.00  0.00    +0.011 C 
BRANCH  19  23
ATOM     20  S   UNL     1      30.955  -5.488 -24.960  0.00  0.00    -0.084 S 
ATOM     21  O   UNL     1      34.443  -8.763 -22.738  0.00  0.00    -0.276 OA
ATOM     22  N   UNL     1      33.499  -6.991 -23.976  0.00  0.00    -0.238 N 
ATOM     23  C   UNL     1      34.198  -8.208 -23.813  0.00  0.00    +0.212 C 
ATOM     24  C   UNL     1      33.649  -6.140 -25.132  0.00  0.00    +0.064 C 
ATOM     25  C   UNL     1      32.597  -6.511 -22.950  0.00  0.00    +0.064 C 
ATOM     26  C   UNL     1      32.581  -5.400 -25.662  0.00  0.00    +0.043 C 
ATOM     27  C   UNL     1      31.424  -5.802 -23.273  0.00  0.00    +0.043 C 
ATOM     28  C   UNL     1      34.916  -5.977 -25.723  0.00  0.00    +0.016 C 
ATOM     29  C   UNL     1      32.864  -6.734 -21.586  0.00  0.00    +0.016 C 
ATOM     30  C   UNL     1      32.768  -4.583 -26.788  0.00  0.00    +0.008 C 
ATOM     31  C   UNL     1      30.548  -5.363 -22.266  0.00  0.00    +0.008 C 
ATOM     32  C   UNL     1      35.101  -5.156 -26.838  0.00  0.00    +0.001 C 
ATOM     33  C   UNL     1      31.993  -6.288 -20.587  0.00  0.00    +0.001 C 
ATOM     34  C   UNL     1      34.024  -4.466 -27.377  0.00  0.00    +0.001 C 
ATOM     35  C   UNL     1      30.833  -5.608 -20.927  0.00  0.00    +0.001 C 
ENDBRANCH  19  23
ENDBRANCH   2  19
TORSDOF 4
ENDMDL
MODEL 6
REMARK VINA RESULT:      -9.0      3.709     10.797
REMARK  Name = 72098
REMARK  4 active torsions:
REMARK  status: ('A' for Active; 'I' for Inactive)
REMARK    1  A    between atoms: N_1  and  C_9
REMARK    2  A    between atoms: N_2  and  C_19
REMARK    3  A    between atoms: C_9  and  C_12
REMARK    4  A    between atoms: C_19  and  C_23
REMARK                            x       y       z     vdW  Elec       q    Type
REMARK                         _______ _______ _______ _____ _____    ______ ____
ROOT
ATOM      1  N   UNL     1      35.427 -19.830 -20.510  0.00  0.00    +0.387 N 
ATOM      2  N   UNL     1      34.328 -22.332 -19.570  0.00  0.00    +0.390 N 
ATOM      3  C   UNL     1      34.090 -20.276 -20.920  0.00  0.00    -0.100 C 
ATOM      4  C   UNL     1      36.289 -20.983 -20.229  0.00  0.00    -0.100 C 
ATOM      5  C   UNL     1      33.464 -21.178 -19.849  0.00  0.00    -0.100 C 
ATOM      6  C   UNL     1      35.663 -21.884 -19.159  0.00  0.00    -0.100 C 
ATOM      7  H   UNL     1      35.335 -19.282 -19.655  0.00  0.00    -0.079 HD
ATOM      8  H   UNL     1      34.420 -22.879 -20.425  0.00  0.00    -0.079 HD
ENDROOT
BRANCH   1   9
ATOM      9  C   UNL     1      36.024 -18.973 -21.533  0.00  0.00    -0.050 C 
BRANCH   9  12
ATOM     10  O   UNL     1      33.714 -15.561 -24.252  0.00  0.00    -0.435 OA
ATOM     11  O   UNL     1      33.169 -14.225 -22.322  0.00  0.00    -0.435 OA
ATOM     12  C   UNL     1      35.256 -17.689 -21.708  0.00  0.00    -0.040 C 
ATOM     13  C   UNL     1      34.873 -17.295 -22.985  0.00  0.00    +0.034 C 
ATOM     14  C   UNL     1      34.945 -16.922 -20.580  0.00  0.00    -0.003 C 
ATOM     15  C   UNL     1      34.172 -16.113 -23.096  0.00  0.00    +0.176 C 
ATOM     16  C   UNL     1      34.233 -15.727 -20.719  0.00  0.00    +0.040 C 
ATOM     17  C   UNL     1      33.861 -15.350 -21.993  0.00  0.00    +0.176 C 
ATOM     18  C   UNL     1      33.078 -14.365 -23.754  0.00  0.00    +0.429 C 
ENDBRANCH   9  12
ENDBRANCH   1   9
BRANCH   2  19
ATOM     19  C   UNL     1      33.730 -23.191 -18.548  0.00  0.00    +0.011 C 
BRANCH  19  23
ATOM     20  S   UNL     1      32.538 -25.335 -14.173  0.00  0.00    -0.084 S 
ATOM     21  O   UNL     1      35.552 -22.364 -17.321  0.00  0.00    -0.276 OA
ATOM     22  N   UNL     1      33.730 -23.152 -16.047  0.00  0.00    -0.238 N 
ATOM     23  C   UNL     1      34.409 -22.823 -17.242  0.00  0.00    +0.212 C 
ATOM     24  C   UNL     1      32.292 -23.209 -15.943  0.00  0.00    +0.064 C 
ATOM     25  C   UNL     1      34.464 -23.427 -14.829  0.00  0.00    +0.064 C 
ATOM     26  C   UNL     1      31.636 -24.138 -15.121  0.00  0.00    +0.043 C 
ATOM     27  C   UNL     1      34.012 -24.380 -13.896  0.00  0.00    +0.043 C 
ATOM     28  C   UNL     1      31.502 -22.267 -16.627  0.00  0.00    +0.016 C 
ATOM     29  C   UNL     1      35.658 -22.745 -14.531  0.00  0.00    +0.016 C 
ATOM     30  C   UNL     1      30.234 -24.161 -15.047  0.00  0.00    +0.008 C 
ATOM     31  C   UNL     1      34.748 -24.650 -12.730  0.00  0.00    +0.008 C 
ATOM     32  C   UNL     1      30.107 -22.285 -16.545  0.00  0.00    +0.001 C 
ATOM     33  C   UNL     1      36.383 -23.011 -13.366  0.00  0.00    +0.001 C 
ATOM     34  C   UNL     1      29.473 -23.240 -15.761  0.00  0.00    +0.001 C 
ATOM     35  C   UNL     1      35.931 -23.968 -12.468  0.00  0.00    +0.001 C 
ENDBRANCH  19  23
ENDBRANCH   2  19
TORSDOF 4
ENDMDL
MODEL 7
REMARK VINA RESULT:      -8.9      3.216      6.142
REMARK  Name = 72098
REMARK  4 active torsions:
REMARK  status: ('A' for Active; 'I' for Inactive)
REMARK    1  A    between atoms: N_1  and  C_9
REMARK    2  A    between atoms: N_2  and  C_19
REMARK    3  A    between atoms: C_9  and  C_12
REMARK    4  A    between atoms: C_19  and  C_23
REMARK                            x       y       z     vdW  Elec       q    Type
REMARK                         _______ _______ _______ _____ _____    ______ ____
ROOT
ATOM      1  N   UNL     1      34.616 -16.411 -24.759  0.00  0.00    +0.387 N 
ATOM      2  N   UNL     1      32.614 -14.382 -24.279  0.00  0.00    +0.390 N 
ATOM      3  C   UNL     1      33.526 -16.174 -25.715  0.00  0.00    -0.100 C 
ATOM      4  C   UNL     1      34.186 -16.072 -23.398  0.00  0.00    -0.100 C 
ATOM      5  C   UNL     1      33.044 -14.720 -25.641  0.00  0.00    -0.100 C 
ATOM      6  C   UNL     1      33.704 -14.618 -23.325  0.00  0.00    -0.100 C 
ATOM      7  H   UNL     1      35.399 -15.809 -25.009  0.00  0.00    -0.079 HD
ATOM      8  H   UNL     1      31.831 -14.984 -24.029  0.00  0.00    -0.079 HD
ENDROOT
BRANCH   1   9
ATOM      9  C   UNL     1      35.072 -17.798 -24.829  0.00  0.00    -0.050 C 
BRANCH   9  12
ATOM     10  O   UNL     1      33.272 -20.422 -21.055  0.00  0.00    -0.435 OA
ATOM     11  O   UNL     1      35.297 -20.184 -19.772  0.00  0.00    -0.435 OA
ATOM     12  C   UNL     1      35.168 -18.427 -23.465  0.00  0.00    -0.040 C 
ATOM     13  C   UNL     1      34.082 -19.138 -22.966  0.00  0.00    +0.034 C 
ATOM     14  C   UNL     1      36.349 -18.283 -22.728  0.00  0.00    -0.003 C 
ATOM     15  C   UNL     1      34.216 -19.696 -21.712  0.00  0.00    +0.176 C 
ATOM     16  C   UNL     1      36.460 -18.858 -21.460  0.00  0.00    +0.040 C 
ATOM     17  C   UNL     1      35.374 -19.560 -20.979  0.00  0.00    +0.176 C 
ATOM     18  C   UNL     1      33.963 -20.729 -19.827  0.00  0.00    +0.429 C 
ENDBRANCH   9  12
ENDBRANCH   1   9
BRANCH   2  19
ATOM     19  C   UNL     1      32.155 -12.995 -24.210  0.00  0.00    +0.011 C 
BRANCH  19  23
ATOM     20  S   UNL     1      31.900  -8.217 -22.702  0.00  0.00    -0.084 S 
ATOM     21  O   UNL     1      31.954 -13.433 -21.912  0.00  0.00    -0.276 OA
ATOM     22  N   UNL     1      32.612 -11.241 -22.485  0.00  0.00    -0.238 N 
ATOM     23  C   UNL     1      32.272 -12.587 -22.753  0.00  0.00    +0.212 C 
ATOM     24  C   UNL     1      33.427 -10.440 -23.367  0.00  0.00    +0.064 C 
ATOM     25  C   UNL     1      32.173 -10.594 -21.267  0.00  0.00    +0.064 C 
ATOM     26  C   UNL     1      33.215  -9.063 -23.539  0.00  0.00    +0.043 C 
ATOM     27  C   UNL     1      31.841  -9.226 -21.237  0.00  0.00    +0.043 C 
ATOM     28  C   UNL     1      34.520 -11.023 -24.035  0.00  0.00    +0.016 C 
ATOM     29  C   UNL     1      32.065 -11.312 -20.061  0.00  0.00    +0.016 C 
ATOM     30  C   UNL     1      34.030  -8.319 -24.406  0.00  0.00    +0.008 C 
ATOM     31  C   UNL     1      31.396  -8.619 -20.052  0.00  0.00    +0.008 C 
ATOM     32  C   UNL     1      35.335 -10.278 -24.890  0.00  0.00    +0.001 C 
ATOM     33  C   UNL     1      31.629 -10.702 -18.882  0.00  0.00    +0.001 C 
ATOM     34  C   UNL     1      35.083  -8.926 -25.083  0.00  0.00    +0.001 C 
ATOM     35  C   UNL     1      31.288  -9.356 -18.878  0.00  0.00    +0.001 C 
ENDBRANCH  19  23
ENDBRANCH   2  19
TORSDOF 4
ENDMDL
MODEL 8
REMARK VINA RESULT:      -8.8      6.535     10.409
REMARK  Name = 72098
REMARK  4 active torsions:
REMARK  status: ('A' for Active; 'I' for Inactive)
REMARK    1  A    between atoms: N_1  and  C_9
REMARK    2  A    between atoms: N_2  and  C_19
REMARK    3  A    between atoms: C_9  and  C_12
REMARK    4  A    between atoms: C_19  and  C_23
REMARK                            x       y       z     vdW  Elec       q    Type
REMARK                         _______ _______ _______ _____ _____    ______ ____
ROOT
ATOM      1  N   UNL     1      31.989 -11.776 -22.365  0.00  0.00    +0.387 N 
ATOM      2  N   UNL     1      31.952  -9.049 -23.325  0.00  0.00    +0.390 N 
ATOM      3  C   UNL     1      31.060 -10.784 -21.807  0.00  0.00    -0.100 C 
ATOM      4  C   UNL     1      33.210 -11.120 -22.846  0.00  0.00    -0.100 C 
ATOM      5  C   UNL     1      30.729  -9.704 -22.844  0.00  0.00    -0.100 C 
ATOM      6  C   UNL     1      32.878 -10.041 -23.883  0.00  0.00    -0.100 C 
ATOM      7  H   UNL     1      31.535 -12.231 -23.156  0.00  0.00    -0.079 HD
ATOM      8  H   UNL     1      32.406  -8.594 -22.533  0.00  0.00    -0.079 HD
ENDROOT
BRANCH   1   9
ATOM      9  C   UNL     1      32.306 -12.802 -21.375  0.00  0.00    -0.050 C 
BRANCH   9  12
ATOM     10  O   UNL     1      33.685 -15.662 -25.156  0.00  0.00    -0.435 OA
ATOM     11  O   UNL     1      35.074 -17.045 -23.754  0.00  0.00    -0.435 OA
ATOM     12  C   UNL     1      33.066 -13.952 -21.981  0.00  0.00    -0.040 C 
ATOM     13  C   UNL     1      32.952 -14.198 -23.345  0.00  0.00    +0.034 C 
ATOM     14  C   UNL     1      33.870 -14.748 -21.158  0.00  0.00    -0.003 C 
ATOM     15  C   UNL     1      33.666 -15.262 -23.856  0.00  0.00    +0.176 C 
ATOM     16  C   UNL     1      34.583 -15.820 -21.700  0.00  0.00    +0.040 C 
ATOM     17  C   UNL     1      34.460 -16.052 -23.055  0.00  0.00    +0.176 C 
ATOM     18  C   UNL     1      34.580 -16.791 -25.085  0.00  0.00    +0.429 C 
ENDBRANCH   9  12
ENDBRANCH   1   9
BRANCH   2  19
ATOM     19  C   UNL     1      31.634  -8.020 -24.314  0.00  0.00    +0.011 C 
BRANCH  19  23
ATOM     20  S   UNL     1      31.649  -3.516 -26.523  0.00  0.00    -0.084 S 
ATOM     21  O   UNL     1      30.891  -6.791 -22.457  0.00  0.00    -0.276 OA
ATOM     22  N   UNL     1      31.921  -5.539 -24.171  0.00  0.00    -0.238 N 
ATOM     23  C   UNL     1      31.484  -6.725 -23.538  0.00  0.00    +0.212 C 
ATOM     24  C   UNL     1      32.998  -5.505 -25.131  0.00  0.00    +0.064 C 
ATOM     25  C   UNL     1      31.313  -4.263 -23.857  0.00  0.00    +0.064 C 
ATOM     26  C   UNL     1      32.999  -4.627 -26.226  0.00  0.00    +0.043 C 
ATOM     27  C   UNL     1      31.153  -3.262 -24.834  0.00  0.00    +0.043 C 
ATOM     28  C   UNL     1      34.129  -6.322 -24.945  0.00  0.00    +0.016 C 
ATOM     29  C   UNL     1      30.861  -3.975 -22.555  0.00  0.00    +0.016 C 
ATOM     30  C   UNL     1      34.067  -4.625 -27.137  0.00  0.00    +0.008 C 
ATOM     31  C   UNL     1      30.541  -2.038 -24.517  0.00  0.00    +0.008 C 
ATOM     32  C   UNL     1      35.195  -6.310 -25.848  0.00  0.00    +0.001 C 
ATOM     33  C   UNL     1      30.259  -2.753 -22.243  0.00  0.00    +0.001 C 
ATOM     34  C   UNL     1      35.158  -5.467 -26.951  0.00  0.00    +0.001 C 
ATOM     35  C   UNL     1      30.094  -1.786 -23.224  0.00  0.00    +0.001 C 
ENDBRANCH  19  23
ENDBRANCH   2  19
TORSDOF 4
ENDMDL
