MODEL 1
REMARK VINA RESULT:      -6.1      0.000      0.000
REMARK  Name = 6857384
REMARK  5 active torsions:
REMARK  status: ('A' for Active; 'I' for Inactive)
REMARK    1  A    between atoms: C_2  and  O_6
REMARK    2  A    between atoms: C_3  and  C_12
REMARK    3  A    between atoms: C_4  and  O_8
REMARK    4  A    between atoms: C_5  and  O_10
REMARK    5  A    between atoms: C_12  and  O_13
REMARK                            x       y       z     vdW  Elec       q    Type
REMARK                         _______ _______ _______ _____ _____    ______ ____
ROOT
ATOM      1  O   UNL     1      38.351 -26.809 -14.180  0.00  0.00    -0.326 OA
ATOM      2  C   UNL     1      37.934 -24.580 -14.908  0.00  0.00    +0.172 C 
ATOM      3  C   UNL     1      38.892 -25.473 -14.128  0.00  0.00    +0.176 C 
ATOM      4  C   UNL     1      36.626 -25.314 -14.717  0.00  0.00    +0.196 C 
ATOM      5  C   UNL     1      37.074 -26.761 -14.837  0.00  0.00    +0.262 C 
ENDROOT
BRANCH   2   6
ATOM      6  O   UNL     1      37.895 -23.278 -14.356  0.00  0.00    -0.379 OA
ATOM      7  H   UNL     1      37.074 -23.164 -13.852  0.00  0.00    +0.211 HD
ENDBRANCH   2   6
BRANCH   4   8
ATOM      8  O   UNL     1      35.665 -24.946 -15.684  0.00  0.00    -0.378 OA
ATOM      9  H   UNL     1      36.113 -24.588 -16.466  0.00  0.00    +0.211 HD
ENDBRANCH   4   8
BRANCH   5  10
ATOM     10  O   UNL     1      37.212 -27.124 -16.208  0.00  0.00    -0.358 OA
ATOM     11  H   UNL     1      38.040 -26.759 -16.557  0.00  0.00    +0.213 HD
ENDBRANCH   5  10
BRANCH   3  12
ATOM     12  C   UNL     1      40.299 -25.475 -14.699  0.00  0.00    +0.169 C 
BRANCH  12  13
ATOM     13  O   UNL     1      40.242 -25.905 -16.049  0.00  0.00    -0.379 OA
ATOM     14  H   UNL     1      40.415 -26.859 -16.091  0.00  0.00    +0.211 HD
ENDBRANCH  12  13
ENDBRANCH   3  12
TORSDOF 5
ENDMDL
MODEL 2
REMARK VINA RESULT:      -5.9      1.916      3.276
REMARK  Name = 6857384
REMARK  5 active torsions:
REMARK  status: ('A' for Active; 'I' for Inactive)
REMARK    1  A    between atoms: C_2  and  O_6
REMARK    2  A    between atoms: C_3  and  C_12
REMARK    3  A    between atoms: C_4  and  O_8
REMARK    4  A    between atoms: C_5  and  O_10
REMARK    5  A    between atoms: C_12  and  O_13
REMARK                            x       y       z     vdW  Elec       q    Type
REMARK                         _______ _______ _______ _____ _____    ______ ____
ROOT
ATOM      1  O   UNL     1      39.434 -24.591 -13.384  0.00  0.00    -0.326 OA
ATOM      2  C   UNL     1      37.362 -25.756 -13.522  0.00  0.00    +0.172 C 
ATOM      3  C   UNL     1      38.337 -25.065 -12.577  0.00  0.00    +0.176 C 
ATOM      4  C   UNL     1      38.296 -26.233 -14.612  0.00  0.00    +0.196 C 
ATOM      5  C   UNL     1      39.243 -25.051 -14.732  0.00  0.00    +0.262 C 
ENDROOT
BRANCH   2   6
ATOM      6  O   UNL     1      36.710 -26.834 -12.876  0.00  0.00    -0.379 OA
ATOM      7  H   UNL     1      36.783 -26.728 -11.915  0.00  0.00    +0.211 HD
ENDBRANCH   2   6
BRANCH   4   8
ATOM      8  O   UNL     1      37.608 -26.520 -15.811  0.00  0.00    -0.378 OA
ATOM      9  H   UNL     1      37.609 -25.735 -16.381  0.00  0.00    +0.211 HD
ENDBRANCH   4   8
BRANCH   5  10
ATOM     10  O   UNL     1      38.654 -24.023 -15.524  0.00  0.00    -0.358 OA
ATOM     11  H   UNL     1      37.717 -24.225 -15.670  0.00  0.00    +0.213 HD
ENDBRANCH   5  10
BRANCH   3  12
ATOM     12  C   UNL     1      37.715 -23.897 -11.832  0.00  0.00    +0.169 C 
BRANCH  12  13
ATOM     13  O   UNL     1      38.702 -22.894 -11.654  0.00  0.00    -0.379 OA
ATOM     14  H   UNL     1      38.346 -22.187 -11.094  0.00  0.00    +0.211 HD
ENDBRANCH  12  13
ENDBRANCH   3  12
TORSDOF 5
ENDMDL
MODEL 3
REMARK VINA RESULT:      -5.8      2.372      3.737
REMARK  Name = 6857384
REMARK  5 active torsions:
REMARK  status: ('A' for Active; 'I' for Inactive)
REMARK    1  A    between atoms: C_2  and  O_6
REMARK    2  A    between atoms: C_3  and  C_12
REMARK    3  A    between atoms: C_4  and  O_8
REMARK    4  A    between atoms: C_5  and  O_10
REMARK    5  A    between atoms: C_12  and  O_13
REMARK                            x       y       z     vdW  Elec       q    Type
REMARK                         _______ _______ _______ _____ _____    ______ ____
ROOT
ATOM      1  O   UNL     1      37.786 -23.451 -13.742  0.00  0.00    -0.326 OA
ATOM      2  C   UNL     1      37.515 -25.434 -12.451  0.00  0.00    +0.172 C 
ATOM      3  C   UNL     1      37.830 -24.890 -13.838  0.00  0.00    +0.176 C 
ATOM      4  C   UNL     1      36.644 -24.332 -11.893  0.00  0.00    +0.196 C 
ATOM      5  C   UNL     1      37.352 -23.095 -12.419  0.00  0.00    +0.262 C 
ENDROOT
BRANCH   2   6
ATOM      6  O   UNL     1      36.822 -26.665 -12.535  0.00  0.00    -0.379 OA
ATOM      7  H   UNL     1      37.440 -27.369 -12.786  0.00  0.00    +0.211 HD
ENDBRANCH   2   6
BRANCH   4   8
ATOM      8  O   UNL     1      36.571 -24.375 -10.483  0.00  0.00    -0.378 OA
ATOM      9  H   UNL     1      37.391 -24.753 -10.128  0.00  0.00    +0.211 HD
ENDBRANCH   4   8
BRANCH   5  10
ATOM     10  O   UNL     1      38.475 -22.781 -11.600  0.00  0.00    -0.358 OA
ATOM     11  H   UNL     1      38.631 -21.825 -11.620  0.00  0.00    +0.213 HD
ENDBRANCH   5  10
BRANCH   3  12
ATOM     12  C   UNL     1      39.194 -25.321 -14.350  0.00  0.00    +0.169 C 
BRANCH  12  13
ATOM     13  O   UNL     1      39.161 -26.713 -14.614  0.00  0.00    -0.379 OA
ATOM     14  H   UNL     1      38.983 -26.859 -15.556  0.00  0.00    +0.211 HD
ENDBRANCH  12  13
ENDBRANCH   3  12
TORSDOF 5
ENDMDL
MODEL 4
REMARK VINA RESULT:      -5.6      1.985      3.780
REMARK  Name = 6857384
REMARK  5 active torsions:
REMARK  status: ('A' for Active; 'I' for Inactive)
REMARK    1  A    between atoms: C_2  and  O_6
REMARK    2  A    between atoms: C_3  and  C_12
REMARK    3  A    between atoms: C_4  and  O_8
REMARK    4  A    between atoms: C_5  and  O_10
REMARK    5  A    between atoms: C_12  and  O_13
REMARK                            x       y       z     vdW  Elec       q    Type
REMARK                         _______ _______ _______ _____ _____    ______ ____
ROOT
ATOM      1  O   UNL     1      37.567 -23.447 -13.736  0.00  0.00    -0.326 OA
ATOM      2  C   UNL     1      36.747 -25.679 -13.615  0.00  0.00    +0.172 C 
ATOM      3  C   UNL     1      36.965 -24.393 -12.829  0.00  0.00    +0.176 C 
ATOM      4  C   UNL     1      37.858 -25.592 -14.637  0.00  0.00    +0.196 C 
ATOM      5  C   UNL     1      37.832 -24.112 -14.981  0.00  0.00    +0.262 C 
ENDROOT
BRANCH   2   6
ATOM      6  O   UNL     1      36.885 -26.813 -12.780  0.00  0.00    -0.379 OA
ATOM      7  H   UNL     1      36.798 -26.545 -11.852  0.00  0.00    +0.211 HD
ENDBRANCH   2   6
BRANCH   4   8
ATOM      8  O   UNL     1      37.622 -26.427 -15.751  0.00  0.00    -0.378 OA
ATOM      9  H   UNL     1      36.672 -26.450 -15.943  0.00  0.00    +0.211 HD
ENDBRANCH   4   8
BRANCH   5  10
ATOM     10  O   UNL     1      36.793 -23.839 -15.916  0.00  0.00    -0.358 OA
ATOM     11  H   UNL     1      37.162 -23.820 -16.813  0.00  0.00    +0.213 HD
ENDBRANCH   5  10
BRANCH   3  12
ATOM     12  C   UNL     1      35.677 -23.812 -12.272  0.00  0.00    +0.169 C 
BRANCH  12  13
ATOM     13  O   UNL     1      34.818 -24.879 -11.906  0.00  0.00    -0.379 OA
ATOM     14  H   UNL     1      34.564 -25.375 -12.699  0.00  0.00    +0.211 HD
ENDBRANCH  12  13
ENDBRANCH   3  12
TORSDOF 5
ENDMDL
MODEL 5
REMARK VINA RESULT:      -5.6      2.912      4.094
REMARK  Name = 6857384
REMARK  5 active torsions:
REMARK  status: ('A' for Active; 'I' for Inactive)
REMARK    1  A    between atoms: C_2  and  O_6
REMARK    2  A    between atoms: C_3  and  C_12
REMARK    3  A    between atoms: C_4  and  O_8
REMARK    4  A    between atoms: C_5  and  O_10
REMARK    5  A    between atoms: C_12  and  O_13
REMARK                            x       y       z     vdW  Elec       q    Type
REMARK                         _______ _______ _______ _____ _____    ______ ____
ROOT
ATOM      1  O   UNL     1      37.106 -24.678 -13.449  0.00  0.00    -0.326 OA
ATOM      2  C   UNL     1      34.860 -24.476 -12.683  0.00  0.00    +0.172 C 
ATOM      3  C   UNL     1      35.805 -24.199 -13.846  0.00  0.00    +0.176 C 
ATOM      4  C   UNL     1      35.813 -24.420 -11.510  0.00  0.00    +0.196 C 
ATOM      5  C   UNL     1      37.035 -25.118 -12.083  0.00  0.00    +0.262 C 
ENDROOT
BRANCH   2   6
ATOM      6  O   UNL     1      33.857 -23.481 -12.598  0.00  0.00    -0.379 OA
ATOM      7  H   UNL     1      32.983 -23.895 -12.669  0.00  0.00    +0.211 HD
ENDBRANCH   2   6
BRANCH   4   8
ATOM      8  O   UNL     1      35.288 -25.063 -10.369  0.00  0.00    -0.378 OA
ATOM      9  H   UNL     1      35.735 -25.915 -10.242  0.00  0.00    +0.211 HD
ENDBRANCH   4   8
BRANCH   5  10
ATOM     10  O   UNL     1      36.868 -26.532 -12.029  0.00  0.00    -0.358 OA
ATOM     11  H   UNL     1      37.644 -26.963 -12.417  0.00  0.00    +0.213 HD
ENDBRANCH   5  10
BRANCH   3  12
ATOM     12  C   UNL     1      35.382 -24.889 -15.131  0.00  0.00    +0.169 C 
BRANCH  12  13
ATOM     13  O   UNL     1      35.598 -26.283 -14.991  0.00  0.00    -0.379 OA
ATOM     14  H   UNL     1      35.668 -26.506 -14.049  0.00  0.00    +0.211 HD
ENDBRANCH  12  13
ENDBRANCH   3  12
TORSDOF 5
ENDMDL
MODEL 6
REMARK VINA RESULT:      -5.5      2.726      4.091
REMARK  Name = 6857384
REMARK  5 active torsions:
REMARK  status: ('A' for Active; 'I' for Inactive)
REMARK    1  A    between atoms: C_2  and  O_6
REMARK    2  A    between atoms: C_3  and  C_12
REMARK    3  A    between atoms: C_4  and  O_8
REMARK    4  A    between atoms: C_5  and  O_10
REMARK    5  A    between atoms: C_12  and  O_13
REMARK                            x       y       z     vdW  Elec       q    Type
REMARK                         _______ _______ _______ _____ _____    ______ ____
ROOT
ATOM      1  O   UNL     1      35.931 -24.909 -13.295  0.00  0.00    -0.326 OA
ATOM      2  C   UNL     1      37.916 -24.546 -12.031  0.00  0.00    +0.172 C 
ATOM      3  C   UNL     1      36.481 -24.082 -12.249  0.00  0.00    +0.176 C 
ATOM      4  C   UNL     1      38.267 -25.073 -13.403  0.00  0.00    +0.196 C 
ATOM      5  C   UNL     1      36.972 -25.760 -13.801  0.00  0.00    +0.262 C 
ENDROOT
BRANCH   2   6
ATOM      6  O   UNL     1      38.745 -23.465 -11.651  0.00  0.00    -0.379 OA
ATOM      7  H   UNL     1      39.602 -23.804 -11.348  0.00  0.00    +0.211 HD
ENDBRANCH   2   6
BRANCH   4   8
ATOM      8  O   UNL     1      39.374 -25.949 -13.368  0.00  0.00    -0.378 OA
ATOM      9  H   UNL     1      40.195 -25.436 -13.425  0.00  0.00    +0.211 HD
ENDBRANCH   4   8
BRANCH   5  10
ATOM     10  O   UNL     1      36.889 -27.049 -13.200  0.00  0.00    -0.358 OA
ATOM     11  H   UNL     1      36.962 -26.961 -12.237  0.00  0.00    +0.213 HD
ENDBRANCH   5  10
BRANCH   3  12
ATOM     12  C   UNL     1      35.621 -24.204 -11.003  0.00  0.00    +0.169 C 
BRANCH  12  13
ATOM     13  O   UNL     1      36.433 -23.964  -9.866  0.00  0.00    -0.379 OA
ATOM     14  H   UNL     1      37.259 -24.466  -9.947  0.00  0.00    +0.211 HD
ENDBRANCH  12  13
ENDBRANCH   3  12
TORSDOF 5
ENDMDL
MODEL 7
REMARK VINA RESULT:      -5.5      2.277      3.404
REMARK  Name = 6857384
REMARK  5 active torsions:
REMARK  status: ('A' for Active; 'I' for Inactive)
REMARK    1  A    between atoms: C_2  and  O_6
REMARK    2  A    between atoms: C_3  and  C_12
REMARK    3  A    between atoms: C_4  and  O_8
REMARK    4  A    between atoms: C_5  and  O_10
REMARK    5  A    between atoms: C_12  and  O_13
REMARK                            x       y       z     vdW  Elec       q    Type
REMARK                         _______ _______ _______ _____ _____    ______ ____
ROOT
ATOM      1  O   UNL     1      37.698 -23.259 -13.229  0.00  0.00    -0.326 OA
ATOM      2  C   UNL     1      36.353 -25.174 -13.668  0.00  0.00    +0.172 C 
ATOM      3  C   UNL     1      37.393 -24.228 -14.253  0.00  0.00    +0.176 C 
ATOM      4  C   UNL     1      35.655 -24.269 -12.678  0.00  0.00    +0.196 C 
ATOM      5  C   UNL     1      36.827 -23.487 -12.109  0.00  0.00    +0.262 C 
ENDROOT
BRANCH   2   6
ATOM      6  O   UNL     1      35.470 -25.639 -14.672  0.00  0.00    -0.379 OA
ATOM      7  H   UNL     1      35.911 -25.599 -15.535  0.00  0.00    +0.211 HD
ENDBRANCH   2   6
BRANCH   4   8
ATOM      8  O   UNL     1      34.945 -24.999 -11.700  0.00  0.00    -0.378 OA
ATOM      9  H   UNL     1      35.352 -25.872 -11.588  0.00  0.00    +0.211 HD
ENDBRANCH   4   8
BRANCH   5  10
ATOM     10  O   UNL     1      37.497 -24.254 -11.113  0.00  0.00    -0.358 OA
ATOM     11  H   UNL     1      37.214 -23.958 -10.234  0.00  0.00    +0.213 HD
ENDBRANCH   5  10
BRANCH   3  12
ATOM     12  C   UNL     1      38.669 -24.936 -14.675  0.00  0.00    +0.169 C 
BRANCH  12  13
ATOM     13  O   UNL     1      38.322 -26.113 -15.384  0.00  0.00    -0.379 OA
ATOM     14  H   UNL     1      38.206 -25.902 -16.324  0.00  0.00    +0.211 HD
ENDBRANCH  12  13
ENDBRANCH   3  12
TORSDOF 5
ENDMDL
MODEL 8
REMARK VINA RESULT:      -5.5      2.475      3.633
REMARK  Name = 6857384
REMARK  5 active torsions:
REMARK  status: ('A' for Active; 'I' for Inactive)
REMARK    1  A    between atoms: C_2  and  O_6
REMARK    2  A    between atoms: C_3  and  C_12
REMARK    3  A    between atoms: C_4  and  O_8
REMARK    4  A    between atoms: C_5  and  O_10
REMARK    5  A    between atoms: C_12  and  O_13
REMARK                            x       y       z     vdW  Elec       q    Type
REMARK                         _______ _______ _______ _____ _____    ______ ____
ROOT
ATOM      1  O   UNL     1      36.487 -25.611 -11.805  0.00  0.00    -0.326 OA
ATOM      2  C   UNL     1      38.230 -24.567 -13.045  0.00  0.00    +0.172 C 
ATOM      3  C   UNL     1      37.575 -25.899 -12.706  0.00  0.00    +0.176 C 
ATOM      4  C   UNL     1      37.933 -23.766 -11.797  0.00  0.00    +0.196 C 
ATOM      5  C   UNL     1      36.514 -24.210 -11.488  0.00  0.00    +0.262 C 
ENDROOT
BRANCH   2   6
ATOM      6  O   UNL     1      39.621 -24.725 -13.254  0.00  0.00    -0.379 OA
ATOM      7  H   UNL     1      39.835 -25.669 -13.312  0.00  0.00    +0.211 HD
ENDBRANCH   2   6
BRANCH   4   8
ATOM      8  O   UNL     1      38.047 -22.376 -12.019  0.00  0.00    -0.378 OA
ATOM      9  H   UNL     1      38.088 -21.915 -11.166  0.00  0.00    +0.211 HD
ENDBRANCH   4   8
BRANCH   5  10
ATOM     10  O   UNL     1      35.584 -23.503 -12.303  0.00  0.00    -0.358 OA
ATOM     11  H   UNL     1      34.693 -23.598 -11.934  0.00  0.00    +0.213 HD
ENDBRANCH   5  10
BRANCH   3  12
ATOM     12  C   UNL     1      37.042 -26.627 -13.928  0.00  0.00    +0.169 C 
BRANCH  12  13
ATOM     13  O   UNL     1      38.140 -27.104 -14.688  0.00  0.00    -0.379 OA
ATOM     14  H   UNL     1      37.958 -28.010 -14.983  0.00  0.00    +0.211 HD
ENDBRANCH  12  13
ENDBRANCH   3  12
TORSDOF 5
ENDMDL
MODEL 9
REMARK VINA RESULT:      -5.3      2.693      4.013
REMARK  Name = 6857384
REMARK  5 active torsions:
REMARK  status: ('A' for Active; 'I' for Inactive)
REMARK    1  A    between atoms: C_2  and  O_6
REMARK    2  A    between atoms: C_3  and  C_12
REMARK    3  A    between atoms: C_4  and  O_8
REMARK    4  A    between atoms: C_5  and  O_10
REMARK    5  A    between atoms: C_12  and  O_13
REMARK                            x       y       z     vdW  Elec       q    Type
REMARK                         _______ _______ _______ _____ _____    ______ ____
ROOT
ATOM      1  O   UNL     1      37.545 -25.670 -11.898  0.00  0.00    -0.326 OA
ATOM      2  C   UNL     1      36.034 -24.760 -13.497  0.00  0.00    +0.172 C 
ATOM      3  C   UNL     1      36.200 -25.168 -12.039  0.00  0.00    +0.176 C 
ATOM      4  C   UNL     1      37.003 -25.699 -14.179  0.00  0.00    +0.196 C 
ATOM      5  C   UNL     1      38.161 -25.699 -13.195  0.00  0.00    +0.262 C 
ENDROOT
BRANCH   2   6
ATOM      6  O   UNL     1      34.703 -24.967 -13.932  0.00  0.00    -0.379 OA
ATOM      7  H   UNL     1      34.090 -24.749 -13.213  0.00  0.00    +0.211 HD
ENDBRANCH   2   6
BRANCH   4   8
ATOM      8  O   UNL     1      37.365 -25.246 -15.466  0.00  0.00    -0.378 OA
ATOM      9  H   UNL     1      36.569 -24.977 -15.950  0.00  0.00    +0.211 HD
ENDBRANCH   4   8
BRANCH   5  10
ATOM     10  O   UNL     1      38.970 -24.542 -13.383  0.00  0.00    -0.358 OA
ATOM     11  H   UNL     1      38.896 -23.967 -12.606  0.00  0.00    +0.213 HD
ENDBRANCH   5  10
BRANCH   3  12
ATOM     12  C   UNL     1      35.986 -24.017 -11.072  0.00  0.00    +0.169 C 
BRANCH  12  13
ATOM     13  O   UNL     1      35.453 -24.532  -9.863  0.00  0.00    -0.379 OA
ATOM     14  H   UNL     1      35.914 -25.355  -9.633  0.00  0.00    +0.211 HD
ENDBRANCH  12  13
ENDBRANCH   3  12
TORSDOF 5
ENDMDL
