MODEL 1
REMARK VINA RESULT:      -9.8      0.000      0.000
REMARK  Name = 57827330
REMARK  4 active torsions:
REMARK  status: ('A' for Active; 'I' for Inactive)
REMARK    1  A    between atoms: C_2  and  C_13
REMARK    2  A    between atoms: C_5  and  N_22
REMARK    3  A    between atoms: C_23  and  C_27
REMARK    4  A    between atoms: C_30  and  C_33
REMARK                            x       y       z     vdW  Elec       q    Type
REMARK                         _______ _______ _______ _____ _____    ______ ____
ROOT
ATOM      1  F   UNL     1      33.972  -7.116 -24.182  0.00  0.00    -0.204 F 
ATOM      2  C   UNL     1      33.042  -9.212 -23.568  0.00  0.00    +0.029 C 
ATOM      3  C   UNL     1      33.134 -10.603 -23.550  0.00  0.00    +0.015 C 
ATOM      4  C   UNL     1      34.053  -8.454 -24.160  0.00  0.00    +0.138 C 
ATOM      5  C   UNL     1      34.235 -11.237 -24.124  0.00  0.00    +0.050 C 
ATOM      6  C   UNL     1      35.154  -9.087 -24.735  0.00  0.00    +0.031 C 
ATOM      7  C   UNL     1      35.246 -10.479 -24.717  0.00  0.00    +0.017 C 
ENDROOT
BRANCH   2  13
ATOM      8  S   UNL     1      32.561  -9.344 -20.141  0.00  0.00    -0.081 S 
ATOM      9  O   UNL     1      30.258  -6.769 -23.451  0.00  0.00    -0.354 OA
ATOM     10  N   UNL     1      30.937  -9.492 -22.278  0.00  0.00    -0.248 NA
ATOM     11  N   UNL     1      30.415 -10.827 -20.425  0.00  0.00    -0.338 N 
ATOM     12  C   UNL     1      32.071  -7.309 -22.022  0.00  0.00    +0.065 C 
ATOM     13  C   UNL     1      31.835  -8.522 -22.937  0.00  0.00    +0.137 C 
ATOM     14  C   UNL     1      30.728  -6.574 -22.110  0.00  0.00    +0.118 C 
ATOM     15  C   UNL     1      30.999  -7.847 -24.045  0.00  0.00    +0.169 C 
ATOM     16  C   UNL     1      32.502  -7.589 -20.580  0.00  0.00    +0.070 C 
ATOM     17  C   UNL     1      30.822  -5.084 -21.829  0.00  0.00    +0.032 C 
ATOM     18  C   UNL     1      31.186  -9.907 -21.082  0.00  0.00    +0.148 C 
ATOM     19  H   UNL     1      30.652 -11.107 -19.512  0.00  0.00    +0.144 HD
ATOM     20  H   UNL     1      29.622 -11.208 -20.866  0.00  0.00    +0.144 HD
ENDBRANCH   2  13
BRANCH   5  22
ATOM     21  O   UNL     1      32.969 -13.289 -25.908  0.00  0.00    -0.268 OA
ATOM     22  N   UNL     1      34.328 -12.630 -24.106  0.00  0.00    -0.279 N 
ATOM     23  C   UNL     1      33.712 -13.547 -24.967  0.00  0.00    +0.265 C 
ATOM     24  H   UNL     1      34.895 -13.014 -23.399  0.00  0.00    +0.155 HD
BRANCH  23  27
ATOM     25  N   UNL     1      34.595 -15.263 -23.520  0.00  0.00    -0.262 NA
ATOM     26  N   UNL     1      34.041 -17.250 -25.419  0.00  0.00    -0.265 NA
ATOM     27  C   UNL     1      34.029 -14.975 -24.709  0.00  0.00    +0.132 C 
ATOM     28  C   UNL     1      33.757 -15.952 -25.642  0.00  0.00    +0.175 C 
ATOM     29  C   UNL     1      34.879 -16.562 -23.297  0.00  0.00    +0.171 C 
ATOM     30  C   UNL     1      34.607 -17.538 -24.231  0.00  0.00    +0.122 C 
BRANCH  30  33
ATOM     31  F   UNL     1      34.647 -19.806 -24.988  0.00  0.00    -0.192 F 
ATOM     32  F   UNL     1      34.257 -19.480 -22.880  0.00  0.00    -0.192 F 
ATOM     33  C   UNL     1      34.933 -18.963 -23.950  0.00  0.00    +0.356 C 
ENDBRANCH  30  33
ENDBRANCH  23  27
ENDBRANCH   5  22
TORSDOF 4
ENDMDL
MODEL 2
REMARK VINA RESULT:      -8.7     10.670     15.369
REMARK  Name = 57827330
REMARK  4 active torsions:
REMARK  status: ('A' for Active; 'I' for Inactive)
REMARK    1  A    between atoms: C_2  and  C_13
REMARK    2  A    between atoms: C_5  and  N_22
REMARK    3  A    between atoms: C_23  and  C_27
REMARK    4  A    between atoms: C_30  and  C_33
REMARK                            x       y       z     vdW  Elec       q    Type
REMARK                         _______ _______ _______ _____ _____    ______ ____
ROOT
ATOM      1  F   UNL     1      33.117 -25.246 -12.736  0.00  0.00    -0.204 F 
ATOM      2  C   UNL     1      34.570 -23.982 -14.125  0.00  0.00    +0.029 C 
ATOM      3  C   UNL     1      34.761 -23.216 -15.275  0.00  0.00    +0.015 C 
ATOM      4  C   UNL     1      33.310 -24.509 -13.840  0.00  0.00    +0.138 C 
ATOM      5  C   UNL     1      33.694 -22.978 -16.139  0.00  0.00    +0.050 C 
ATOM      6  C   UNL     1      32.242 -24.270 -14.704  0.00  0.00    +0.031 C 
ATOM      7  C   UNL     1      32.434 -23.504 -15.854  0.00  0.00    +0.017 C 
ENDROOT
BRANCH   2  13
ATOM      8  S   UNL     1      37.420 -25.568 -15.289  0.00  0.00    -0.081 S 
ATOM      9  O   UNL     1      36.622 -23.412 -11.093  0.00  0.00    -0.354 OA
ATOM     10  N   UNL     1      35.995 -25.686 -13.012  0.00  0.00    -0.248 NA
ATOM     11  N   UNL     1      36.942 -27.678 -13.803  0.00  0.00    -0.338 N 
ATOM     12  C   UNL     1      37.063 -23.494 -13.421  0.00  0.00    +0.065 C 
ATOM     13  C   UNL     1      35.741 -24.241 -13.181  0.00  0.00    +0.137 C 
ATOM     14  C   UNL     1      37.705 -23.520 -12.028  0.00  0.00    +0.118 C 
ATOM     15  C   UNL     1      35.393 -23.699 -11.778  0.00  0.00    +0.169 C 
ATOM     16  C   UNL     1      37.990 -24.036 -14.512  0.00  0.00    +0.070 C 
ATOM     17  C   UNL     1      38.688 -22.388 -11.782  0.00  0.00    +0.032 C 
ATOM     18  C   UNL     1      36.695 -26.334 -13.881  0.00  0.00    +0.148 C 
ATOM     19  H   UNL     1      37.484 -28.121 -14.496  0.00  0.00    +0.144 HD
ATOM     20  H   UNL     1      36.578 -28.202 -13.054  0.00  0.00    +0.144 HD
ENDBRANCH   2  13
BRANCH   5  22
ATOM     21  O   UNL     1      33.810 -23.799 -19.021  0.00  0.00    -0.268 OA
ATOM     22  N   UNL     1      33.885 -22.210 -17.289  0.00  0.00    -0.279 N 
ATOM     23  C   UNL     1      33.931 -22.646 -18.620  0.00  0.00    +0.265 C 
ATOM     24  H   UNL     1      34.002 -21.243 -17.148  0.00  0.00    +0.155 HD
BRANCH  23  27
ATOM     25  N   UNL     1      33.006 -20.980 -20.098  0.00  0.00    -0.262 NA
ATOM     26  N   UNL     1      35.562 -20.255 -20.997  0.00  0.00    -0.265 NA
ATOM     27  C   UNL     1      34.122 -21.578 -19.634  0.00  0.00    +0.132 C 
ATOM     28  C   UNL     1      35.377 -21.222 -20.076  0.00  0.00    +0.175 C 
ATOM     29  C   UNL     1      33.191 -20.012 -21.019  0.00  0.00    +0.171 C 
ATOM     30  C   UNL     1      34.447 -19.657 -21.460  0.00  0.00    +0.122 C 
BRANCH  30  33
ATOM     31  F   UNL     1      34.307 -18.981 -23.750  0.00  0.00    -0.192 F 
ATOM     32  F   UNL     1      35.890 -18.098 -22.559  0.00  0.00    -0.192 F 
ATOM     33  C   UNL     1      34.614 -18.583 -22.478  0.00  0.00    +0.356 C 
ENDBRANCH  30  33
ENDBRANCH  23  27
ENDBRANCH   5  22
TORSDOF 4
ENDMDL
MODEL 3
REMARK VINA RESULT:      -8.6      2.231      3.351
REMARK  Name = 57827330
REMARK  4 active torsions:
REMARK  status: ('A' for Active; 'I' for Inactive)
REMARK    1  A    between atoms: C_2  and  C_13
REMARK    2  A    between atoms: C_5  and  N_22
REMARK    3  A    between atoms: C_23  and  C_27
REMARK    4  A    between atoms: C_30  and  C_33
REMARK                            x       y       z     vdW  Elec       q    Type
REMARK                         _______ _______ _______ _____ _____    ______ ____
ROOT
ATOM      1  F   UNL     1      31.067  -8.613 -19.030  0.00  0.00    -0.204 F 
ATOM      2  C   UNL     1      32.107  -9.491 -20.975  0.00  0.00    +0.029 C 
ATOM      3  C   UNL     1      32.505 -10.599 -21.723  0.00  0.00    +0.015 C 
ATOM      4  C   UNL     1      31.454  -9.672 -19.755  0.00  0.00    +0.138 C 
ATOM      5  C   UNL     1      32.251 -11.886 -21.252  0.00  0.00    +0.050 C 
ATOM      6  C   UNL     1      31.200 -10.959 -19.284  0.00  0.00    +0.031 C 
ATOM      7  C   UNL     1      31.598 -12.067 -20.033  0.00  0.00    +0.017 C 
ENDROOT
BRANCH   2  13
ATOM      8  S   UNL     1      32.269  -8.898 -24.383  0.00  0.00    -0.081 S 
ATOM      9  O   UNL     1      32.237  -5.796 -20.741  0.00  0.00    -0.354 OA
ATOM     10  N   UNL     1      33.654  -8.023 -22.251  0.00  0.00    -0.248 NA
ATOM     11  N   UNL     1      34.836  -8.371 -24.244  0.00  0.00    -0.338 N 
ATOM     12  C   UNL     1      31.276  -7.343 -22.259  0.00  0.00    +0.065 C 
ATOM     13  C   UNL     1      32.387  -8.083 -21.494  0.00  0.00    +0.137 C 
ATOM     14  C   UNL     1      31.671  -5.875 -22.057  0.00  0.00    +0.118 C 
ATOM     15  C   UNL     1      32.555  -7.124 -20.297  0.00  0.00    +0.169 C 
ATOM     16  C   UNL     1      31.072  -7.707 -23.731  0.00  0.00    +0.070 C 
ATOM     17  C   UNL     1      30.506  -4.904 -22.155  0.00  0.00    +0.032 C 
ATOM     18  C   UNL     1      33.692  -8.371 -23.493  0.00  0.00    +0.148 C 
ATOM     19  H   UNL     1      34.806  -8.645 -25.188  0.00  0.00    +0.144 HD
ATOM     20  H   UNL     1      35.689  -8.095 -23.839  0.00  0.00    +0.144 HD
ENDBRANCH   2  13
BRANCH   5  22
ATOM     21  O   UNL     1      33.724 -12.037 -23.860  0.00  0.00    -0.268 OA
ATOM     22  N   UNL     1      32.649 -12.995 -22.001  0.00  0.00    -0.279 N 
ATOM     23  C   UNL     1      33.338 -13.010 -23.221  0.00  0.00    +0.265 C 
ATOM     24  H   UNL     1      32.415 -13.874 -21.627  0.00  0.00    +0.155 HD
BRANCH  23  27
ATOM     25  N   UNL     1      34.272 -15.215 -22.930  0.00  0.00    -0.262 NA
ATOM     26  N   UNL     1      33.583 -15.930 -25.553  0.00  0.00    -0.265 NA
ATOM     27  C   UNL     1      33.646 -14.358 -23.762  0.00  0.00    +0.132 C 
ATOM     28  C   UNL     1      33.308 -14.710 -25.051  0.00  0.00    +0.175 C 
ATOM     29  C   UNL     1      34.546 -16.436 -23.433  0.00  0.00    +0.171 C 
ATOM     30  C   UNL     1      34.208 -16.787 -24.721  0.00  0.00    +0.122 C 
BRANCH  30  33
ATOM     31  F   UNL     1      33.420 -18.904 -25.505  0.00  0.00    -0.192 F 
ATOM     32  F   UNL     1      35.276 -18.900 -24.384  0.00  0.00    -0.192 F 
ATOM     33  C   UNL     1      34.526 -18.144 -25.243  0.00  0.00    +0.356 C 
ENDBRANCH  30  33
ENDBRANCH  23  27
ENDBRANCH   5  22
TORSDOF 4
ENDMDL
MODEL 4
REMARK VINA RESULT:      -8.5     10.117     15.255
REMARK  Name = 57827330
REMARK  4 active torsions:
REMARK  status: ('A' for Active; 'I' for Inactive)
REMARK    1  A    between atoms: C_2  and  C_13
REMARK    2  A    between atoms: C_5  and  N_22
REMARK    3  A    between atoms: C_23  and  C_27
REMARK    4  A    between atoms: C_30  and  C_33
REMARK                            x       y       z     vdW  Elec       q    Type
REMARK                         _______ _______ _______ _____ _____    ______ ____
ROOT
ATOM      1  F   UNL     1      35.365 -25.496 -14.064  0.00  0.00    -0.204 F 
ATOM      2  C   UNL     1      36.491 -23.811 -15.301  0.00  0.00    +0.029 C 
ATOM      3  C   UNL     1      36.462 -22.836 -16.298  0.00  0.00    +0.015 C 
ATOM      4  C   UNL     1      35.346 -24.557 -15.021  0.00  0.00    +0.138 C 
ATOM      5  C   UNL     1      35.288 -22.607 -17.015  0.00  0.00    +0.050 C 
ATOM      6  C   UNL     1      34.172 -24.328 -15.738  0.00  0.00    +0.031 C 
ATOM      7  C   UNL     1      34.143 -23.353 -16.735  0.00  0.00    +0.017 C 
ENDROOT
BRANCH   2  13
ATOM      8  S   UNL     1      36.344 -24.948 -12.033  0.00  0.00    -0.081 S 
ATOM      9  O   UNL     1      40.118 -24.474 -14.935  0.00  0.00    -0.354 OA
ATOM     10  N   UNL     1      37.879 -23.171 -13.342  0.00  0.00    -0.248 NA
ATOM     11  N   UNL     1      37.305 -22.681 -11.124  0.00  0.00    -0.338 N 
ATOM     12  C   UNL     1      38.140 -25.501 -14.127  0.00  0.00    +0.065 C 
ATOM     13  C   UNL     1      37.778 -24.059 -14.518  0.00  0.00    +0.137 C 
ATOM     14  C   UNL     1      39.661 -25.415 -13.953  0.00  0.00    +0.118 C 
ATOM     15  C   UNL     1      38.990 -23.725 -15.414  0.00  0.00    +0.169 C 
ATOM     16  C   UNL     1      37.435 -26.098 -12.907  0.00  0.00    +0.070 C 
ATOM     17  C   UNL     1      40.381 -26.737 -14.159  0.00  0.00    +0.032 C 
ATOM     18  C   UNL     1      37.280 -23.473 -12.240  0.00  0.00    +0.148 C 
ATOM     19  H   UNL     1      36.830 -22.963 -10.309  0.00  0.00    +0.144 HD
ATOM     20  H   UNL     1      37.800 -21.831 -11.136  0.00  0.00    +0.144 HD
ENDBRANCH   2  13
BRANCH   5  22
ATOM     21  O   UNL     1      34.955 -22.876 -19.983  0.00  0.00    -0.268 OA
ATOM     22  N   UNL     1      35.258 -21.630 -18.011  0.00  0.00    -0.279 N 
ATOM     23  C   UNL     1      35.099 -21.811 -19.392  0.00  0.00    +0.265 C 
ATOM     24  H   UNL     1      35.363 -20.700 -17.707  0.00  0.00    +0.155 HD
BRANCH  23  27
ATOM     25  N   UNL     1      36.255 -19.920 -20.344  0.00  0.00    -0.262 NA
ATOM     26  N   UNL     1      33.888 -18.964 -21.503  0.00  0.00    -0.265 NA
ATOM     27  C   UNL     1      35.080 -20.564 -20.199  0.00  0.00    +0.132 C 
ATOM     28  C   UNL     1      33.917 -20.095 -20.769  0.00  0.00    +0.175 C 
ATOM     29  C   UNL     1      36.226 -18.790 -21.078  0.00  0.00    +0.171 C 
ATOM     30  C   UNL     1      35.062 -18.320 -21.647  0.00  0.00    +0.122 C 
BRANCH  30  33
ATOM     31  F   UNL     1      34.239 -16.098 -21.962  0.00  0.00    -0.192 F 
ATOM     32  F   UNL     1      34.670 -17.249 -23.749  0.00  0.00    -0.192 F 
ATOM     33  C   UNL     1      35.067 -17.069 -22.453  0.00  0.00    +0.356 C 
ENDBRANCH  30  33
ENDBRANCH  23  27
ENDBRANCH   5  22
TORSDOF 4
ENDMDL
MODEL 5
REMARK VINA RESULT:      -8.1      5.178      8.068
REMARK  Name = 57827330
REMARK  4 active torsions:
REMARK  status: ('A' for Active; 'I' for Inactive)
REMARK    1  A    between atoms: C_2  and  C_13
REMARK    2  A    between atoms: C_5  and  N_22
REMARK    3  A    between atoms: C_23  and  C_27
REMARK    4  A    between atoms: C_30  and  C_33
REMARK                            x       y       z     vdW  Elec       q    Type
REMARK                         _______ _______ _______ _____ _____    ______ ____
ROOT
ATOM      1  F   UNL     1      34.783 -16.422 -25.412  0.00  0.00    -0.204 F 
ATOM      2  C   UNL     1      34.113 -16.846 -23.175  0.00  0.00    +0.029 C 
ATOM      3  C   UNL     1      34.065 -17.713 -22.083  0.00  0.00    +0.015 C 
ATOM      4  C   UNL     1      34.732 -17.249 -24.358  0.00  0.00    +0.138 C 
ATOM      5  C   UNL     1      34.635 -18.982 -22.175  0.00  0.00    +0.050 C 
ATOM      6  C   UNL     1      35.302 -18.518 -24.450  0.00  0.00    +0.031 C 
ATOM      7  C   UNL     1      35.254 -19.385 -23.359  0.00  0.00    +0.017 C 
ENDROOT
BRANCH   2  13
ATOM      8  S   UNL     1      34.464 -15.000 -20.267  0.00  0.00    -0.081 S 
ATOM      9  O   UNL     1      32.698 -13.696 -24.517  0.00  0.00    -0.354 OA
ATOM     10  N   UNL     1      32.459 -15.403 -22.011  0.00  0.00    -0.248 NA
ATOM     11  N   UNL     1      31.899 -15.194 -19.746  0.00  0.00    -0.338 N 
ATOM     12  C   UNL     1      34.415 -14.235 -22.974  0.00  0.00    +0.065 C 
ATOM     13  C   UNL     1      33.487 -15.458 -23.070  0.00  0.00    +0.137 C 
ATOM     14  C   UNL     1      33.515 -13.108 -23.496  0.00  0.00    +0.118 C 
ATOM     15  C   UNL     1      32.763 -15.126 -24.391  0.00  0.00    +0.169 C 
ATOM     16  C   UNL     1      35.028 -13.921 -21.607  0.00  0.00    +0.070 C 
ATOM     17  C   UNL     1      34.278 -11.934 -24.085  0.00  0.00    +0.032 C 
ATOM     18  C   UNL     1      32.796 -15.224 -20.779  0.00  0.00    +0.148 C 
ATOM     19  H   UNL     1      32.214 -15.053 -18.824  0.00  0.00    +0.144 HD
ATOM     20  H   UNL     1      30.939 -15.313 -19.925  0.00  0.00    +0.144 HD
ENDBRANCH   2  13
BRANCH   5  22
ATOM     21  O   UNL     1      32.324 -20.478 -20.985  0.00  0.00    -0.268 OA
ATOM     22  N   UNL     1      34.588 -19.850 -21.083  0.00  0.00    -0.279 N 
ATOM     23  C   UNL     1      33.476 -20.526 -20.565  0.00  0.00    +0.265 C 
ATOM     24  H   UNL     1      35.442 -20.005 -20.618  0.00  0.00    +0.155 HD
BRANCH  23  27
ATOM     25  N   UNL     1      32.681 -21.962 -18.797  0.00  0.00    -0.262 NA
ATOM     26  N   UNL     1      35.298 -22.443 -17.913  0.00  0.00    -0.265 NA
ATOM     27  C   UNL     1      33.751 -21.408 -19.402  0.00  0.00    +0.132 C 
ATOM     28  C   UNL     1      35.036 -21.645 -18.967  0.00  0.00    +0.175 C 
ATOM     29  C   UNL     1      32.942 -22.760 -17.742  0.00  0.00    +0.171 C 
ATOM     30  C   UNL     1      34.229 -22.996 -17.308  0.00  0.00    +0.122 C 
BRANCH  30  33
ATOM     31  F   UNL     1      33.838 -23.485 -15.000  0.00  0.00    -0.192 F 
ATOM     32  F   UNL     1      35.800 -23.969 -15.790  0.00  0.00    -0.192 F 
ATOM     33  C   UNL     1      34.480 -23.884 -16.140  0.00  0.00    +0.356 C 
ENDBRANCH  30  33
ENDBRANCH  23  27
ENDBRANCH   5  22
TORSDOF 4
ENDMDL
MODEL 6
REMARK VINA RESULT:      -7.8      2.706      9.035
REMARK  Name = 57827330
REMARK  4 active torsions:
REMARK  status: ('A' for Active; 'I' for Inactive)
REMARK    1  A    between atoms: C_2  and  C_13
REMARK    2  A    between atoms: C_5  and  N_22
REMARK    3  A    between atoms: C_23  and  C_27
REMARK    4  A    between atoms: C_30  and  C_33
REMARK                            x       y       z     vdW  Elec       q    Type
REMARK                         _______ _______ _______ _____ _____    ______ ____
ROOT
ATOM      1  F   UNL     1      34.036 -17.294 -25.311  0.00  0.00    -0.204 F 
ATOM      2  C   UNL     1      34.136 -15.500 -23.759  0.00  0.00    +0.029 C 
ATOM      3  C   UNL     1      33.923 -14.151 -23.473  0.00  0.00    +0.015 C 
ATOM      4  C   UNL     1      33.835 -15.999 -25.027  0.00  0.00    +0.138 C 
ATOM      5  C   UNL     1      33.410 -13.303 -24.453  0.00  0.00    +0.050 C 
ATOM      6  C   UNL     1      33.321 -15.151 -26.006  0.00  0.00    +0.031 C 
ATOM      7  C   UNL     1      33.108 -13.802 -25.720  0.00  0.00    +0.017 C 
ENDROOT
BRANCH   2  13
ATOM      8  S   UNL     1      32.836 -15.422 -20.551  0.00  0.00    -0.081 S 
ATOM      9  O   UNL     1      35.941 -18.487 -22.515  0.00  0.00    -0.354 OA
ATOM     10  N   UNL     1      35.310 -15.664 -21.575  0.00  0.00    -0.248 NA
ATOM     11  N   UNL     1      35.074 -14.445 -19.588  0.00  0.00    -0.338 N 
ATOM     12  C   UNL     1      33.801 -17.543 -22.128  0.00  0.00    +0.065 C 
ATOM     13  C   UNL     1      34.698 -16.426 -22.683  0.00  0.00    +0.137 C 
ATOM     14  C   UNL     1      34.831 -18.554 -21.609  0.00  0.00    +0.118 C 
ATOM     15  C   UNL     1      35.828 -17.283 -23.291  0.00  0.00    +0.169 C 
ATOM     16  C   UNL     1      32.765 -17.155 -21.070  0.00  0.00    +0.070 C 
ATOM     17  C   UNL     1      34.319 -19.984 -21.557  0.00  0.00    +0.032 C 
ATOM     18  C   UNL     1      34.578 -15.186 -20.626  0.00  0.00    +0.148 C 
ATOM     19  H   UNL     1      34.468 -14.106 -18.891  0.00  0.00    +0.144 HD
ATOM     20  H   UNL     1      36.038 -14.253 -19.539  0.00  0.00    +0.144 HD
ENDBRANCH   2  13
BRANCH   5  22
ATOM     21  O   UNL     1      35.062 -10.892 -25.125  0.00  0.00    -0.268 OA
ATOM     22  N   UNL     1      33.196 -11.954 -24.166  0.00  0.00    -0.279 N 
ATOM     23  C   UNL     1      34.004 -10.861 -24.505  0.00  0.00    +0.265 C 
ATOM     24  H   UNL     1      32.377 -11.745 -23.662  0.00  0.00    +0.155 HD
BRANCH  23  27
ATOM     25  N   UNL     1      32.177  -9.459 -23.786  0.00  0.00    -0.262 NA
ATOM     26  N   UNL     1      33.865  -7.226 -23.612  0.00  0.00    -0.265 NA
ATOM     27  C   UNL     1      33.491  -9.533 -24.081  0.00  0.00    +0.132 C 
ATOM     28  C   UNL     1      34.319  -8.436 -23.995  0.00  0.00    +0.175 C 
ATOM     29  C   UNL     1      31.723  -8.249 -23.403  0.00  0.00    +0.171 C 
ATOM     30  C   UNL     1      32.552  -7.152 -23.318  0.00  0.00    +0.122 C 
BRANCH  30  33
ATOM     31  F   UNL     1      32.316  -5.511 -21.595  0.00  0.00    -0.192 F 
ATOM     32  F   UNL     1      30.653  -5.741 -22.967  0.00  0.00    -0.192 F 
ATOM     33  C   UNL     1      32.016  -5.831 -22.890  0.00  0.00    +0.356 C 
ENDBRANCH  30  33
ENDBRANCH  23  27
ENDBRANCH   5  22
TORSDOF 4
ENDMDL
MODEL 7
REMARK VINA RESULT:      -7.7      2.033      2.557
REMARK  Name = 57827330
REMARK  4 active torsions:
REMARK  status: ('A' for Active; 'I' for Inactive)
REMARK    1  A    between atoms: C_2  and  C_13
REMARK    2  A    between atoms: C_5  and  N_22
REMARK    3  A    between atoms: C_23  and  C_27
REMARK    4  A    between atoms: C_30  and  C_33
REMARK                            x       y       z     vdW  Elec       q    Type
REMARK                         _______ _______ _______ _____ _____    ______ ____
ROOT
ATOM      1  F   UNL     1      34.734  -6.643 -24.549  0.00  0.00    -0.204 F 
ATOM      2  C   UNL     1      33.925  -8.692 -23.665  0.00  0.00    +0.029 C 
ATOM      3  C   UNL     1      33.880 -10.085 -23.721  0.00  0.00    +0.015 C 
ATOM      4  C   UNL     1      34.684  -7.982 -24.596  0.00  0.00    +0.138 C 
ATOM      5  C   UNL     1      34.591 -10.767 -24.707  0.00  0.00    +0.050 C 
ATOM      6  C   UNL     1      35.395  -8.664 -25.582  0.00  0.00    +0.031 C 
ATOM      7  C   UNL     1      35.350 -10.057 -25.638  0.00  0.00    +0.017 C 
ENDROOT
BRANCH   2  13
ATOM      8  S   UNL     1      30.565  -7.992 -24.120  0.00  0.00    -0.081 S 
ATOM      9  O   UNL     1      33.288  -7.488 -20.220  0.00  0.00    -0.354 OA
ATOM     10  N   UNL     1      32.643  -6.648 -23.071  0.00  0.00    -0.248 NA
ATOM     11  N   UNL     1      31.045  -5.416 -24.260  0.00  0.00    -0.338 N 
ATOM     12  C   UNL     1      32.035  -8.698 -21.828  0.00  0.00    +0.065 C 
ATOM     13  C   UNL     1      33.145  -7.949 -22.583  0.00  0.00    +0.137 C 
ATOM     14  C   UNL     1      31.949  -7.906 -20.517  0.00  0.00    +0.118 C 
ATOM     15  C   UNL     1      34.088  -7.632 -21.404  0.00  0.00    +0.169 C 
ATOM     16  C   UNL     1      30.680  -8.840 -22.526  0.00  0.00    +0.070 C 
ATOM     17  C   UNL     1      31.408  -8.709 -19.346  0.00  0.00    +0.032 C 
ATOM     18  C   UNL     1      31.549  -6.582 -23.752  0.00  0.00    +0.148 C 
ATOM     19  H   UNL     1      30.204  -5.424 -24.772  0.00  0.00    +0.144 HD
ATOM     20  H   UNL     1      31.523  -4.568 -24.112  0.00  0.00    +0.144 HD
ENDBRANCH   2  13
BRANCH   5  22
ATOM     21  O   UNL     1      32.732 -12.702 -23.369  0.00  0.00    -0.268 OA
ATOM     22  N   UNL     1      34.546 -12.161 -24.763  0.00  0.00    -0.279 N 
ATOM     23  C   UNL     1      33.652 -13.022 -24.114  0.00  0.00    +0.265 C 
ATOM     24  H   UNL     1      35.228 -12.592 -25.327  0.00  0.00    +0.155 HD
BRANCH  23  27
ATOM     25  N   UNL     1      34.452 -15.195 -23.438  0.00  0.00    -0.262 NA
ATOM     26  N   UNL     1      33.583 -16.344 -25.844  0.00  0.00    -0.265 NA
ATOM     27  C   UNL     1      33.842 -14.469 -24.395  0.00  0.00    +0.132 C 
ATOM     28  C   UNL     1      33.415 -15.033 -25.577  0.00  0.00    +0.175 C 
ATOM     29  C   UNL     1      34.620 -16.506 -23.704  0.00  0.00    +0.171 C 
ATOM     30  C   UNL     1      34.193 -17.070 -24.887  0.00  0.00    +0.122 C 
BRANCH  30  33
ATOM     31  F   UNL     1      33.228 -19.215 -25.316  0.00  0.00    -0.192 F 
ATOM     32  F   UNL     1      35.048 -19.174 -24.138  0.00  0.00    -0.192 F 
ATOM     33  C   UNL     1      34.394 -18.522 -25.147  0.00  0.00    +0.356 C 
ENDBRANCH  30  33
ENDBRANCH  23  27
ENDBRANCH   5  22
TORSDOF 4
ENDMDL
MODEL 8
REMARK VINA RESULT:      -6.9      8.880     13.682
REMARK  Name = 57827330
REMARK  4 active torsions:
REMARK  status: ('A' for Active; 'I' for Inactive)
REMARK    1  A    between atoms: C_2  and  C_13
REMARK    2  A    between atoms: C_5  and  N_22
REMARK    3  A    between atoms: C_23  and  C_27
REMARK    4  A    between atoms: C_30  and  C_33
REMARK                            x       y       z     vdW  Elec       q    Type
REMARK                         _______ _______ _______ _____ _____    ______ ____
ROOT
ATOM      1  F   UNL     1      37.184 -23.572 -14.772  0.00  0.00    -0.204 F 
ATOM      2  C   UNL     1      35.660 -22.862 -16.448  0.00  0.00    +0.029 C 
ATOM      3  C   UNL     1      35.397 -22.081 -17.574  0.00  0.00    +0.015 C 
ATOM      4  C   UNL     1      36.922 -22.825 -15.854  0.00  0.00    +0.138 C 
ATOM      5  C   UNL     1      36.394 -21.264 -18.105  0.00  0.00    +0.050 C 
ATOM      6  C   UNL     1      37.919 -22.008 -16.385  0.00  0.00    +0.031 C 
ATOM      7  C   UNL     1      37.656 -21.228 -17.511  0.00  0.00    +0.017 C 
ENDROOT
BRANCH   2  13
ATOM      8  S   UNL     1      36.327 -24.873 -13.709  0.00  0.00    -0.081 S 
ATOM      9  O   UNL     1      32.158 -23.913 -15.851  0.00  0.00    -0.354 OA
ATOM     10  N   UNL     1      34.917 -25.186 -15.977  0.00  0.00    -0.248 NA
ATOM     11  N   UNL     1      36.073 -27.050 -15.152  0.00  0.00    -0.338 N 
ATOM     12  C   UNL     1      34.024 -23.445 -14.465  0.00  0.00    +0.065 C 
ATOM     13  C   UNL     1      34.565 -23.755 -15.870  0.00  0.00    +0.137 C 
ATOM     14  C   UNL     1      32.632 -24.088 -14.508  0.00  0.00    +0.118 C 
ATOM     15  C   UNL     1      33.271 -23.568 -16.690  0.00  0.00    +0.169 C 
ATOM     16  C   UNL     1      34.857 -23.912 -13.269  0.00  0.00    +0.070 C 
ATOM     17  C   UNL     1      31.635 -23.466 -13.545  0.00  0.00    +0.032 C 
ATOM     18  C   UNL     1      35.682 -25.739 -15.097  0.00  0.00    +0.148 C 
ATOM     19  H   UNL     1      36.657 -27.420 -14.452  0.00  0.00    +0.144 HD
ATOM     20  H   UNL     1      35.768 -27.622 -15.893  0.00  0.00    +0.144 HD
ENDBRANCH   2  13
BRANCH   5  22
ATOM     21  O   UNL     1      34.017 -21.237 -19.933  0.00  0.00    -0.268 OA
ATOM     22  N   UNL     1      36.131 -20.484 -19.232  0.00  0.00    -0.279 N 
ATOM     23  C   UNL     1      34.998 -20.512 -20.055  0.00  0.00    +0.265 C 
ATOM     24  H   UNL     1      36.828 -19.835 -19.479  0.00  0.00    +0.155 HD
BRANCH  23  27
ATOM     25  N   UNL     1      35.370 -18.271 -20.869  0.00  0.00    -0.262 NA
ATOM     26  N   UNL     1      34.627 -19.016 -23.469  0.00  0.00    -0.265 NA
ATOM     27  C   UNL     1      34.997 -19.531 -21.171  0.00  0.00    +0.132 C 
ATOM     28  C   UNL     1      34.632 -19.896 -22.448  0.00  0.00    +0.175 C 
ATOM     29  C   UNL     1      35.365 -17.390 -21.890  0.00  0.00    +0.171 C 
ATOM     30  C   UNL     1      34.999 -17.757 -23.167  0.00  0.00    +0.122 C 
BRANCH  30  33
ATOM     31  F   UNL     1      33.913 -15.936 -24.272  0.00  0.00    -0.192 F 
ATOM     32  F   UNL     1      35.029 -17.317 -25.517  0.00  0.00    -0.192 F 
ATOM     33  C   UNL     1      35.006 -16.757 -24.270  0.00  0.00    +0.356 C 
ENDBRANCH  30  33
ENDBRANCH  23  27
ENDBRANCH   5  22
TORSDOF 4
ENDMDL
