MODEL 1
REMARK VINA RESULT:      -9.9      0.000      0.000
REMARK  Name = 4764
REMARK  4 active torsions:
REMARK  status: ('A' for Active; 'I' for Inactive)
REMARK    1  A    between atoms: C_3  and  C_11
REMARK    2  A    between atoms: C_3  and  C_19
REMARK    3  A    between atoms: C_16  and  O_17
REMARK    4  A    between atoms: C_24  and  O_25
REMARK                            x       y       z     vdW  Elec       q    Type
REMARK                         _______ _______ _______ _____ _____    ______ ____
ROOT
ATOM      1  O   UNL     1      35.501 -25.415 -15.836  0.00  0.00    -0.440 OA
ATOM      2  O   UNL     1      36.661 -27.317 -15.221  0.00  0.00    -0.245 OA
ATOM      3  C   UNL     1      35.263 -24.047 -15.342  0.00  0.00    +0.192 C 
ATOM      4  C   UNL     1      36.178 -24.037 -14.153  0.00  0.00    +0.028 C 
ATOM      5  C   UNL     1      36.780 -25.272 -13.996  0.00  0.00    +0.076 C 
ATOM      6  C   UNL     1      36.339 -26.159 -15.055  0.00  0.00    +0.342 C 
ATOM      7  C   UNL     1      36.493 -23.009 -13.274  0.00  0.00    -0.000 C 
ATOM      8  C   UNL     1      37.680 -25.552 -12.983  0.00  0.00    +0.006 C 
ATOM      9  C   UNL     1      37.399 -23.258 -12.238  0.00  0.00    -0.000 C 
ATOM     10  C   UNL     1      37.986 -24.524 -12.092  0.00  0.00    +0.000 C 
ENDROOT
BRANCH   3  11
ATOM     11  C   UNL     1      33.755 -24.015 -15.068  0.00  0.00    +0.022 C 
ATOM     12  C   UNL     1      33.230 -24.668 -13.951  0.00  0.00    +0.003 C 
ATOM     13  C   UNL     1      32.900 -23.332 -15.937  0.00  0.00    +0.003 C 
ATOM     14  C   UNL     1      31.858 -24.640 -13.704  0.00  0.00    +0.036 C 
ATOM     15  C   UNL     1      31.527 -23.303 -15.690  0.00  0.00    +0.036 C 
ATOM     16  C   UNL     1      31.007 -23.957 -14.573  0.00  0.00    +0.134 C 
BRANCH  16  17
ATOM     17  O   UNL     1      29.668 -23.929 -14.330  0.00  0.00    -0.506 OA
ATOM     18  H   UNL     1      29.284 -24.555 -13.748  0.00  0.00    +0.292 HD
ENDBRANCH  16  17
ENDBRANCH   3  11
BRANCH   3  19
ATOM     19  C   UNL     1      35.705 -23.026 -16.399  0.00  0.00    +0.022 C 
ATOM     20  C   UNL     1      34.971 -22.877 -17.578  0.00  0.00    +0.003 C 
ATOM     21  C   UNL     1      36.842 -22.245 -16.185  0.00  0.00    +0.003 C 
ATOM     22  C   UNL     1      35.374 -21.951 -18.539  0.00  0.00    +0.036 C 
ATOM     23  C   UNL     1      37.244 -21.319 -17.147  0.00  0.00    +0.036 C 
ATOM     24  C   UNL     1      36.511 -21.171 -18.324  0.00  0.00    +0.134 C 
BRANCH  24  25
ATOM     25  O   UNL     1      36.902 -20.267 -19.262  0.00  0.00    -0.506 OA
ATOM     26  H   UNL     1      37.551 -20.501 -19.897  0.00  0.00    +0.292 HD
ENDBRANCH  24  25
ENDBRANCH   3  19
TORSDOF 4
ENDMDL
MODEL 2
REMARK VINA RESULT:      -9.5      1.322      5.094
REMARK  Name = 4764
REMARK  4 active torsions:
REMARK  status: ('A' for Active; 'I' for Inactive)
REMARK    1  A    between atoms: C_3  and  C_11
REMARK    2  A    between atoms: C_3  and  C_19
REMARK    3  A    between atoms: C_16  and  O_17
REMARK    4  A    between atoms: C_24  and  O_25
REMARK                            x       y       z     vdW  Elec       q    Type
REMARK                         _______ _______ _______ _____ _____    ______ ____
ROOT
ATOM      1  O   UNL     1      35.628 -22.783 -13.861  0.00  0.00    -0.440 OA
ATOM      2  O   UNL     1      37.089 -22.879 -12.073  0.00  0.00    -0.245 OA
ATOM      3  C   UNL     1      35.213 -23.613 -15.007  0.00  0.00    +0.192 C 
ATOM      4  C   UNL     1      35.991 -24.863 -14.717  0.00  0.00    +0.028 C 
ATOM      5  C   UNL     1      36.775 -24.694 -13.590  0.00  0.00    +0.076 C 
ATOM      6  C   UNL     1      36.561 -23.366 -13.051  0.00  0.00    +0.342 C 
ATOM      7  C   UNL     1      36.000 -26.086 -15.376  0.00  0.00    -0.000 C 
ATOM      8  C   UNL     1      37.596 -25.687 -13.084  0.00  0.00    +0.006 C 
ATOM      9  C   UNL     1      36.819 -27.111 -14.890  0.00  0.00    -0.000 C 
ATOM     10  C   UNL     1      37.615 -26.910 -13.753  0.00  0.00    +0.000 C 
ENDROOT
BRANCH   3  11
ATOM     11  C   UNL     1      35.637 -22.788 -16.227  0.00  0.00    +0.022 C 
ATOM     12  C   UNL     1      34.850 -22.786 -17.381  0.00  0.00    +0.003 C 
ATOM     13  C   UNL     1      36.814 -22.036 -16.189  0.00  0.00    +0.003 C 
ATOM     14  C   UNL     1      35.238 -22.036 -18.491  0.00  0.00    +0.036 C 
ATOM     15  C   UNL     1      37.202 -21.286 -17.299  0.00  0.00    +0.036 C 
ATOM     16  C   UNL     1      36.413 -21.285 -18.449  0.00  0.00    +0.134 C 
BRANCH  16  17
ATOM     17  O   UNL     1      36.790 -20.553 -19.532  0.00  0.00    -0.506 OA
ATOM     18  H   UNL     1      37.686 -20.301 -19.640  0.00  0.00    +0.292 HD
ENDBRANCH  16  17
ENDBRANCH   3  11
BRANCH   3  19
ATOM     19  C   UNL     1      33.701 -23.867 -14.947  0.00  0.00    +0.022 C 
ATOM     20  C   UNL     1      32.858 -23.306 -15.908  0.00  0.00    +0.003 C 
ATOM     21  C   UNL     1      33.165 -24.660 -13.930  0.00  0.00    +0.003 C 
ATOM     22  C   UNL     1      31.484 -23.535 -15.852  0.00  0.00    +0.036 C 
ATOM     23  C   UNL     1      31.790 -24.890 -13.876  0.00  0.00    +0.036 C 
ATOM     24  C   UNL     1      30.949 -24.328 -14.836  0.00  0.00    +0.134 C 
BRANCH  24  25
ATOM     25  O   UNL     1      29.608 -24.553 -14.783  0.00  0.00    -0.506 OA
ATOM     26  H   UNL     1      29.128 -24.340 -14.007  0.00  0.00    +0.292 HD
ENDBRANCH  24  25
ENDBRANCH   3  19
TORSDOF 4
ENDMDL
