MODEL 1
REMARK VINA RESULT:     -11.2      0.000      0.000
REMARK  Name = 9888484
REMARK  13 active torsions:
REMARK  status: ('A' for Active; 'I' for Inactive)
REMARK    1  A    between atoms: C_1  and  C_2
REMARK    2  A    between atoms: C_1  and  C_18
REMARK    3  A    between atoms: C_2  and  O_3
REMARK    4  A    between atoms: O_3  and  C_7
REMARK    5  A    between atoms: C_4  and  C_10
REMARK    6  A    between atoms: C_10  and  C_11
REMARK    7  A    between atoms: C_11  and  O_12
REMARK    8  A    between atoms: C_11  and  C_15
REMARK    9  A    between atoms: C_15  and  O_16
REMARK   10  A    between atoms: C_18  and  O_19
REMARK   11  A    between atoms: O_19  and  C_20
REMARK   12  A    between atoms: C_23  and  O_26
REMARK   13  A    between atoms: O_26  and  C_27
REMARK                            x       y       z     vdW  Elec       q    Type
REMARK                         _______ _______ _______ _____ _____    ______ ____
ROOT
ATOM      1  C   UNL     1      33.073 -13.997 -26.963  0.00  0.00    +0.095 C 
ENDROOT
BRANCH   1   2
ATOM      2  C   UNL     1      33.565 -12.621 -26.542  0.00  0.00    +0.209 C 
BRANCH   2   3
ATOM      3  O   UNL     1      33.847 -12.641 -25.149  0.00  0.00    -0.475 OA
BRANCH   3   7
ATOM      4  C   UNL     1      33.601  -9.017 -23.142  0.00  0.00    -0.019 C 
ATOM      5  C   UNL     1      32.684 -10.031 -22.864  0.00  0.00    -0.001 C 
ATOM      6  C   UNL     1      34.598  -9.220 -24.095  0.00  0.00    -0.001 C 
ATOM      7  C   UNL     1      33.765 -11.444 -24.486  0.00  0.00    +0.139 C 
ATOM      8  C   UNL     1      32.767 -11.249 -23.539  0.00  0.00    +0.037 C 
ATOM      9  C   UNL     1      34.681 -10.438 -24.769  0.00  0.00    +0.037 C 
BRANCH   4  10
ATOM     10  C   UNL     1      33.512  -7.713 -22.422  0.00  0.00    +0.067 C 
BRANCH  10  11
ATOM     11  C   UNL     1      32.243  -7.599 -21.561  0.00  0.00    +0.218 C 
BRANCH  11  12
ATOM     12  O   UNL     1      31.805  -6.245 -21.580  0.00  0.00    -0.342 OA
ATOM     13  C   UNL     1      30.834  -6.028 -22.594  0.00  0.00    +0.175 C 
ENDBRANCH  11  12
BRANCH  11  15
ATOM     14  O   UNL     1      32.124  -8.988 -19.569  0.00  0.00    -0.248 OA
ATOM     15  C   UNL     1      32.520  -7.969 -20.118  0.00  0.00    +0.342 C 
BRANCH  15  16
ATOM     16  O   UNL     1      33.288  -7.041 -19.490  0.00  0.00    -0.479 OA
ATOM     17  H   UNL     1      33.045  -6.137 -19.516  0.00  0.00    +0.295 HD
ENDBRANCH  15  16
ENDBRANCH  11  15
ENDBRANCH  10  11
ENDBRANCH   4  10
ENDBRANCH   3   7
ENDBRANCH   2   3
ENDBRANCH   1   2
BRANCH   1  18
ATOM     18  C   UNL     1      33.044 -14.973 -25.798  0.00  0.00    +0.209 C 
BRANCH  18  19
ATOM     19  O   UNL     1      33.926 -16.057 -26.055  0.00  0.00    -0.475 OA
BRANCH  19  20
ATOM     20  C   UNL     1      34.432 -16.715 -24.965  0.00  0.00    +0.139 C 
ATOM     21  C   UNL     1      34.572 -18.097 -24.999  0.00  0.00    +0.040 C 
ATOM     22  C   UNL     1      34.802 -15.992 -23.835  0.00  0.00    +0.040 C 
ATOM     23  C   UNL     1      35.460 -18.049 -22.752  0.00  0.00    +0.145 C 
ATOM     24  C   UNL     1      35.087 -18.768 -23.889  0.00  0.00    +0.041 C 
ATOM     25  C   UNL     1      35.316 -16.662 -22.726  0.00  0.00    +0.041 C 
BRANCH  23  26
ATOM     26  O   UNL     1      35.964 -18.702 -21.669  0.00  0.00    -0.453 OA
BRANCH  26  27
ATOM     27  C   UNL     1      35.123 -19.570 -20.993  0.00  0.00    +0.145 C 
ATOM     28  C   UNL     1      33.760 -19.344 -21.015  0.00  0.00    +0.037 C 
ATOM     29  C   UNL     1      35.671 -20.642 -20.311  0.00  0.00    +0.037 C 
ATOM     30  C   UNL     1      32.914 -20.217 -20.332  0.00  0.00    +0.003 C 
ATOM     31  C   UNL     1      34.825 -21.516 -19.629  0.00  0.00    +0.003 C 
ATOM     32  C   UNL     1      33.446 -21.305 -19.640  0.00  0.00    +0.000 C 
ENDBRANCH  26  27
ENDBRANCH  23  26
ENDBRANCH  19  20
ENDBRANCH  18  19
ENDBRANCH   1  18
TORSDOF 13
ENDMDL
MODEL 2
REMARK VINA RESULT:     -10.8      6.019     13.889
REMARK  Name = 9888484
REMARK  13 active torsions:
REMARK  status: ('A' for Active; 'I' for Inactive)
REMARK    1  A    between atoms: C_1  and  C_2
REMARK    2  A    between atoms: C_1  and  C_18
REMARK    3  A    between atoms: C_2  and  O_3
REMARK    4  A    between atoms: O_3  and  C_7
REMARK    5  A    between atoms: C_4  and  C_10
REMARK    6  A    between atoms: C_10  and  C_11
REMARK    7  A    between atoms: C_11  and  O_12
REMARK    8  A    between atoms: C_11  and  C_15
REMARK    9  A    between atoms: C_15  and  O_16
REMARK   10  A    between atoms: C_18  and  O_19
REMARK   11  A    between atoms: O_19  and  C_20
REMARK   12  A    between atoms: C_23  and  O_26
REMARK   13  A    between atoms: O_26  and  C_27
REMARK                            x       y       z     vdW  Elec       q    Type
REMARK                         _______ _______ _______ _____ _____    ______ ____
ROOT
ATOM      1  C   UNL     1      31.986 -22.858 -16.855  0.00  0.00    +0.095 C 
ENDROOT
BRANCH   1   2
ATOM      2  C   UNL     1      32.288 -23.768 -15.675  0.00  0.00    +0.209 C 
BRANCH   2   3
ATOM      3  O   UNL     1      32.992 -23.023 -14.690  0.00  0.00    -0.475 OA
BRANCH   3   7
ATOM      4  C   UNL     1      36.880 -24.219 -13.867  0.00  0.00    -0.019 C 
ATOM      5  C   UNL     1      36.620 -23.406 -14.969  0.00  0.00    -0.001 C 
ATOM      6  C   UNL     1      35.834 -24.631 -13.042  0.00  0.00    -0.001 C 
ATOM      7  C   UNL     1      34.277 -23.417 -14.419  0.00  0.00    +0.139 C 
ATOM      8  C   UNL     1      35.313 -23.003 -15.246  0.00  0.00    +0.037 C 
ATOM      9  C   UNL     1      34.527 -24.229 -13.319  0.00  0.00    +0.037 C 
BRANCH   4  10
ATOM     10  C   UNL     1      38.277 -24.651 -13.571  0.00  0.00    +0.067 C 
BRANCH  10  11
ATOM     11  C   UNL     1      38.845 -25.593 -14.645  0.00  0.00    +0.218 C 
BRANCH  11  12
ATOM     12  O   UNL     1      38.275 -26.883 -14.460  0.00  0.00    -0.342 OA
ATOM     13  C   UNL     1      37.210 -27.116 -15.371  0.00  0.00    +0.175 C 
ENDBRANCH  11  12
BRANCH  11  15
ATOM     14  O   UNL     1      40.972 -26.770 -14.711  0.00  0.00    -0.248 OA
ATOM     15  C   UNL     1      40.348 -25.735 -14.515  0.00  0.00    +0.342 C 
BRANCH  15  16
ATOM     16  O   UNL     1      40.945 -24.565 -14.171  0.00  0.00    -0.479 OA
ATOM     17  H   UNL     1      40.979 -24.303 -13.272  0.00  0.00    +0.295 HD
ENDBRANCH  15  16
ENDBRANCH  11  15
ENDBRANCH  10  11
ENDBRANCH   4  10
ENDBRANCH   3   7
ENDBRANCH   2   3
ENDBRANCH   1   2
BRANCH   1  18
ATOM     18  C   UNL     1      33.145 -22.794 -17.837  0.00  0.00    +0.209 C 
BRANCH  18  19
ATOM     19  O   UNL     1      32.690 -22.301 -19.090  0.00  0.00    -0.475 OA
BRANCH  19  20
ATOM     20  C   UNL     1      33.483 -21.375 -19.715  0.00  0.00    +0.139 C 
ATOM     21  C   UNL     1      34.864 -21.538 -19.710  0.00  0.00    +0.040 C 
ATOM     22  C   UNL     1      32.900 -20.284 -20.349  0.00  0.00    +0.040 C 
ATOM     23  C   UNL     1      35.094 -19.498 -20.985  0.00  0.00    +0.145 C 
ATOM     24  C   UNL     1      35.673 -20.596 -20.346  0.00  0.00    +0.041 C 
ATOM     25  C   UNL     1      33.708 -19.342 -20.985  0.00  0.00    +0.041 C 
BRANCH  23  26
ATOM     26  O   UNL     1      35.883 -18.579 -21.607  0.00  0.00    -0.453 OA
BRANCH  26  27
ATOM     27  C   UNL     1      35.399 -17.995 -22.765  0.00  0.00    +0.145 C 
ATOM     28  C   UNL     1      35.214 -16.625 -22.803  0.00  0.00    +0.037 C 
ATOM     29  C   UNL     1      35.112 -18.797 -23.855  0.00  0.00    +0.037 C 
ATOM     30  C   UNL     1      34.724 -16.037 -23.970  0.00  0.00    +0.003 C 
ATOM     31  C   UNL     1      34.624 -18.210 -25.022  0.00  0.00    +0.003 C 
ATOM     32  C   UNL     1      34.431 -16.830 -25.079  0.00  0.00    +0.000 C 
ENDBRANCH  26  27
ENDBRANCH  23  26
ENDBRANCH  19  20
ENDBRANCH  18  19
ENDBRANCH   1  18
TORSDOF 13
ENDMDL
MODEL 3
REMARK VINA RESULT:     -10.6      3.206     10.957
REMARK  Name = 9888484
REMARK  13 active torsions:
REMARK  status: ('A' for Active; 'I' for Inactive)
REMARK    1  A    between atoms: C_1  and  C_2
REMARK    2  A    between atoms: C_1  and  C_18
REMARK    3  A    between atoms: C_2  and  O_3
REMARK    4  A    between atoms: O_3  and  C_7
REMARK    5  A    between atoms: C_4  and  C_10
REMARK    6  A    between atoms: C_10  and  C_11
REMARK    7  A    between atoms: C_11  and  O_12
REMARK    8  A    between atoms: C_11  and  C_15
REMARK    9  A    between atoms: C_15  and  O_16
REMARK   10  A    between atoms: C_18  and  O_19
REMARK   11  A    between atoms: O_19  and  C_20
REMARK   12  A    between atoms: C_23  and  O_26
REMARK   13  A    between atoms: O_26  and  C_27
REMARK                            x       y       z     vdW  Elec       q    Type
REMARK                         _______ _______ _______ _____ _____    ______ ____
ROOT
ATOM      1  C   UNL     1      34.723 -18.077 -23.975  0.00  0.00    +0.095 C 
ENDROOT
BRANCH   1   2
ATOM      2  C   UNL     1      35.640 -18.492 -22.835  0.00  0.00    +0.209 C 
BRANCH   2   3
ATOM      3  O   UNL     1      34.944 -18.332 -21.606  0.00  0.00    -0.475 OA
BRANCH   3   7
ATOM      4  C   UNL     1      34.120 -21.786 -19.458  0.00  0.00    -0.019 C 
ATOM      5  C   UNL     1      33.076 -20.971 -19.894  0.00  0.00    -0.001 C 
ATOM      6  C   UNL     1      35.441 -21.441 -19.743  0.00  0.00    -0.001 C 
ATOM      7  C   UNL     1      34.671 -19.473 -20.897  0.00  0.00    +0.139 C 
ATOM      8  C   UNL     1      33.353 -19.810 -20.616  0.00  0.00    +0.037 C 
ATOM      9  C   UNL     1      35.717 -20.279 -20.464  0.00  0.00    +0.037 C 
BRANCH   4  10
ATOM     10  C   UNL     1      33.824 -23.027 -18.685  0.00  0.00    +0.067 C 
BRANCH  10  11
ATOM     11  C   UNL     1      33.855 -22.799 -17.165  0.00  0.00    +0.218 C 
BRANCH  11  12
ATOM     12  O   UNL     1      34.863 -23.632 -16.604  0.00  0.00    -0.342 OA
ATOM     13  C   UNL     1      36.001 -22.877 -16.211  0.00  0.00    +0.175 C 
ENDBRANCH  11  12
BRANCH  11  15
ATOM     14  O   UNL     1      32.425 -23.794 -15.469  0.00  0.00    -0.248 OA
ATOM     15  C   UNL     1      32.537 -23.182 -16.523  0.00  0.00    +0.342 C 
BRANCH  15  16
ATOM     16  O   UNL     1      31.472 -22.747 -17.243  0.00  0.00    -0.479 OA
ATOM     17  H   UNL     1      31.333 -23.066 -18.113  0.00  0.00    +0.295 HD
ENDBRANCH  15  16
ENDBRANCH  11  15
ENDBRANCH  10  11
ENDBRANCH   4  10
ENDBRANCH   3   7
ENDBRANCH   2   3
ENDBRANCH   1   2
BRANCH   1  18
ATOM     18  C   UNL     1      35.011 -16.663 -24.451  0.00  0.00    +0.209 C 
BRANCH  18  19
ATOM     19  O   UNL     1      35.290 -15.825 -23.338  0.00  0.00    -0.475 OA
BRANCH  19  20
ATOM     20  C   UNL     1      34.284 -14.994 -22.921  0.00  0.00    +0.139 C 
ATOM     21  C   UNL     1      33.855 -15.043 -21.599  0.00  0.00    +0.040 C 
ATOM     22  C   UNL     1      33.702 -14.110 -23.823  0.00  0.00    +0.040 C 
ATOM     23  C   UNL     1      32.241 -13.308 -22.074  0.00  0.00    +0.145 C 
ATOM     24  C   UNL     1      32.830 -14.198 -21.174  0.00  0.00    +0.041 C 
ATOM     25  C   UNL     1      32.677 -13.266 -23.398  0.00  0.00    +0.041 C 
BRANCH  23  26
ATOM     26  O   UNL     1      31.242 -12.482 -21.659  0.00  0.00    -0.453 OA
BRANCH  26  27
ATOM     27  C   UNL     1      31.598 -11.233 -21.178  0.00  0.00    +0.145 C 
ATOM     28  C   UNL     1      31.586 -11.008 -19.813  0.00  0.00    +0.037 C 
ATOM     29  C   UNL     1      31.955 -10.243 -22.074  0.00  0.00    +0.037 C 
ATOM     30  C   UNL     1      31.942  -9.750 -19.329  0.00  0.00    +0.003 C 
ATOM     31  C   UNL     1      32.312  -8.985 -21.590  0.00  0.00    +0.003 C 
ATOM     32  C   UNL     1      32.307  -8.738 -20.217  0.00  0.00    +0.000 C 
ENDBRANCH  26  27
ENDBRANCH  23  26
ENDBRANCH  19  20
ENDBRANCH  18  19
ENDBRANCH   1  18
TORSDOF 13
ENDMDL
MODEL 4
REMARK VINA RESULT:     -10.6      5.447     12.500
REMARK  Name = 9888484
REMARK  13 active torsions:
REMARK  status: ('A' for Active; 'I' for Inactive)
REMARK    1  A    between atoms: C_1  and  C_2
REMARK    2  A    between atoms: C_1  and  C_18
REMARK    3  A    between atoms: C_2  and  O_3
REMARK    4  A    between atoms: O_3  and  C_7
REMARK    5  A    between atoms: C_4  and  C_10
REMARK    6  A    between atoms: C_10  and  C_11
REMARK    7  A    between atoms: C_11  and  O_12
REMARK    8  A    between atoms: C_11  and  C_15
REMARK    9  A    between atoms: C_15  and  O_16
REMARK   10  A    between atoms: C_18  and  O_19
REMARK   11  A    between atoms: O_19  and  C_20
REMARK   12  A    between atoms: C_23  and  O_26
REMARK   13  A    between atoms: O_26  and  C_27
REMARK                            x       y       z     vdW  Elec       q    Type
REMARK                         _______ _______ _______ _____ _____    ______ ____
ROOT
ATOM      1  C   UNL     1      37.346 -22.546 -16.501  0.00  0.00    +0.095 C 
ENDROOT
BRANCH   1   2
ATOM      2  C   UNL     1      36.334 -23.043 -15.482  0.00  0.00    +0.209 C 
BRANCH   2   3
ATOM      3  O   UNL     1      35.350 -23.819 -16.154  0.00  0.00    -0.475 OA
BRANCH   3   7
ATOM      4  C   UNL     1      31.382 -22.883 -15.377  0.00  0.00    -0.019 C 
ATOM      5  C   UNL     1      31.857 -22.873 -16.689  0.00  0.00    -0.001 C 
ATOM      6  C   UNL     1      32.240 -23.207 -14.327  0.00  0.00    -0.001 C 
ATOM      7  C   UNL     1      34.039 -23.510 -15.898  0.00  0.00    +0.139 C 
ATOM      8  C   UNL     1      33.191 -23.187 -16.950  0.00  0.00    +0.037 C 
ATOM      9  C   UNL     1      33.574 -23.522 -14.589  0.00  0.00    +0.037 C 
BRANCH   4  10
ATOM     10  C   UNL     1      29.956 -22.546 -15.098  0.00  0.00    +0.067 C 
BRANCH  10  11
ATOM     11  C   UNL     1      28.983 -23.623 -15.606  0.00  0.00    +0.218 C 
BRANCH  11  12
ATOM     12  O   UNL     1      29.733 -24.780 -15.954  0.00  0.00    -0.342 OA
ATOM     13  C   UNL     1      29.670 -25.766 -14.933  0.00  0.00    +0.175 C 
ENDBRANCH  11  12
BRANCH  11  15
ATOM     14  O   UNL     1      28.160 -21.997 -17.216  0.00  0.00    -0.248 OA
ATOM     15  C   UNL     1      28.251 -23.161 -16.850  0.00  0.00    +0.342 C 
BRANCH  15  16
ATOM     16  O   UNL     1      27.712 -24.198 -17.542  0.00  0.00    -0.479 OA
ATOM     17  H   UNL     1      27.684 -24.172 -18.478  0.00  0.00    +0.295 HD
ENDBRANCH  15  16
ENDBRANCH  11  15
ENDBRANCH  10  11
ENDBRANCH   4  10
ENDBRANCH   3   7
ENDBRANCH   2   3
ENDBRANCH   1   2
BRANCH   1  18
ATOM     18  C   UNL     1      36.780 -21.436 -17.372  0.00  0.00    +0.209 C 
BRANCH  18  19
ATOM     19  O   UNL     1      36.137 -21.996 -18.509  0.00  0.00    -0.475 OA
BRANCH  19  20
ATOM     20  C   UNL     1      35.752 -21.124 -19.494  0.00  0.00    +0.139 C 
ATOM     21  C   UNL     1      36.704 -20.319 -20.110  0.00  0.00    +0.040 C 
ATOM     22  C   UNL     1      34.415 -21.054 -19.868  0.00  0.00    +0.040 C 
ATOM     23  C   UNL     1      34.973 -19.355 -21.492  0.00  0.00    +0.145 C 
ATOM     24  C   UNL     1      36.313 -19.430 -21.111  0.00  0.00    +0.041 C 
ATOM     25  C   UNL     1      34.024 -20.167 -20.870  0.00  0.00    +0.041 C 
BRANCH  23  26
ATOM     26  O   UNL     1      34.591 -18.490 -22.471  0.00  0.00    -0.453 OA
BRANCH  26  27
ATOM     27  C   UNL     1      34.540 -17.142 -22.155  0.00  0.00    +0.145 C 
ATOM     28  C   UNL     1      34.473 -16.763 -20.827  0.00  0.00    +0.037 C 
ATOM     29  C   UNL     1      34.558 -16.211 -23.177  0.00  0.00    +0.037 C 
ATOM     30  C   UNL     1      34.420 -15.406 -20.509  0.00  0.00    +0.003 C 
ATOM     31  C   UNL     1      34.506 -14.853 -22.860  0.00  0.00    +0.003 C 
ATOM     32  C   UNL     1      34.438 -14.451 -21.526  0.00  0.00    +0.000 C 
ENDBRANCH  26  27
ENDBRANCH  23  26
ENDBRANCH  19  20
ENDBRANCH  18  19
ENDBRANCH   1  18
TORSDOF 13
ENDMDL
MODEL 5
REMARK VINA RESULT:     -10.5      1.395     10.624
REMARK  Name = 9888484
REMARK  13 active torsions:
REMARK  status: ('A' for Active; 'I' for Inactive)
REMARK    1  A    between atoms: C_1  and  C_2
REMARK    2  A    between atoms: C_1  and  C_18
REMARK    3  A    between atoms: C_2  and  O_3
REMARK    4  A    between atoms: O_3  and  C_7
REMARK    5  A    between atoms: C_4  and  C_10
REMARK    6  A    between atoms: C_10  and  C_11
REMARK    7  A    between atoms: C_11  and  O_12
REMARK    8  A    between atoms: C_11  and  C_15
REMARK    9  A    between atoms: C_15  and  O_16
REMARK   10  A    between atoms: C_18  and  O_19
REMARK   11  A    between atoms: O_19  and  C_20
REMARK   12  A    between atoms: C_23  and  O_26
REMARK   13  A    between atoms: O_26  and  C_27
REMARK                            x       y       z     vdW  Elec       q    Type
REMARK                         _______ _______ _______ _____ _____    ______ ____
ROOT
ATOM      1  C   UNL     1      33.394 -13.890 -27.035  0.00  0.00    +0.095 C 
ENDROOT
BRANCH   1   2
ATOM      2  C   UNL     1      33.098 -14.860 -25.902  0.00  0.00    +0.209 C 
BRANCH   2   3
ATOM      3  O   UNL     1      33.774 -16.084 -26.157  0.00  0.00    -0.475 OA
BRANCH   3   7
ATOM      4  C   UNL     1      35.409 -18.032 -22.877  0.00  0.00    -0.019 C 
ATOM      5  C   UNL     1      34.994 -18.766 -23.988  0.00  0.00    -0.001 C 
ATOM      6  C   UNL     1      35.274 -16.644 -22.868  0.00  0.00    -0.001 C 
ATOM      7  C   UNL     1      34.315 -16.728 -25.074  0.00  0.00    +0.139 C 
ATOM      8  C   UNL     1      34.444 -18.111 -25.091  0.00  0.00    +0.037 C 
ATOM      9  C   UNL     1      34.725 -15.990 -23.970  0.00  0.00    +0.037 C 
BRANCH   4  10
ATOM     10  C   UNL     1      35.996 -18.732 -21.697  0.00  0.00    +0.067 C 
BRANCH  10  11
ATOM     11  C   UNL     1      35.109 -19.882 -21.191  0.00  0.00    +0.218 C 
BRANCH  11  12
ATOM     12  O   UNL     1      33.941 -19.326 -20.601  0.00  0.00    -0.342 OA
ATOM     13  C   UNL     1      32.828 -20.199 -20.728  0.00  0.00    +0.175 C 
ENDBRANCH  11  12
BRANCH  11  15
ATOM     14  O   UNL     1      35.586 -21.871 -19.876  0.00  0.00    -0.248 OA
ATOM     15  C   UNL     1      35.817 -20.695 -20.126  0.00  0.00    +0.342 C 
BRANCH  15  16
ATOM     16  O   UNL     1      36.767 -19.974 -19.479  0.00  0.00    -0.479 OA
ATOM     17  H   UNL     1      37.094 -20.267 -18.651  0.00  0.00    +0.295 HD
ENDBRANCH  15  16
ENDBRANCH  11  15
ENDBRANCH  10  11
ENDBRANCH   4  10
ENDBRANCH   3   7
ENDBRANCH   2   3
ENDBRANCH   1   2
BRANCH   1  18
ATOM     18  C   UNL     1      33.471 -12.452 -26.549  0.00  0.00    +0.209 C 
BRANCH  18  19
ATOM     19  O   UNL     1      33.846 -12.426 -25.178  0.00  0.00    -0.475 OA
BRANCH  19  20
ATOM     20  C   UNL     1      33.854 -11.201 -24.563  0.00  0.00    +0.139 C 
ATOM     21  C   UNL     1      34.862 -10.290 -24.858  0.00  0.00    +0.040 C 
ATOM     22  C   UNL     1      32.855 -10.881 -23.650  0.00  0.00    +0.040 C 
ATOM     23  C   UNL     1      33.873  -8.716 -23.316  0.00  0.00    +0.145 C 
ATOM     24  C   UNL     1      34.873  -9.044 -24.232  0.00  0.00    +0.041 C 
ATOM     25  C   UNL     1      32.865  -9.635 -23.025  0.00  0.00    +0.041 C 
BRANCH  23  26
ATOM     26  O   UNL     1      33.881  -7.499 -22.706  0.00  0.00    -0.453 OA
BRANCH  26  27
ATOM     27  C   UNL     1      32.929  -6.575 -23.101  0.00  0.00    +0.145 C 
ATOM     28  C   UNL     1      32.057  -6.059 -22.159  0.00  0.00    +0.037 C 
ATOM     29  C   UNL     1      32.873  -6.191 -24.428  0.00  0.00    +0.037 C 
ATOM     30  C   UNL     1      31.097  -5.130 -22.558  0.00  0.00    +0.003 C 
ATOM     31  C   UNL     1      31.914  -5.261 -24.828  0.00  0.00    +0.003 C 
ATOM     32  C   UNL     1      31.026  -4.729 -23.892  0.00  0.00    +0.000 C 
ENDBRANCH  26  27
ENDBRANCH  23  26
ENDBRANCH  19  20
ENDBRANCH  18  19
ENDBRANCH   1  18
TORSDOF 13
ENDMDL
MODEL 6
REMARK VINA RESULT:     -10.3      2.779      4.964
REMARK  Name = 9888484
REMARK  13 active torsions:
REMARK  status: ('A' for Active; 'I' for Inactive)
REMARK    1  A    between atoms: C_1  and  C_2
REMARK    2  A    between atoms: C_1  and  C_18
REMARK    3  A    between atoms: C_2  and  O_3
REMARK    4  A    between atoms: O_3  and  C_7
REMARK    5  A    between atoms: C_4  and  C_10
REMARK    6  A    between atoms: C_10  and  C_11
REMARK    7  A    between atoms: C_11  and  O_12
REMARK    8  A    between atoms: C_11  and  C_15
REMARK    9  A    between atoms: C_15  and  O_16
REMARK   10  A    between atoms: C_18  and  O_19
REMARK   11  A    between atoms: O_19  and  C_20
REMARK   12  A    between atoms: C_23  and  O_26
REMARK   13  A    between atoms: O_26  and  C_27
REMARK                            x       y       z     vdW  Elec       q    Type
REMARK                         _______ _______ _______ _____ _____    ______ ____
ROOT
ATOM      1  C   UNL     1      35.550 -18.156 -23.430  0.00  0.00    +0.095 C 
ENDROOT
BRANCH   1   2
ATOM      2  C   UNL     1      34.898 -16.847 -23.846  0.00  0.00    +0.209 C 
BRANCH   2   3
ATOM      3  O   UNL     1      35.209 -15.853 -22.880  0.00  0.00    -0.475 OA
BRANCH   3   7
ATOM      4  C   UNL     1      32.313 -12.967 -22.163  0.00  0.00    -0.019 C 
ATOM      5  C   UNL     1      32.938 -13.034 -23.409  0.00  0.00    -0.001 C 
ATOM      6  C   UNL     1      32.662 -13.869 -21.159  0.00  0.00    -0.001 C 
ATOM      7  C   UNL     1      34.252 -14.899 -22.644  0.00  0.00    +0.139 C 
ATOM      8  C   UNL     1      33.911 -14.003 -23.650  0.00  0.00    +0.037 C 
ATOM      9  C   UNL     1      33.635 -14.839 -21.400  0.00  0.00    +0.037 C 
BRANCH   4  10
ATOM     10  C   UNL     1      31.273 -11.929 -21.905  0.00  0.00    +0.067 C 
BRANCH  10  11
ATOM     11  C   UNL     1      31.816 -10.734 -21.105  0.00  0.00    +0.218 C 
BRANCH  11  12
ATOM     12  O   UNL     1      30.906 -10.447 -20.050  0.00  0.00    -0.342 OA
ATOM     13  C   UNL     1      31.438 -10.820 -18.787  0.00  0.00    +0.175 C 
ENDBRANCH  11  12
BRANCH  11  15
ATOM     14  O   UNL     1      31.365  -9.346 -23.050  0.00  0.00    -0.248 OA
ATOM     15  C   UNL     1      31.921  -9.494 -21.969  0.00  0.00    +0.342 C 
BRANCH  15  16
ATOM     16  O   UNL     1      32.695  -8.536 -21.397  0.00  0.00    -0.479 OA
ATOM     17  H   UNL     1      32.348  -7.677 -21.255  0.00  0.00    +0.295 HD
ENDBRANCH  15  16
ENDBRANCH  11  15
ENDBRANCH  10  11
ENDBRANCH   4  10
ENDBRANCH   3   7
ENDBRANCH   2   3
ENDBRANCH   1   2
BRANCH   1  18
ATOM     18  C   UNL     1      35.722 -18.254 -21.923  0.00  0.00    +0.209 C 
BRANCH  18  19
ATOM     19  O   UNL     1      34.461 -18.470 -21.306  0.00  0.00    -0.475 OA
BRANCH  19  20
ATOM     20  C   UNL     1      34.283 -19.668 -20.664  0.00  0.00    +0.139 C 
ATOM     21  C   UNL     1      32.997 -20.112 -20.381  0.00  0.00    +0.040 C 
ATOM     22  C   UNL     1      35.391 -20.427 -20.302  0.00  0.00    +0.040 C 
ATOM     23  C   UNL     1      33.921 -22.098 -19.363  0.00  0.00    +0.145 C 
ATOM     24  C   UNL     1      32.814 -21.331 -19.728  0.00  0.00    +0.041 C 
ATOM     25  C   UNL     1      35.209 -21.645 -19.649  0.00  0.00    +0.041 C 
BRANCH  23  26
ATOM     26  O   UNL     1      33.744 -23.288 -18.726  0.00  0.00    -0.453 OA
BRANCH  26  27
ATOM     27  C   UNL     1      33.412 -23.256 -17.382  0.00  0.00    +0.145 C 
ATOM     28  C   UNL     1      32.079 -23.208 -17.018  0.00  0.00    +0.037 C 
ATOM     29  C   UNL     1      34.423 -23.272 -16.439  0.00  0.00    +0.037 C 
ATOM     30  C   UNL     1      31.745 -23.175 -15.664  0.00  0.00    +0.003 C 
ATOM     31  C   UNL     1      34.089 -23.239 -15.085  0.00  0.00    +0.003 C 
ATOM     32  C   UNL     1      32.750 -23.191 -14.697  0.00  0.00    +0.000 C 
ENDBRANCH  26  27
ENDBRANCH  23  26
ENDBRANCH  19  20
ENDBRANCH  18  19
ENDBRANCH   1  18
TORSDOF 13
ENDMDL
MODEL 7
REMARK VINA RESULT:     -10.3      2.768      4.740
REMARK  Name = 9888484
REMARK  13 active torsions:
REMARK  status: ('A' for Active; 'I' for Inactive)
REMARK    1  A    between atoms: C_1  and  C_2
REMARK    2  A    between atoms: C_1  and  C_18
REMARK    3  A    between atoms: C_2  and  O_3
REMARK    4  A    between atoms: O_3  and  C_7
REMARK    5  A    between atoms: C_4  and  C_10
REMARK    6  A    between atoms: C_10  and  C_11
REMARK    7  A    between atoms: C_11  and  O_12
REMARK    8  A    between atoms: C_11  and  C_15
REMARK    9  A    between atoms: C_15  and  O_16
REMARK   10  A    between atoms: C_18  and  O_19
REMARK   11  A    between atoms: O_19  and  C_20
REMARK   12  A    between atoms: C_23  and  O_26
REMARK   13  A    between atoms: O_26  and  C_27
REMARK                            x       y       z     vdW  Elec       q    Type
REMARK                         _______ _______ _______ _____ _____    ______ ____
ROOT
ATOM      1  C   UNL     1      35.058 -17.480 -23.233  0.00  0.00    +0.095 C 
ENDROOT
BRANCH   1   2
ATOM      2  C   UNL     1      34.902 -16.424 -22.150  0.00  0.00    +0.209 C 
BRANCH   2   3
ATOM      3  O   UNL     1      34.934 -15.139 -22.755  0.00  0.00    -0.475 OA
BRANCH   3   7
ATOM      4  C   UNL     1      31.908 -12.500 -21.703  0.00  0.00    -0.019 C 
ATOM      5  C   UNL     1      32.401 -13.406 -20.764  0.00  0.00    -0.001 C 
ATOM      6  C   UNL     1      32.431 -12.481 -22.995  0.00  0.00    -0.001 C 
ATOM      7  C   UNL     1      33.934 -14.267 -22.407  0.00  0.00    +0.139 C 
ATOM      8  C   UNL     1      33.418 -14.293 -21.117  0.00  0.00    +0.037 C 
ATOM      9  C   UNL     1      33.448 -13.368 -23.349  0.00  0.00    +0.037 C 
BRANCH   4  10
ATOM     10  C   UNL     1      30.820 -11.552 -21.325  0.00  0.00    +0.067 C 
BRANCH  10  11
ATOM     11  C   UNL     1      31.353 -10.162 -20.939  0.00  0.00    +0.218 C 
BRANCH  11  12
ATOM     12  O   UNL     1      32.511  -9.891 -21.719  0.00  0.00    -0.342 OA
ATOM     13  C   UNL     1      32.257  -8.893 -22.698  0.00  0.00    +0.175 C 
ENDBRANCH  11  12
BRANCH  11  15
ATOM     14  O   UNL     1      31.379 -10.897 -18.621  0.00  0.00    -0.248 OA
ATOM     15  C   UNL     1      31.763 -10.115 -19.481  0.00  0.00    +0.342 C 
BRANCH  15  16
ATOM     16  O   UNL     1      32.635  -9.105 -19.227  0.00  0.00    -0.479 OA
ATOM     17  H   UNL     1      33.515  -9.156 -19.545  0.00  0.00    +0.295 HD
ENDBRANCH  15  16
ENDBRANCH  11  15
ENDBRANCH  10  11
ENDBRANCH   4  10
ENDBRANCH   3   7
ENDBRANCH   2   3
ENDBRANCH   1   2
BRANCH   1  18
ATOM     18  C   UNL     1      35.483 -18.823 -22.663  0.00  0.00    +0.209 C 
BRANCH  18  19
ATOM     19  O   UNL     1      35.412 -18.789 -21.244  0.00  0.00    -0.475 OA
BRANCH  19  20
ATOM     20  C   UNL     1      34.966 -19.924 -20.619  0.00  0.00    +0.139 C 
ATOM     21  C   UNL     1      35.883 -20.858 -20.151  0.00  0.00    +0.040 C 
ATOM     22  C   UNL     1      33.600 -20.131 -20.459  0.00  0.00    +0.040 C 
ATOM     23  C   UNL     1      34.061 -22.227 -19.351  0.00  0.00    +0.145 C 
ATOM     24  C   UNL     1      35.430 -22.014 -19.516  0.00  0.00    +0.041 C 
ATOM     25  C   UNL     1      33.146 -21.286 -19.824  0.00  0.00    +0.041 C 
BRANCH  23  26
ATOM     26  O   UNL     1      33.617 -23.355 -18.730  0.00  0.00    -0.453 OA
BRANCH  26  27
ATOM     27  C   UNL     1      33.294 -23.264 -17.387  0.00  0.00    +0.145 C 
ATOM     28  C   UNL     1      31.966 -23.137 -17.020  0.00  0.00    +0.037 C 
ATOM     29  C   UNL     1      34.307 -23.303 -16.446  0.00  0.00    +0.037 C 
ATOM     30  C   UNL     1      31.641 -23.044 -15.666  0.00  0.00    +0.003 C 
ATOM     31  C   UNL     1      33.982 -23.211 -15.093  0.00  0.00    +0.003 C 
ATOM     32  C   UNL     1      32.649 -23.082 -14.703  0.00  0.00    +0.000 C 
ENDBRANCH  26  27
ENDBRANCH  23  26
ENDBRANCH  19  20
ENDBRANCH  18  19
ENDBRANCH   1  18
TORSDOF 13
ENDMDL
MODEL 8
REMARK VINA RESULT:     -10.1      5.415     10.829
REMARK  Name = 9888484
REMARK  13 active torsions:
REMARK  status: ('A' for Active; 'I' for Inactive)
REMARK    1  A    between atoms: C_1  and  C_2
REMARK    2  A    between atoms: C_1  and  C_18
REMARK    3  A    between atoms: C_2  and  O_3
REMARK    4  A    between atoms: O_3  and  C_7
REMARK    5  A    between atoms: C_4  and  C_10
REMARK    6  A    between atoms: C_10  and  C_11
REMARK    7  A    between atoms: C_11  and  O_12
REMARK    8  A    between atoms: C_11  and  C_15
REMARK    9  A    between atoms: C_15  and  O_16
REMARK   10  A    between atoms: C_18  and  O_19
REMARK   11  A    between atoms: O_19  and  C_20
REMARK   12  A    between atoms: C_23  and  O_26
REMARK   13  A    between atoms: O_26  and  C_27
REMARK                            x       y       z     vdW  Elec       q    Type
REMARK                         _______ _______ _______ _____ _____    ______ ____
ROOT
ATOM      1  C   UNL     1      36.786 -21.646 -16.567  0.00  0.00    +0.095 C 
ENDROOT
BRANCH   1   2
ATOM      2  C   UNL     1      37.082 -21.922 -18.033  0.00  0.00    +0.209 C 
BRANCH   2   3
ATOM      3  O   UNL     1      35.854 -22.119 -18.720  0.00  0.00    -0.475 OA
BRANCH   3   7
ATOM      4  C   UNL     1      34.636 -19.085 -21.277  0.00  0.00    -0.019 C 
ATOM      5  C   UNL     1      33.691 -19.938 -20.707  0.00  0.00    -0.001 C 
ATOM      6  C   UNL     1      35.990 -19.252 -20.989  0.00  0.00    -0.001 C 
ATOM      7  C   UNL     1      35.451 -21.117 -19.564  0.00  0.00    +0.139 C 
ATOM      8  C   UNL     1      34.100 -20.958 -19.848  0.00  0.00    +0.037 C 
ATOM      9  C   UNL     1      36.399 -20.272 -20.129  0.00  0.00    +0.037 C 
BRANCH   4  10
ATOM     10  C   UNL     1      34.198 -17.995 -22.197  0.00  0.00    +0.067 C 
BRANCH  10  11
ATOM     11  C   UNL     1      35.266 -17.643 -23.246  0.00  0.00    +0.218 C 
BRANCH  11  12
ATOM     12  O   UNL     1      35.511 -16.243 -23.187  0.00  0.00    -0.342 OA
ATOM     13  C   UNL     1      34.567 -15.585 -22.355  0.00  0.00    +0.175 C 
ENDBRANCH  11  12
BRANCH  11  15
ATOM     14  O   UNL     1      34.671 -17.147 -25.551  0.00  0.00    -0.248 OA
ATOM     15  C   UNL     1      34.790 -17.965 -24.648  0.00  0.00    +0.342 C 
BRANCH  15  16
ATOM     16  O   UNL     1      34.523 -19.286 -24.807  0.00  0.00    -0.479 OA
ATOM     17  H   UNL     1      33.870 -19.699 -24.276  0.00  0.00    +0.295 HD
ENDBRANCH  15  16
ENDBRANCH  11  15
ENDBRANCH  10  11
ENDBRANCH   4  10
ENDBRANCH   3   7
ENDBRANCH   2   3
ENDBRANCH   1   2
BRANCH   1  18
ATOM     18  C   UNL     1      37.233 -22.789 -15.671  0.00  0.00    +0.209 C 
BRANCH  18  19
ATOM     19  O   UNL     1      36.399 -23.921 -15.879  0.00  0.00    -0.475 OA
BRANCH  19  20
ATOM     20  C   UNL     1      35.143 -23.872 -15.335  0.00  0.00    +0.139 C 
ATOM     21  C   UNL     1      34.062 -23.511 -16.132  0.00  0.00    +0.040 C 
ATOM     22  C   UNL     1      34.960 -24.183 -13.992  0.00  0.00    +0.040 C 
ATOM     23  C   UNL     1      32.592 -23.772 -14.233  0.00  0.00    +0.145 C 
ATOM     24  C   UNL     1      32.782 -23.460 -15.580  0.00  0.00    +0.041 C 
ATOM     25  C   UNL     1      33.681 -24.133 -13.439  0.00  0.00    +0.041 C 
BRANCH  23  26
ATOM     26  O   UNL     1      31.343 -23.724 -13.693  0.00  0.00    -0.453 OA
BRANCH  26  27
ATOM     27  C   UNL     1      30.268 -23.651 -14.563  0.00  0.00    +0.145 C 
ATOM     28  C   UNL     1      29.736 -24.818 -15.077  0.00  0.00    +0.037 C 
ATOM     29  C   UNL     1      29.756 -22.410 -14.895  0.00  0.00    +0.037 C 
ATOM     30  C   UNL     1      28.654 -24.743 -15.955  0.00  0.00    +0.003 C 
ATOM     31  C   UNL     1      28.674 -22.335 -15.772  0.00  0.00    +0.003 C 
ATOM     32  C   UNL     1      28.122 -23.501 -16.302  0.00  0.00    +0.000 C 
ENDBRANCH  26  27
ENDBRANCH  23  26
ENDBRANCH  19  20
ENDBRANCH  18  19
ENDBRANCH   1  18
TORSDOF 13
ENDMDL
MODEL 9
REMARK VINA RESULT:     -10.1      1.618      2.202
REMARK  Name = 9888484
REMARK  13 active torsions:
REMARK  status: ('A' for Active; 'I' for Inactive)
REMARK    1  A    between atoms: C_1  and  C_2
REMARK    2  A    between atoms: C_1  and  C_18
REMARK    3  A    between atoms: C_2  and  O_3
REMARK    4  A    between atoms: O_3  and  C_7
REMARK    5  A    between atoms: C_4  and  C_10
REMARK    6  A    between atoms: C_10  and  C_11
REMARK    7  A    between atoms: C_11  and  O_12
REMARK    8  A    between atoms: C_11  and  C_15
REMARK    9  A    between atoms: C_15  and  O_16
REMARK   10  A    between atoms: C_18  and  O_19
REMARK   11  A    between atoms: O_19  and  C_20
REMARK   12  A    between atoms: C_23  and  O_26
REMARK   13  A    between atoms: O_26  and  C_27
REMARK                            x       y       z     vdW  Elec       q    Type
REMARK                         _______ _______ _______ _____ _____    ______ ____
ROOT
ATOM      1  C   UNL     1      33.365 -13.155 -25.163  0.00  0.00    +0.095 C 
ENDROOT
BRANCH   1   2
ATOM      2  C   UNL     1      33.515 -12.290 -23.922  0.00  0.00    +0.209 C 
BRANCH   2   3
ATOM      3  O   UNL     1      34.460 -11.262 -24.191  0.00  0.00    -0.475 OA
BRANCH   3   7
ATOM      4  C   UNL     1      33.133  -7.350 -23.790  0.00  0.00    -0.019 C 
ATOM      5  C   UNL     1      32.239  -8.408 -23.633  0.00  0.00    -0.001 C 
ATOM      6  C   UNL     1      34.472  -7.605 -24.083  0.00  0.00    -0.001 C 
ATOM      7  C   UNL     1      34.021  -9.970 -24.058  0.00  0.00    +0.139 C 
ATOM      8  C   UNL     1      32.684  -9.724 -23.767  0.00  0.00    +0.037 C 
ATOM      9  C   UNL     1      34.918  -8.921 -24.218  0.00  0.00    +0.037 C 
BRANCH   4  10
ATOM     10  C   UNL     1      32.657  -5.943 -23.647  0.00  0.00    +0.067 C 
BRANCH  10  11
ATOM     11  C   UNL     1      31.142  -5.854 -23.400  0.00  0.00    +0.218 C 
BRANCH  11  12
ATOM     12  O   UNL     1      30.571  -5.014 -24.395  0.00  0.00    -0.342 OA
ATOM     13  C   UNL     1      31.519  -4.080 -24.893  0.00  0.00    +0.175 C 
ENDBRANCH  11  12
BRANCH  11  15
ATOM     14  O   UNL     1      29.886  -4.504 -21.814  0.00  0.00    -0.248 OA
ATOM     15  C   UNL     1      30.839  -5.236 -22.050  0.00  0.00    +0.342 C 
BRANCH  15  16
ATOM     16  O   UNL     1      31.742  -5.602 -21.105  0.00  0.00    -0.479 OA
ATOM     17  H   UNL     1      32.600  -5.225 -21.105  0.00  0.00    +0.295 HD
ENDBRANCH  15  16
ENDBRANCH  11  15
ENDBRANCH  10  11
ENDBRANCH   4  10
ENDBRANCH   3   7
ENDBRANCH   2   3
ENDBRANCH   1   2
BRANCH   1  18
ATOM     18  C   UNL     1      33.457 -14.637 -24.840  0.00  0.00    +0.209 C 
BRANCH  18  19
ATOM     19  O   UNL     1      33.333 -14.834 -23.438  0.00  0.00    -0.475 OA
BRANCH  19  20
ATOM     20  C   UNL     1      34.046 -15.870 -22.893  0.00  0.00    +0.139 C 
ATOM     21  C   UNL     1      34.564 -16.859 -23.721  0.00  0.00    +0.040 C 
ATOM     22  C   UNL     1      34.244 -15.921 -21.517  0.00  0.00    +0.040 C 
ATOM     23  C   UNL     1      35.492 -17.972 -21.788  0.00  0.00    +0.145 C 
ATOM     24  C   UNL     1      35.289 -17.914 -23.168  0.00  0.00    +0.041 C 
ATOM     25  C   UNL     1      34.969 -16.976 -20.964  0.00  0.00    +0.041 C 
BRANCH  23  26
ATOM     26  O   UNL     1      36.201 -19.000 -21.247  0.00  0.00    -0.453 OA
BRANCH  26  27
ATOM     27  C   UNL     1      35.496 -19.982 -20.571  0.00  0.00    +0.145 C 
ATOM     28  C   UNL     1      34.117 -20.013 -20.671  0.00  0.00    +0.037 C 
ATOM     29  C   UNL     1      36.190 -20.906 -19.812  0.00  0.00    +0.037 C 
ATOM     30  C   UNL     1      33.408 -21.001 -19.988  0.00  0.00    +0.003 C 
ATOM     31  C   UNL     1      35.481 -21.895 -19.129  0.00  0.00    +0.003 C 
ATOM     32  C   UNL     1      34.090 -21.943 -19.218  0.00  0.00    +0.000 C 
ENDBRANCH  26  27
ENDBRANCH  23  26
ENDBRANCH  19  20
ENDBRANCH  18  19
ENDBRANCH   1  18
TORSDOF 13
ENDMDL
