MODEL 1
REMARK VINA RESULT:      -8.3      0.000      0.000
REMARK  Name = 3006048
REMARK  5 active torsions:
REMARK  status: ('A' for Active; 'I' for Inactive)
REMARK    1  A    between atoms: N_2  and  C_18
REMARK    2  A    between atoms: C_15  and  C_19
REMARK    3  A    between atoms: C_15  and  C_22
REMARK    4  A    between atoms: C_19  and  O_20
REMARK    5  A    between atoms: C_22  and  O_23
REMARK                            x       y       z     vdW  Elec       q    Type
REMARK                         _______ _______ _______ _____ _____    ______ ____
ROOT
ATOM      1  O   UNL     1      30.620 -23.781 -14.350  0.00  0.00    -0.208 OA
ATOM      2  N   UNL     1      35.138 -23.701 -14.483  0.00  0.00    -0.267 N 
ATOM      3  N   UNL     1      33.975 -23.127 -16.540  0.00  0.00    -0.276 N 
ATOM      4  N   UNL     1      33.325 -24.079 -13.215  0.00  0.00    -0.237 NA
ATOM      5  N   UNL     1      31.581 -23.196 -16.378  0.00  0.00    -0.301 NA
ATOM      6  N   UNL     1      32.676 -22.612 -18.381  0.00  0.00    -0.320 N 
ATOM      7  C   UNL     1      34.049 -23.490 -15.258  0.00  0.00    +0.205 C 
ATOM      8  C   UNL     1      34.647 -24.059 -13.247  0.00  0.00    +0.222 C 
ATOM      9  C   UNL     1      32.952 -23.722 -14.480  0.00  0.00    +0.187 C 
ATOM     10  C   UNL     1      31.618 -23.578 -15.031  0.00  0.00    +0.224 C 
ATOM     11  C   UNL     1      32.691 -22.990 -17.063  0.00  0.00    +0.245 C 
ATOM     12  H   UNL     1      34.780 -22.964 -17.084  0.00  0.00    +0.152 HD
ATOM     13  H   UNL     1      33.523 -22.467 -18.861  0.00  0.00    +0.146 HD
ATOM     14  H   UNL     1      31.818 -22.485 -18.847  0.00  0.00    +0.146 HD
ENDROOT
BRANCH   2  18
ATOM     15  C   UNL     1      37.832 -25.683 -14.016  0.00  0.00    +0.074 C 
ATOM     16  C   UNL     1      38.834 -24.727 -14.744  0.00  0.00    +0.032 C 
ATOM     17  C   UNL     1      37.461 -24.451 -14.590  0.00  0.00    -0.025 C 
ATOM     18  C   UNL     1      36.467 -23.588 -14.834  0.00  0.00    +0.056 C 
BRANCH  15  19
ATOM     19  C   UNL     1      37.907 -25.778 -12.535  0.00  0.00    +0.144 C 
BRANCH  19  20
ATOM     20  O   UNL     1      36.797 -26.526 -12.036  0.00  0.00    -0.382 OA
ATOM     21  H   UNL     1      36.967 -27.474 -12.153  0.00  0.00    +0.210 HD
ENDBRANCH  19  20
ENDBRANCH  15  19
BRANCH  15  22
ATOM     22  C   UNL     1      37.433 -26.936 -14.708  0.00  0.00    +0.144 C 
BRANCH  22  23
ATOM     23  O   UNL     1      36.012 -26.991 -14.842  0.00  0.00    -0.382 OA
ATOM     24  H   UNL     1      35.746 -26.543 -15.661  0.00  0.00    +0.210 HD
ENDBRANCH  22  23
ENDBRANCH  15  22
ENDBRANCH   2  18
TORSDOF 5
ENDMDL
MODEL 2
REMARK VINA RESULT:      -8.3      1.824      2.907
REMARK  Name = 3006048
REMARK  5 active torsions:
REMARK  status: ('A' for Active; 'I' for Inactive)
REMARK    1  A    between atoms: N_2  and  C_18
REMARK    2  A    between atoms: C_15  and  C_19
REMARK    3  A    between atoms: C_15  and  C_22
REMARK    4  A    between atoms: C_19  and  O_20
REMARK    5  A    between atoms: C_22  and  O_23
REMARK                            x       y       z     vdW  Elec       q    Type
REMARK                         _______ _______ _______ _____ _____    ______ ____
ROOT
ATOM      1  O   UNL     1      32.742 -22.807 -18.197  0.00  0.00    -0.208 OA
ATOM      2  N   UNL     1      35.920 -23.279 -15.017  0.00  0.00    -0.267 N 
ATOM      3  N   UNL     1      33.646 -23.867 -14.384  0.00  0.00    -0.276 N 
ATOM      4  N   UNL     1      35.490 -22.679 -17.136  0.00  0.00    -0.237 NA
ATOM      5  N   UNL     1      32.027 -23.585 -16.133  0.00  0.00    -0.301 NA
ATOM      6  N   UNL     1      31.424 -24.371 -13.995  0.00  0.00    -0.320 N 
ATOM      7  C   UNL     1      34.592 -23.440 -15.223  0.00  0.00    +0.205 C 
ATOM      8  C   UNL     1      36.424 -22.813 -16.210  0.00  0.00    +0.222 C 
ATOM      9  C   UNL     1      34.339 -23.072 -16.513  0.00  0.00    +0.187 C 
ATOM     10  C   UNL     1      32.991 -23.132 -17.042  0.00  0.00    +0.224 C 
ATOM     11  C   UNL     1      32.353 -23.922 -14.899  0.00  0.00    +0.245 C 
ATOM     12  H   UNL     1      33.850 -24.127 -13.456  0.00  0.00    +0.152 HD
ATOM     13  H   UNL     1      31.703 -24.614 -13.082  0.00  0.00    +0.146 HD
ATOM     14  H   UNL     1      30.479 -24.450 -14.258  0.00  0.00    +0.146 HD
ENDROOT
BRANCH   2  18
ATOM     15  C   UNL     1      38.533 -25.296 -14.303  0.00  0.00    +0.074 C 
ATOM     16  C   UNL     1      38.618 -24.884 -12.798  0.00  0.00    +0.032 C 
ATOM     17  C   UNL     1      37.670 -24.360 -13.699  0.00  0.00    -0.025 C 
ATOM     18  C   UNL     1      36.638 -23.525 -13.865  0.00  0.00    +0.056 C 
BRANCH  15  19
ATOM     19  C   UNL     1      37.996 -26.643 -14.631  0.00  0.00    +0.144 C 
BRANCH  19  20
ATOM     20  O   UNL     1      37.250 -26.591 -15.848  0.00  0.00    -0.382 OA
ATOM     21  H   UNL     1      37.807 -26.894 -16.582  0.00  0.00    +0.210 HD
ENDBRANCH  19  20
ENDBRANCH  15  19
BRANCH  15  22
ATOM     22  C   UNL     1      39.585 -24.796 -15.226  0.00  0.00    +0.144 C 
BRANCH  22  23
ATOM     23  O   UNL     1      40.186 -25.889 -15.923  0.00  0.00    -0.382 OA
ATOM     24  H   UNL     1      39.795 -26.722 -15.617  0.00  0.00    +0.210 HD
ENDBRANCH  22  23
ENDBRANCH  15  22
ENDBRANCH   2  18
TORSDOF 5
ENDMDL
MODEL 3
REMARK VINA RESULT:      -7.9      2.190      3.304
REMARK  Name = 3006048
REMARK  5 active torsions:
REMARK  status: ('A' for Active; 'I' for Inactive)
REMARK    1  A    between atoms: N_2  and  C_18
REMARK    2  A    between atoms: C_15  and  C_19
REMARK    3  A    between atoms: C_15  and  C_22
REMARK    4  A    between atoms: C_19  and  O_20
REMARK    5  A    between atoms: C_22  and  O_23
REMARK                            x       y       z     vdW  Elec       q    Type
REMARK                         _______ _______ _______ _____ _____    ______ ____
ROOT
ATOM      1  O   UNL     1      34.037 -22.623 -18.929  0.00  0.00    -0.208 OA
ATOM      2  N   UNL     1      34.555 -23.732 -14.577  0.00  0.00    -0.267 N 
ATOM      3  N   UNL     1      32.276 -23.380 -15.350  0.00  0.00    -0.276 N 
ATOM      4  N   UNL     1      35.593 -23.326 -16.525  0.00  0.00    -0.237 NA
ATOM      5  N   UNL     1      32.096 -22.795 -17.672  0.00  0.00    -0.301 NA
ATOM      6  N   UNL     1      30.198 -23.005 -16.291  0.00  0.00    -0.320 N 
ATOM      7  C   UNL     1      33.601 -23.440 -15.492  0.00  0.00    +0.205 C 
ATOM      8  C   UNL     1      35.751 -23.649 -15.252  0.00  0.00    +0.222 C 
ATOM      9  C   UNL     1      34.241 -23.194 -16.672  0.00  0.00    +0.187 C 
ATOM     10  C   UNL     1      33.483 -22.847 -17.859  0.00  0.00    +0.224 C 
ATOM     11  C   UNL     1      31.554 -23.047 -16.495  0.00  0.00    +0.245 C 
ATOM     12  H   UNL     1      31.834 -23.562 -14.489  0.00  0.00    +0.152 HD
ATOM     13  H   UNL     1      29.828 -23.199 -15.399  0.00  0.00    +0.146 HD
ATOM     14  H   UNL     1      29.595 -22.781 -17.036  0.00  0.00    +0.146 HD
ENDROOT
BRANCH   2  18
ATOM     15  C   UNL     1      36.711 -24.237 -12.028  0.00  0.00    +0.074 C 
ATOM     16  C   UNL     1      35.602 -24.531 -10.965  0.00  0.00    +0.032 C 
ATOM     17  C   UNL     1      35.332 -24.228 -12.314  0.00  0.00    -0.025 C 
ATOM     18  C   UNL     1      34.386 -24.049 -13.245  0.00  0.00    +0.056 C 
BRANCH  15  19
ATOM     19  C   UNL     1      37.527 -25.377 -12.520  0.00  0.00    +0.144 C 
BRANCH  19  20
ATOM     20  O   UNL     1      38.389 -24.944 -13.574  0.00  0.00    -0.382 OA
ATOM     21  H   UNL     1      37.996 -25.177 -14.429  0.00  0.00    +0.210 HD
ENDBRANCH  19  20
ENDBRANCH  15  19
BRANCH  15  22
ATOM     22  C   UNL     1      37.427 -22.937 -11.951  0.00  0.00    +0.144 C 
BRANCH  22  23
ATOM     23  O   UNL     1      38.792 -23.149 -11.589  0.00  0.00    -0.382 OA
ATOM     24  H   UNL     1      38.932 -22.867 -10.671  0.00  0.00    +0.210 HD
ENDBRANCH  22  23
ENDBRANCH  15  22
ENDBRANCH   2  18
TORSDOF 5
ENDMDL
MODEL 4
REMARK VINA RESULT:      -7.7      1.338      1.659
REMARK  Name = 3006048
REMARK  5 active torsions:
REMARK  status: ('A' for Active; 'I' for Inactive)
REMARK    1  A    between atoms: N_2  and  C_18
REMARK    2  A    between atoms: C_15  and  C_19
REMARK    3  A    between atoms: C_15  and  C_22
REMARK    4  A    between atoms: C_19  and  O_20
REMARK    5  A    between atoms: C_22  and  O_23
REMARK                            x       y       z     vdW  Elec       q    Type
REMARK                         _______ _______ _______ _____ _____    ______ ____
ROOT
ATOM      1  O   UNL     1      30.334 -23.045 -15.100  0.00  0.00    -0.208 OA
ATOM      2  N   UNL     1      34.739 -24.057 -15.088  0.00  0.00    -0.267 N 
ATOM      3  N   UNL     1      33.836 -23.138 -17.151  0.00  0.00    -0.276 N 
ATOM      4  N   UNL     1      32.837 -24.032 -13.897  0.00  0.00    -0.237 NA
ATOM      5  N   UNL     1      31.491 -22.631 -17.067  0.00  0.00    -0.301 NA
ATOM      6  N   UNL     1      32.777 -22.253 -19.005  0.00  0.00    -0.320 N 
ATOM      7  C   UNL     1      33.767 -23.558 -15.886  0.00  0.00    +0.205 C 
ATOM      8  C   UNL     1      34.125 -24.332 -13.887  0.00  0.00    +0.222 C 
ATOM      9  C   UNL     1      32.615 -23.547 -15.155  0.00  0.00    +0.187 C 
ATOM     10  C   UNL     1      31.379 -23.064 -15.739  0.00  0.00    +0.224 C 
ATOM     11  C   UNL     1      32.645 -22.674 -17.706  0.00  0.00    +0.245 C 
ATOM     12  H   UNL     1      34.678 -23.155 -17.661  0.00  0.00    +0.152 HD
ATOM     13  H   UNL     1      33.654 -22.299 -19.451  0.00  0.00    +0.146 HD
ATOM     14  H   UNL     1      31.995 -21.905 -19.491  0.00  0.00    +0.146 HD
ENDROOT
BRANCH   2  18
ATOM     15  C   UNL     1      37.497 -24.537 -13.200  0.00  0.00    +0.074 C 
ATOM     16  C   UNL     1      38.476 -24.656 -14.413  0.00  0.00    +0.032 C 
ATOM     17  C   UNL     1      37.091 -24.436 -14.545  0.00  0.00    -0.025 C 
ATOM     18  C   UNL     1      36.070 -24.255 -15.391  0.00  0.00    +0.056 C 
BRANCH  15  19
ATOM     19  C   UNL     1      37.545 -23.298 -12.381  0.00  0.00    +0.144 C 
BRANCH  19  20
ATOM     20  O   UNL     1      38.650 -23.351 -11.476  0.00  0.00    -0.382 OA
ATOM     21  H   UNL     1      39.403 -23.782 -11.910  0.00  0.00    +0.210 HD
ENDBRANCH  19  20
ENDBRANCH  15  19
BRANCH  15  22
ATOM     22  C   UNL     1      37.160 -25.775 -12.449  0.00  0.00    +0.144 C 
BRANCH  22  23
ATOM     23  O   UNL     1      36.340 -25.459 -11.323  0.00  0.00    -0.382 OA
ATOM     24  H   UNL     1      36.812 -25.681 -10.506  0.00  0.00    +0.210 HD
ENDBRANCH  22  23
ENDBRANCH  15  22
ENDBRANCH   2  18
TORSDOF 5
ENDMDL
MODEL 5
REMARK VINA RESULT:      -7.6      2.704      3.326
REMARK  Name = 3006048
REMARK  5 active torsions:
REMARK  status: ('A' for Active; 'I' for Inactive)
REMARK    1  A    between atoms: N_2  and  C_18
REMARK    2  A    between atoms: C_15  and  C_19
REMARK    3  A    between atoms: C_15  and  C_22
REMARK    4  A    between atoms: C_19  and  O_20
REMARK    5  A    between atoms: C_22  and  O_23
REMARK                            x       y       z     vdW  Elec       q    Type
REMARK                         _______ _______ _______ _____ _____    ______ ____
ROOT
ATOM      1  O   UNL     1      32.731 -22.090 -19.439  0.00  0.00    -0.208 OA
ATOM      2  N   UNL     1      36.053 -22.922 -16.489  0.00  0.00    -0.267 N 
ATOM      3  N   UNL     1      36.580 -21.426 -18.333  0.00  0.00    -0.276 N 
ATOM      4  N   UNL     1      33.917 -23.332 -17.043  0.00  0.00    -0.237 NA
ATOM      5  N   UNL     1      34.758 -21.042 -19.848  0.00  0.00    -0.301 NA
ATOM      6  N   UNL     1      36.865 -20.032 -20.155  0.00  0.00    -0.320 N 
ATOM      7  C   UNL     1      35.786 -22.226 -17.618  0.00  0.00    +0.205 C 
ATOM      8  C   UNL     1      34.885 -23.581 -16.177  0.00  0.00    +0.222 C 
ATOM      9  C   UNL     1      34.486 -22.481 -17.948  0.00  0.00    +0.187 C 
ATOM     10  C   UNL     1      33.895 -21.875 -19.125  0.00  0.00    +0.224 C 
ATOM     11  C   UNL     1      36.005 -20.847 -19.462  0.00  0.00    +0.245 C 
ATOM     12  H   UNL     1      37.515 -21.255 -18.077  0.00  0.00    +0.152 HD
ATOM     13  H   UNL     1      37.789 -19.909 -19.837  0.00  0.00    +0.146 HD
ATOM     14  H   UNL     1      36.559 -19.572 -20.969  0.00  0.00    +0.146 HD
ENDROOT
BRANCH   2  18
ATOM     15  C   UNL     1      37.320 -25.115 -14.255  0.00  0.00    +0.074 C 
ATOM     16  C   UNL     1      38.657 -24.333 -14.038  0.00  0.00    +0.032 C 
ATOM     17  C   UNL     1      37.636 -23.908 -14.910  0.00  0.00    -0.025 C 
ATOM     18  C   UNL     1      37.237 -22.974 -15.782  0.00  0.00    +0.056 C 
BRANCH  15  19
ATOM     19  C   UNL     1      36.308 -25.085 -13.168  0.00  0.00    +0.144 C 
BRANCH  19  20
ATOM     20  O   UNL     1      36.501 -26.194 -12.288  0.00  0.00    -0.382 OA
ATOM     21  H   UNL     1      35.672 -26.690 -12.205  0.00  0.00    +0.210 HD
ENDBRANCH  19  20
ENDBRANCH  15  19
BRANCH  15  22
ATOM     22  C   UNL     1      37.368 -26.378 -15.037  0.00  0.00    +0.144 C 
BRANCH  22  23
ATOM     23  O   UNL     1      36.059 -26.942 -15.137  0.00  0.00    -0.382 OA
ATOM     24  H   UNL     1      36.075 -27.856 -14.813  0.00  0.00    +0.210 HD
ENDBRANCH  22  23
ENDBRANCH  15  22
ENDBRANCH   2  18
TORSDOF 5
ENDMDL
MODEL 6
REMARK VINA RESULT:      -7.6      2.380      5.502
REMARK  Name = 3006048
REMARK  5 active torsions:
REMARK  status: ('A' for Active; 'I' for Inactive)
REMARK    1  A    between atoms: N_2  and  C_18
REMARK    2  A    between atoms: C_15  and  C_19
REMARK    3  A    between atoms: C_15  and  C_22
REMARK    4  A    between atoms: C_19  and  O_20
REMARK    5  A    between atoms: C_22  and  O_23
REMARK                            x       y       z     vdW  Elec       q    Type
REMARK                         _______ _______ _______ _____ _____    ______ ____
ROOT
ATOM      1  O   UNL     1      38.555 -24.248 -14.618  0.00  0.00    -0.208 OA
ATOM      2  N   UNL     1      34.259 -23.788 -15.949  0.00  0.00    -0.267 N 
ATOM      3  N   UNL     1      35.811 -22.051 -16.650  0.00  0.00    -0.276 N 
ATOM      4  N   UNL     1      35.724 -25.049 -14.809  0.00  0.00    -0.237 NA
ATOM      5  N   UNL     1      38.068 -22.377 -15.899  0.00  0.00    -0.301 NA
ATOM      6  N   UNL     1      37.449 -20.519 -17.209  0.00  0.00    -0.320 N 
ATOM      7  C   UNL     1      35.467 -23.183 -16.032  0.00  0.00    +0.205 C 
ATOM      8  C   UNL     1      34.465 -24.920 -15.193  0.00  0.00    +0.222 C 
ATOM      9  C   UNL     1      36.351 -23.956 -15.336  0.00  0.00    +0.187 C 
ATOM     10  C   UNL     1      37.745 -23.568 -15.237  0.00  0.00    +0.224 C 
ATOM     11  C   UNL     1      37.152 -21.685 -16.552  0.00  0.00    +0.245 C 
ATOM     12  H   UNL     1      35.157 -21.508 -17.148  0.00  0.00    +0.152 HD
ATOM     13  H   UNL     1      36.740 -20.029 -17.686  0.00  0.00    +0.146 HD
ATOM     14  H   UNL     1      38.369 -20.171 -17.204  0.00  0.00    +0.146 HD
ENDROOT
BRANCH   2  18
ATOM     15  C   UNL     1      31.095 -23.670 -14.776  0.00  0.00    +0.074 C 
ATOM     16  C   UNL     1      30.484 -23.078 -16.088  0.00  0.00    +0.032 C 
ATOM     17  C   UNL     1      31.851 -23.376 -15.927  0.00  0.00    -0.025 C 
ATOM     18  C   UNL     1      33.062 -23.376 -16.497  0.00  0.00    +0.056 C 
BRANCH  15  19
ATOM     19  C   UNL     1      30.818 -25.094 -14.456  0.00  0.00    +0.144 C 
BRANCH  19  20
ATOM     20  O   UNL     1      31.813 -25.598 -13.562  0.00  0.00    -0.382 OA
ATOM     21  H   UNL     1      32.537 -24.957 -13.490  0.00  0.00    +0.210 HD
ENDBRANCH  19  20
ENDBRANCH  15  19
BRANCH  15  22
ATOM     22  C   UNL     1      31.223 -22.774 -13.597  0.00  0.00    +0.144 C 
BRANCH  22  23
ATOM     23  O   UNL     1      32.468 -23.006 -12.937  0.00  0.00    -0.382 OA
ATOM     24  H   UNL     1      32.593 -23.959 -12.808  0.00  0.00    +0.210 HD
ENDBRANCH  22  23
ENDBRANCH  15  22
ENDBRANCH   2  18
TORSDOF 5
ENDMDL
MODEL 7
REMARK VINA RESULT:      -7.6      1.930      2.659
REMARK  Name = 3006048
REMARK  5 active torsions:
REMARK  status: ('A' for Active; 'I' for Inactive)
REMARK    1  A    between atoms: N_2  and  C_18
REMARK    2  A    between atoms: C_15  and  C_19
REMARK    3  A    between atoms: C_15  and  C_22
REMARK    4  A    between atoms: C_19  and  O_20
REMARK    5  A    between atoms: C_22  and  O_23
REMARK                            x       y       z     vdW  Elec       q    Type
REMARK                         _______ _______ _______ _____ _____    ______ ____
ROOT
ATOM      1  O   UNL     1      32.640 -23.056 -18.163  0.00  0.00    -0.208 OA
ATOM      2  N   UNL     1      34.685 -23.727 -14.188  0.00  0.00    -0.267 N 
ATOM      3  N   UNL     1      36.019 -22.698 -15.942  0.00  0.00    -0.276 N 
ATOM      4  N   UNL     1      32.784 -23.955 -15.359  0.00  0.00    -0.237 NA
ATOM      5  N   UNL     1      34.853 -22.380 -18.016  0.00  0.00    -0.301 NA
ATOM      6  N   UNL     1      37.102 -21.732 -17.742  0.00  0.00    -0.320 N 
ATOM      7  C   UNL     1      34.910 -23.234 -15.428  0.00  0.00    +0.205 C 
ATOM      8  C   UNL     1      33.377 -24.155 -14.194  0.00  0.00    +0.222 C 
ATOM      9  C   UNL     1      33.750 -23.377 -16.133  0.00  0.00    +0.187 C 
ATOM     10  C   UNL     1      33.671 -22.938 -17.513  0.00  0.00    +0.224 C 
ATOM     11  C   UNL     1      35.936 -22.278 -17.269  0.00  0.00    +0.245 C 
ATOM     12  H   UNL     1      36.846 -22.604 -15.416  0.00  0.00    +0.152 HD
ATOM     13  H   UNL     1      37.891 -21.672 -17.155  0.00  0.00    +0.146 HD
ATOM     14  H   UNL     1      37.151 -21.402 -18.667  0.00  0.00    +0.146 HD
ENDROOT
BRANCH   2  18
ATOM     15  C   UNL     1      37.575 -25.399 -13.681  0.00  0.00    +0.074 C 
ATOM     16  C   UNL     1      37.801 -24.848 -12.235  0.00  0.00    +0.032 C 
ATOM     17  C   UNL     1      36.696 -24.505 -13.039  0.00  0.00    -0.025 C 
ATOM     18  C   UNL     1      35.564 -23.796 -13.127  0.00  0.00    +0.056 C 
BRANCH  15  19
ATOM     19  C   UNL     1      37.155 -26.817 -13.831  0.00  0.00    +0.144 C 
BRANCH  19  20
ATOM     20  O   UNL     1      36.172 -26.930 -14.861  0.00  0.00    -0.382 OA
ATOM     21  H   UNL     1      35.445 -27.494 -14.554  0.00  0.00    +0.210 HD
ENDBRANCH  19  20
ENDBRANCH  15  19
BRANCH  15  22
ATOM     22  C   UNL     1      38.441 -24.880 -14.771  0.00  0.00    +0.144 C 
BRANCH  22  23
ATOM     23  O   UNL     1      38.952 -25.964 -15.550  0.00  0.00    -0.382 OA
ATOM     24  H   UNL     1      38.825 -26.796 -15.069  0.00  0.00    +0.210 HD
ENDBRANCH  22  23
ENDBRANCH  15  22
ENDBRANCH   2  18
TORSDOF 5
ENDMDL
MODEL 8
REMARK VINA RESULT:      -7.5      2.222      3.310
REMARK  Name = 3006048
REMARK  5 active torsions:
REMARK  status: ('A' for Active; 'I' for Inactive)
REMARK    1  A    between atoms: N_2  and  C_18
REMARK    2  A    between atoms: C_15  and  C_19
REMARK    3  A    between atoms: C_15  and  C_22
REMARK    4  A    between atoms: C_19  and  O_20
REMARK    5  A    between atoms: C_22  and  O_23
REMARK                            x       y       z     vdW  Elec       q    Type
REMARK                         _______ _______ _______ _____ _____    ______ ____
ROOT
ATOM      1  O   UNL     1      31.761 -22.477 -16.760  0.00  0.00    -0.208 OA
ATOM      2  N   UNL     1      35.323 -24.681 -15.060  0.00  0.00    -0.267 N 
ATOM      3  N   UNL     1      33.166 -25.134 -14.031  0.00  0.00    -0.276 N 
ATOM      4  N   UNL     1      34.614 -23.204 -16.593  0.00  0.00    -0.237 NA
ATOM      5  N   UNL     1      31.334 -23.921 -14.997  0.00  0.00    -0.301 NA
ATOM      6  N   UNL     1      31.027 -25.420 -13.204  0.00  0.00    -0.320 N 
ATOM      7  C   UNL     1      33.986 -24.544 -14.904  0.00  0.00    +0.205 C 
ATOM      8  C   UNL     1      35.660 -23.845 -16.100  0.00  0.00    +0.222 C 
ATOM      9  C   UNL     1      33.563 -23.645 -15.839  0.00  0.00    +0.187 C 
ATOM     10  C   UNL     1      32.162 -23.282 -15.927  0.00  0.00    +0.224 C 
ATOM     11  C   UNL     1      31.821 -24.781 -14.122  0.00  0.00    +0.245 C 
ATOM     12  H   UNL     1      33.492 -25.781 -13.364  0.00  0.00    +0.152 HD
ATOM     13  H   UNL     1      31.425 -26.056 -12.566  0.00  0.00    +0.146 HD
ATOM     14  H   UNL     1      30.059 -25.243 -13.183  0.00  0.00    +0.146 HD
ENDROOT
BRANCH   2  18
ATOM     15  C   UNL     1      36.783 -24.379 -12.030  0.00  0.00    +0.074 C 
ATOM     16  C   UNL     1      37.546 -25.741 -12.108  0.00  0.00    +0.032 C 
ATOM     17  C   UNL     1      36.707 -25.255 -13.130  0.00  0.00    -0.025 C 
ATOM     18  C   UNL     1      36.186 -25.483 -14.341  0.00  0.00    +0.056 C 
BRANCH  15  19
ATOM     19  C   UNL     1      37.569 -23.127 -12.176  0.00  0.00    +0.144 C 
BRANCH  19  20
ATOM     20  O   UNL     1      37.323 -22.261 -11.067  0.00  0.00    -0.382 OA
ATOM     21  H   UNL     1      37.310 -22.780 -10.248  0.00  0.00    +0.210 HD
ENDBRANCH  19  20
ENDBRANCH  15  19
BRANCH  15  22
ATOM     22  C   UNL     1      35.613 -24.284 -11.118  0.00  0.00    +0.144 C 
BRANCH  22  23
ATOM     23  O   UNL     1      36.050 -24.276  -9.758  0.00  0.00    -0.382 OA
ATOM     24  H   UNL     1      35.429 -24.787  -9.215  0.00  0.00    +0.210 HD
ENDBRANCH  22  23
ENDBRANCH  15  22
ENDBRANCH   2  18
TORSDOF 5
ENDMDL
MODEL 9
REMARK VINA RESULT:      -7.3      2.522      6.718
REMARK  Name = 3006048
REMARK  5 active torsions:
REMARK  status: ('A' for Active; 'I' for Inactive)
REMARK    1  A    between atoms: N_2  and  C_18
REMARK    2  A    between atoms: C_15  and  C_19
REMARK    3  A    between atoms: C_15  and  C_22
REMARK    4  A    between atoms: C_19  and  O_20
REMARK    5  A    between atoms: C_22  and  O_23
REMARK                            x       y       z     vdW  Elec       q    Type
REMARK                         _______ _______ _______ _____ _____    ______ ____
ROOT
ATOM      1  O   UNL     1      36.510 -22.868 -16.557  0.00  0.00    -0.208 OA
ATOM      2  N   UNL     1      32.413 -24.105 -15.100  0.00  0.00    -0.267 N 
ATOM      3  N   UNL     1      34.307 -24.776 -13.730  0.00  0.00    -0.276 N 
ATOM      4  N   UNL     1      33.569 -23.034 -16.698  0.00  0.00    -0.237 NA
ATOM      5  N   UNL     1      36.441 -24.077 -14.580  0.00  0.00    -0.301 NA
ATOM      6  N   UNL     1      36.240 -25.307 -12.579  0.00  0.00    -0.320 N 
ATOM      7  C   UNL     1      33.725 -24.188 -14.778  0.00  0.00    +0.205 C 
ATOM      8  C   UNL     1      32.368 -23.394 -16.278  0.00  0.00    +0.222 C 
ATOM      9  C   UNL     1      34.420 -23.535 -15.753  0.00  0.00    +0.187 C 
ATOM     10  C   UNL     1      35.866 -23.449 -15.692  0.00  0.00    +0.224 C 
ATOM     11  C   UNL     1      35.697 -24.689 -13.677  0.00  0.00    +0.245 C 
ATOM     12  H   UNL     1      33.786 -25.242 -13.037  0.00  0.00    +0.152 HD
ATOM     13  H   UNL     1      35.655 -25.754 -11.926  0.00  0.00    +0.146 HD
ATOM     14  H   UNL     1      37.215 -25.303 -12.445  0.00  0.00    +0.146 HD
ENDROOT
BRANCH   2  18
ATOM     15  C   UNL     1      29.076 -23.974 -15.599  0.00  0.00    +0.074 C 
ATOM     16  C   UNL     1      28.714 -24.817 -14.333  0.00  0.00    +0.032 C 
ATOM     17  C   UNL     1      30.034 -24.497 -14.709  0.00  0.00    -0.025 C 
ATOM     18  C   UNL     1      31.333 -24.616 -14.411  0.00  0.00    +0.056 C 
BRANCH  15  19
ATOM     19  C   UNL     1      28.804 -22.513 -15.567  0.00  0.00    +0.144 C 
BRANCH  19  20
ATOM     20  O   UNL     1      28.970 -21.955 -16.872  0.00  0.00    -0.382 OA
ATOM     21  H   UNL     1      29.719 -21.340 -16.869  0.00  0.00    +0.210 HD
ENDBRANCH  19  20
ENDBRANCH  15  19
BRANCH  15  22
ATOM     22  C   UNL     1      28.925 -24.613 -16.932  0.00  0.00    +0.144 C 
BRANCH  22  23
ATOM     23  O   UNL     1      27.674 -24.245 -17.515  0.00  0.00    -0.382 OA
ATOM     24  H   UNL     1      27.455 -24.863 -18.230  0.00  0.00    +0.210 HD
ENDBRANCH  22  23
ENDBRANCH  15  22
ENDBRANCH   2  18
TORSDOF 5
ENDMDL
