MODEL 1
REMARK VINA RESULT:     -10.2      0.000      0.000
REMARK  Name = 3718
REMARK  4 active torsions:
REMARK  status: ('A' for Active; 'I' for Inactive)
REMARK    1  A    between atoms: C_1  and  N_8
REMARK    2  A    between atoms: C_2  and  C_17
REMARK    3  A    between atoms: C_17  and  C_20
REMARK    4  A    between atoms: C_20  and  O_21
REMARK                            x       y       z     vdW  Elec       q    Type
REMARK                         _______ _______ _______ _____ _____    ______ ____
ROOT
ATOM      1  C   UNL     1      34.801 -18.376 -21.514  0.00  0.00    +0.054 C 
ATOM      2  C   UNL     1      35.358 -20.706 -20.073  0.00  0.00    -0.012 C 
ATOM      3  C   UNL     1      36.123 -18.723 -21.221  0.00  0.00    +0.015 C 
ATOM      4  C   UNL     1      33.759 -19.202 -21.082  0.00  0.00    +0.015 C 
ATOM      5  C   UNL     1      36.401 -19.885 -20.502  0.00  0.00    -0.002 C 
ATOM      6  C   UNL     1      34.037 -20.365 -20.364  0.00  0.00    -0.002 C 
ENDROOT
BRANCH   1   8
ATOM      7  O   UNL     1      34.830 -15.572 -20.549  0.00  0.00    -0.270 OA
ATOM      8  N   UNL     1      34.524 -17.217 -22.229  0.00  0.00    -0.251 N 
ATOM      9  C   UNL     1      34.153 -17.193 -23.646  0.00  0.00    +0.125 C 
ATOM     10  C   UNL     1      33.968 -15.741 -23.917  0.00  0.00    +0.002 C 
ATOM     11  C   UNL     1      34.210 -15.000 -22.767  0.00  0.00    +0.052 C 
ATOM     12  C   UNL     1      34.564 -15.924 -21.684  0.00  0.00    +0.253 C 
ATOM     13  C   UNL     1      33.613 -15.110 -25.096  0.00  0.00    -0.002 C 
ATOM     14  C   UNL     1      34.111 -13.621 -22.734  0.00  0.00    +0.004 C 
ATOM     15  C   UNL     1      33.505 -13.715 -25.091  0.00  0.00    -0.000 C 
ATOM     16  C   UNL     1      33.753 -12.977 -23.920  0.00  0.00    +0.000 C 
ENDBRANCH   1   8
BRANCH   2  17
ATOM     17  C   UNL     1      35.656 -21.949 -19.305  0.00  0.00    +0.121 C 
ATOM     18  C   UNL     1      36.491 -21.712 -18.031  0.00  0.00    +0.016 C 
BRANCH  17  20
ATOM     19  O   UNL     1      33.679 -22.438 -17.954  0.00  0.00    -0.250 OA
ATOM     20  C   UNL     1      34.391 -22.720 -18.909  0.00  0.00    +0.317 C 
BRANCH  20  21
ATOM     21  O   UNL     1      34.129 -23.772 -19.729  0.00  0.00    -0.480 OA
ATOM     22  H   UNL     1      33.460 -24.388 -19.501  0.00  0.00    +0.295 HD
ENDBRANCH  20  21
ENDBRANCH  17  20
ENDBRANCH   2  17
TORSDOF 4
ENDMDL
MODEL 2
REMARK VINA RESULT:     -10.1      1.044      1.658
REMARK  Name = 3718
REMARK  4 active torsions:
REMARK  status: ('A' for Active; 'I' for Inactive)
REMARK    1  A    between atoms: C_1  and  N_8
REMARK    2  A    between atoms: C_2  and  C_17
REMARK    3  A    between atoms: C_17  and  C_20
REMARK    4  A    between atoms: C_20  and  O_21
REMARK                            x       y       z     vdW  Elec       q    Type
REMARK                         _______ _______ _______ _____ _____    ______ ____
ROOT
ATOM      1  C   UNL     1      34.791 -18.362 -21.579  0.00  0.00    +0.054 C 
ATOM      2  C   UNL     1      35.381 -20.671 -20.117  0.00  0.00    -0.012 C 
ATOM      3  C   UNL     1      36.115 -18.674 -21.261  0.00  0.00    +0.015 C 
ATOM      4  C   UNL     1      33.762 -19.212 -21.162  0.00  0.00    +0.015 C 
ATOM      5  C   UNL     1      36.410 -19.826 -20.532  0.00  0.00    -0.002 C 
ATOM      6  C   UNL     1      34.057 -20.364 -20.432  0.00  0.00    -0.002 C 
ENDROOT
BRANCH   1   8
ATOM      7  O   UNL     1      34.303 -18.108 -24.493  0.00  0.00    -0.270 OA
ATOM      8  N   UNL     1      34.497 -17.214 -22.304  0.00  0.00    -0.251 N 
ATOM      9  C   UNL     1      34.375 -15.877 -21.718  0.00  0.00    +0.125 C 
ATOM     10  C   UNL     1      34.058 -15.024 -22.896  0.00  0.00    +0.002 C 
ATOM     11  C   UNL     1      34.002 -15.796 -24.050  0.00  0.00    +0.052 C 
ATOM     12  C   UNL     1      34.279 -17.191 -23.691  0.00  0.00    +0.253 C 
ATOM     13  C   UNL     1      33.832 -13.661 -22.953  0.00  0.00    -0.002 C 
ATOM     14  C   UNL     1      33.724 -15.258 -25.294  0.00  0.00    +0.004 C 
ATOM     15  C   UNL     1      33.548 -13.091 -24.199  0.00  0.00    -0.000 C 
ATOM     16  C   UNL     1      33.494 -13.883 -25.359  0.00  0.00    +0.000 C 
ENDBRANCH   1   8
BRANCH   2  17
ATOM     17  C   UNL     1      35.696 -21.902 -19.338  0.00  0.00    +0.121 C 
ATOM     18  C   UNL     1      36.549 -21.645 -18.079  0.00  0.00    +0.016 C 
BRANCH  17  20
ATOM     19  O   UNL     1      33.762 -22.408 -17.932  0.00  0.00    -0.250 OA
ATOM     20  C   UNL     1      34.441 -22.675 -18.915  0.00  0.00    +0.317 C 
BRANCH  20  21
ATOM     21  O   UNL     1      34.148 -23.712 -19.744  0.00  0.00    -0.480 OA
ATOM     22  H   UNL     1      34.574 -24.539 -19.628  0.00  0.00    +0.295 HD
ENDBRANCH  20  21
ENDBRANCH  17  20
ENDBRANCH   2  17
TORSDOF 4
ENDMDL
MODEL 3
REMARK VINA RESULT:      -9.6      2.177      7.776
REMARK  Name = 3718
REMARK  4 active torsions:
REMARK  status: ('A' for Active; 'I' for Inactive)
REMARK    1  A    between atoms: C_1  and  N_8
REMARK    2  A    between atoms: C_2  and  C_17
REMARK    3  A    between atoms: C_17  and  C_20
REMARK    4  A    between atoms: C_20  and  O_21
REMARK                            x       y       z     vdW  Elec       q    Type
REMARK                         _______ _______ _______ _____ _____    ______ ____
ROOT
ATOM      1  C   UNL     1      34.379 -17.313 -22.320  0.00  0.00    +0.054 C 
ATOM      2  C   UNL     1      34.132 -15.010 -23.884  0.00  0.00    -0.012 C 
ATOM      3  C   UNL     1      34.416 -17.402 -23.714  0.00  0.00    +0.015 C 
ATOM      4  C   UNL     1      34.218 -16.064 -21.712  0.00  0.00    +0.015 C 
ATOM      5  C   UNL     1      34.292 -16.253 -24.495  0.00  0.00    -0.002 C 
ATOM      6  C   UNL     1      34.095 -14.915 -22.493  0.00  0.00    -0.002 C 
ENDROOT
BRANCH   1   8
ATOM      7  O   UNL     1      36.861 -18.654 -21.404  0.00  0.00    -0.270 OA
ATOM      8  N   UNL     1      34.501 -18.458 -21.542  0.00  0.00    -0.251 N 
ATOM      9  C   UNL     1      33.368 -19.226 -21.022  0.00  0.00    +0.125 C 
ATOM     10  C   UNL     1      34.028 -20.329 -20.272  0.00  0.00    +0.002 C 
ATOM     11  C   UNL     1      35.410 -20.207 -20.350  0.00  0.00    +0.052 C 
ATOM     12  C   UNL     1      35.728 -19.022 -21.155  0.00  0.00    +0.253 C 
ATOM     13  C   UNL     1      33.455 -21.370 -19.564  0.00  0.00    -0.002 C 
ATOM     14  C   UNL     1      36.273 -21.099 -19.740  0.00  0.00    +0.004 C 
ATOM     15  C   UNL     1      34.305 -22.288 -18.937  0.00  0.00    -0.000 C 
ATOM     16  C   UNL     1      35.702 -22.153 -19.024  0.00  0.00    +0.000 C 
ENDBRANCH   1   8
BRANCH   2  17
ATOM     17  C   UNL     1      34.000 -13.781 -24.720  0.00  0.00    +0.121 C 
ATOM     18  C   UNL     1      33.029 -13.934 -25.908  0.00  0.00    +0.016 C 
BRANCH  17  20
ATOM     19  O   UNL     1      32.536 -12.482 -23.256  0.00  0.00    -0.250 OA
ATOM     20  C   UNL     1      33.571 -12.554 -23.907  0.00  0.00    +0.317 C 
BRANCH  20  21
ATOM     21  O   UNL     1      34.459 -11.527 -23.982  0.00  0.00    -0.480 OA
ATOM     22  H   UNL     1      34.534 -10.920 -23.271  0.00  0.00    +0.295 HD
ENDBRANCH  20  21
ENDBRANCH  17  20
ENDBRANCH   2  17
TORSDOF 4
ENDMDL
MODEL 4
REMARK VINA RESULT:      -9.5      2.478      7.779
REMARK  Name = 3718
REMARK  4 active torsions:
REMARK  status: ('A' for Active; 'I' for Inactive)
REMARK    1  A    between atoms: C_1  and  N_8
REMARK    2  A    between atoms: C_2  and  C_17
REMARK    3  A    between atoms: C_17  and  C_20
REMARK    4  A    between atoms: C_20  and  O_21
REMARK                            x       y       z     vdW  Elec       q    Type
REMARK                         _______ _______ _______ _____ _____    ______ ____
ROOT
ATOM      1  C   UNL     1      34.333 -17.195 -22.503  0.00  0.00    +0.054 C 
ATOM      2  C   UNL     1      33.532 -15.047 -24.103  0.00  0.00    -0.012 C 
ATOM      3  C   UNL     1      33.664 -16.106 -21.936  0.00  0.00    +0.015 C 
ATOM      4  C   UNL     1      34.598 -17.203 -23.876  0.00  0.00    +0.015 C 
ATOM      5  C   UNL     1      33.264 -15.035 -22.734  0.00  0.00    -0.002 C 
ATOM      6  C   UNL     1      34.198 -16.131 -24.674  0.00  0.00    -0.002 C 
ENDROOT
BRANCH   1   8
ATOM      7  O   UNL     1      32.635 -19.250 -21.204  0.00  0.00    -0.270 OA
ATOM      8  N   UNL     1      34.732 -18.263 -21.708  0.00  0.00    -0.251 N 
ATOM      9  C   UNL     1      36.124 -18.560 -21.366  0.00  0.00    +0.125 C 
ATOM     10  C   UNL     1      36.006 -19.775 -20.515  0.00  0.00    +0.002 C 
ATOM     11  C   UNL     1      34.673 -20.144 -20.381  0.00  0.00    +0.052 C 
ATOM     12  C   UNL     1      33.849 -19.191 -21.133  0.00  0.00    +0.253 C 
ATOM     13  C   UNL     1      37.002 -20.512 -19.900  0.00  0.00    -0.002 C 
ATOM     14  C   UNL     1      34.274 -21.242 -19.640  0.00  0.00    +0.004 C 
ATOM     15  C   UNL     1      36.627 -21.628 -19.145  0.00  0.00    -0.000 C 
ATOM     16  C   UNL     1      35.274 -21.990 -19.017  0.00  0.00    +0.000 C 
ENDBRANCH   1   8
BRANCH   2  17
ATOM     17  C   UNL     1      33.104 -13.901 -24.956  0.00  0.00    +0.121 C 
ATOM     18  C   UNL     1      33.971 -12.636 -24.785  0.00  0.00    +0.016 C 
BRANCH  17  20
ATOM     19  O   UNL     1      33.843 -13.817 -27.284  0.00  0.00    -0.250 OA
ATOM     20  C   UNL     1      33.063 -14.254 -26.448  0.00  0.00    +0.317 C 
BRANCH  20  21
ATOM     21  O   UNL     1      32.054 -15.108 -26.766  0.00  0.00    -0.480 OA
ATOM     22  H   UNL     1      31.479 -15.423 -26.096  0.00  0.00    +0.295 HD
ENDBRANCH  20  21
ENDBRANCH  17  20
ENDBRANCH   2  17
TORSDOF 4
ENDMDL
MODEL 5
REMARK VINA RESULT:      -9.5      4.654      9.348
REMARK  Name = 3718
REMARK  4 active torsions:
REMARK  status: ('A' for Active; 'I' for Inactive)
REMARK    1  A    between atoms: C_1  and  N_8
REMARK    2  A    between atoms: C_2  and  C_17
REMARK    3  A    between atoms: C_17  and  C_20
REMARK    4  A    between atoms: C_20  and  O_21
REMARK                            x       y       z     vdW  Elec       q    Type
REMARK                         _______ _______ _______ _____ _____    ______ ____
ROOT
ATOM      1  C   UNL     1      33.568 -12.876 -23.692  0.00  0.00    +0.054 C 
ATOM      2  C   UNL     1      32.909 -10.163 -23.565  0.00  0.00    -0.012 C 
ATOM      3  C   UNL     1      32.617 -12.426 -22.773  0.00  0.00    +0.015 C 
ATOM      4  C   UNL     1      34.188 -11.961 -24.549  0.00  0.00    +0.015 C 
ATOM      5  C   UNL     1      32.288 -11.072 -22.709  0.00  0.00    -0.002 C 
ATOM      6  C   UNL     1      33.859 -10.607 -24.485  0.00  0.00    -0.002 C 
ENDROOT
BRANCH   1   8
ATOM      7  O   UNL     1      33.093 -14.778 -25.918  0.00  0.00    -0.270 OA
ATOM      8  N   UNL     1      33.897 -14.225 -23.756  0.00  0.00    -0.251 N 
ATOM      9  C   UNL     1      34.564 -14.962 -22.680  0.00  0.00    +0.125 C 
ATOM     10  C   UNL     1      34.681 -16.336 -23.240  0.00  0.00    +0.002 C 
ATOM     11  C   UNL     1      34.135 -16.386 -24.517  0.00  0.00    +0.052 C 
ATOM     12  C   UNL     1      33.631 -15.051 -24.860  0.00  0.00    +0.253 C 
ATOM     13  C   UNL     1      35.232 -17.469 -22.669  0.00  0.00    -0.002 C 
ATOM     14  C   UNL     1      34.110 -17.544 -25.273  0.00  0.00    +0.004 C 
ATOM     15  C   UNL     1      35.220 -18.654 -23.412  0.00  0.00    -0.000 C 
ATOM     16  C   UNL     1      34.665 -18.691 -24.703  0.00  0.00    +0.000 C 
ENDBRANCH   1   8
BRANCH   2  17
ATOM     17  C   UNL     1      32.557  -8.715 -23.496  0.00  0.00    +0.121 C 
ATOM     18  C   UNL     1      31.071  -8.446 -23.188  0.00  0.00    +0.016 C 
BRANCH  17  20
ATOM     19  O   UNL     1      33.093  -7.785 -21.301  0.00  0.00    -0.250 OA
ATOM     20  C   UNL     1      33.403  -7.947 -22.474  0.00  0.00    +0.317 C 
BRANCH  20  21
ATOM     21  O   UNL     1      34.551  -7.443 -23.002  0.00  0.00    -0.480 OA
ATOM     22  H   UNL     1      35.353  -7.503 -22.520  0.00  0.00    +0.295 HD
ENDBRANCH  20  21
ENDBRANCH  17  20
ENDBRANCH   2  17
TORSDOF 4
ENDMDL
MODEL 6
REMARK VINA RESULT:      -9.5      4.071      9.254
REMARK  Name = 3718
REMARK  4 active torsions:
REMARK  status: ('A' for Active; 'I' for Inactive)
REMARK    1  A    between atoms: C_1  and  N_8
REMARK    2  A    between atoms: C_2  and  C_17
REMARK    3  A    between atoms: C_17  and  C_20
REMARK    4  A    between atoms: C_20  and  O_21
REMARK                            x       y       z     vdW  Elec       q    Type
REMARK                         _______ _______ _______ _____ _____    ______ ____
ROOT
ATOM      1  C   UNL     1      33.549 -12.790 -23.767  0.00  0.00    +0.054 C 
ATOM      2  C   UNL     1      32.938 -10.065 -23.631  0.00  0.00    -0.012 C 
ATOM      3  C   UNL     1      32.611 -12.325 -22.842  0.00  0.00    +0.015 C 
ATOM      4  C   UNL     1      34.180 -11.884 -24.625  0.00  0.00    +0.015 C 
ATOM      5  C   UNL     1      32.306 -10.965 -22.774  0.00  0.00    -0.002 C 
ATOM      6  C   UNL     1      33.875 -10.524 -24.557  0.00  0.00    -0.002 C 
ENDROOT
BRANCH   1   8
ATOM      7  O   UNL     1      34.731 -14.512 -21.662  0.00  0.00    -0.270 OA
ATOM      8  N   UNL     1      33.854 -14.144 -23.834  0.00  0.00    -0.251 N 
ATOM      9  C   UNL     1      33.630 -14.981 -25.015  0.00  0.00    +0.125 C 
ATOM     10  C   UNL     1      34.115 -16.317 -24.574  0.00  0.00    +0.002 C 
ATOM     11  C   UNL     1      34.573 -16.256 -23.263  0.00  0.00    +0.052 C 
ATOM     12  C   UNL     1      34.415 -14.880 -22.779  0.00  0.00    +0.253 C 
ATOM     13  C   UNL     1      34.150 -17.509 -25.274  0.00  0.00    -0.002 C 
ATOM     14  C   UNL     1      35.080 -17.358 -22.599  0.00  0.00    +0.004 C 
ATOM     15  C   UNL     1      34.658 -18.640 -24.626  0.00  0.00    -0.000 C 
ATOM     16  C   UNL     1      35.119 -18.565 -23.299  0.00  0.00    +0.000 C 
ENDBRANCH   1   8
BRANCH   2  17
ATOM     17  C   UNL     1      32.611  -8.612 -23.558  0.00  0.00    +0.121 C 
ATOM     18  C   UNL     1      31.129  -8.318 -23.253  0.00  0.00    +0.016 C 
BRANCH  17  20
ATOM     19  O   UNL     1      33.107  -7.598 -21.390  0.00  0.00    -0.250 OA
ATOM     20  C   UNL     1      33.468  -7.862 -22.530  0.00  0.00    +0.317 C 
BRANCH  20  21
ATOM     21  O   UNL     1      34.687  -7.503 -23.012  0.00  0.00    -0.480 OA
ATOM     22  H   UNL     1      34.968  -6.611 -22.956  0.00  0.00    +0.295 HD
ENDBRANCH  20  21
ENDBRANCH  17  20
ENDBRANCH   2  17
TORSDOF 4
ENDMDL
MODEL 7
REMARK VINA RESULT:      -9.4      9.189     11.277
REMARK  Name = 3718
REMARK  4 active torsions:
REMARK  status: ('A' for Active; 'I' for Inactive)
REMARK    1  A    between atoms: C_1  and  N_8
REMARK    2  A    between atoms: C_2  and  C_17
REMARK    3  A    between atoms: C_17  and  C_20
REMARK    4  A    between atoms: C_20  and  O_21
REMARK                            x       y       z     vdW  Elec       q    Type
REMARK                         _______ _______ _______ _____ _____    ______ ____
ROOT
ATOM      1  C   UNL     1      32.790 -24.247 -14.516  0.00  0.00    +0.054 C 
ATOM      2  C   UNL     1      30.097 -23.728 -15.055  0.00  0.00    -0.012 C 
ATOM      3  C   UNL     1      32.433 -23.204 -15.374  0.00  0.00    +0.015 C 
ATOM      4  C   UNL     1      31.791 -25.029 -13.928  0.00  0.00    +0.015 C 
ATOM      5  C   UNL     1      31.089 -22.944 -15.643  0.00  0.00    -0.002 C 
ATOM      6  C   UNL     1      30.448 -24.770 -14.197  0.00  0.00    -0.002 C 
ENDROOT
BRANCH   1   8
ATOM      7  O   UNL     1      34.298 -23.715 -12.018  0.00  0.00    -0.270 OA
ATOM      8  N   UNL     1      34.129 -24.506 -14.247  0.00  0.00    -0.251 N 
ATOM      9  C   UNL     1      35.058 -25.114 -15.203  0.00  0.00    +0.125 C 
ATOM     10  C   UNL     1      36.333 -25.169 -14.438  0.00  0.00    +0.002 C 
ATOM     11  C   UNL     1      36.156 -24.645 -13.163  0.00  0.00    +0.052 C 
ATOM     12  C   UNL     1      34.759 -24.218 -13.026  0.00  0.00    +0.253 C 
ATOM     13  C   UNL     1      37.569 -25.650 -14.832  0.00  0.00    -0.002 C 
ATOM     14  C   UNL     1      37.180 -24.574 -12.237  0.00  0.00    +0.004 C 
ATOM     15  C   UNL     1      38.623 -25.590 -13.915  0.00  0.00    -0.000 C 
ATOM     16  C   UNL     1      38.430 -25.058 -12.628  0.00  0.00    +0.000 C 
ENDBRANCH   1   8
BRANCH   2  17
ATOM     17  C   UNL     1      28.660 -23.450 -15.344  0.00  0.00    +0.121 C 
ATOM     18  C   UNL     1      28.186 -22.057 -14.882  0.00  0.00    +0.016 C 
BRANCH  17  20
ATOM     19  O   UNL     1      28.010 -24.664 -17.362  0.00  0.00    -0.250 OA
ATOM     20  C   UNL     1      28.313 -23.604 -16.829  0.00  0.00    +0.317 C 
BRANCH  20  21
ATOM     21  O   UNL     1      28.380 -22.434 -17.517  0.00  0.00    -0.480 OA
ATOM     22  H   UNL     1      29.040 -21.803 -17.305  0.00  0.00    +0.295 HD
ENDBRANCH  20  21
ENDBRANCH  17  20
ENDBRANCH   2  17
TORSDOF 4
ENDMDL
MODEL 8
REMARK VINA RESULT:      -9.4      4.455      7.566
REMARK  Name = 3718
REMARK  4 active torsions:
REMARK  status: ('A' for Active; 'I' for Inactive)
REMARK    1  A    between atoms: C_1  and  N_8
REMARK    2  A    between atoms: C_2  and  C_17
REMARK    3  A    between atoms: C_17  and  C_20
REMARK    4  A    between atoms: C_20  and  O_21
REMARK                            x       y       z     vdW  Elec       q    Type
REMARK                         _______ _______ _______ _____ _____    ______ ____
ROOT
ATOM      1  C   UNL     1      35.833 -23.205 -16.274  0.00  0.00    +0.054 C 
ATOM      2  C   UNL     1      36.461 -24.688 -13.989  0.00  0.00    -0.012 C 
ATOM      3  C   UNL     1      37.121 -23.153 -15.734  0.00  0.00    +0.015 C 
ATOM      4  C   UNL     1      34.861 -24.003 -15.664  0.00  0.00    +0.015 C 
ATOM      5  C   UNL     1      37.435 -23.893 -14.594  0.00  0.00    -0.002 C 
ATOM      6  C   UNL     1      35.174 -24.743 -14.524  0.00  0.00    -0.002 C 
ENDROOT
BRANCH   1   8
ATOM      7  O   UNL     1      33.183 -22.845 -17.556  0.00  0.00    -0.270 OA
ATOM      8  N   UNL     1      35.521 -22.468 -17.410  0.00  0.00    -0.251 N 
ATOM      9  C   UNL     1      36.498 -21.712 -18.197  0.00  0.00    +0.125 C 
ATOM     10  C   UNL     1      35.667 -21.119 -19.280  0.00  0.00    +0.002 C 
ATOM     11  C   UNL     1      34.337 -21.495 -19.130  0.00  0.00    +0.052 C 
ATOM     12  C   UNL     1      34.228 -22.354 -17.945  0.00  0.00    +0.253 C 
ATOM     13  C   UNL     1      36.050 -20.301 -20.327  0.00  0.00    -0.002 C 
ATOM     14  C   UNL     1      33.344 -21.084 -20.000  0.00  0.00    +0.004 C 
ATOM     15  C   UNL     1      35.064 -19.870 -21.222  0.00  0.00    -0.000 C 
ATOM     16  C   UNL     1      33.723 -20.258 -21.059  0.00  0.00    +0.000 C 
ENDBRANCH   1   8
BRANCH   2  17
ATOM     17  C   UNL     1      36.797 -25.478 -12.769  0.00  0.00    +0.121 C 
ATOM     18  C   UNL     1      38.301 -25.775 -12.611  0.00  0.00    +0.016 C 
BRANCH  17  20
ATOM     19  O   UNL     1      35.231 -25.063 -10.940  0.00  0.00    -0.250 OA
ATOM     20  C   UNL     1      36.302 -24.815 -11.478  0.00  0.00    +0.317 C 
BRANCH  20  21
ATOM     21  O   UNL     1      37.177 -23.902 -10.978  0.00  0.00    -0.480 OA
ATOM     22  H   UNL     1      38.094 -24.094 -10.959  0.00  0.00    +0.295 HD
ENDBRANCH  20  21
ENDBRANCH  17  20
ENDBRANCH   2  17
TORSDOF 4
ENDMDL
MODEL 9
REMARK VINA RESULT:      -9.3      9.134     11.260
REMARK  Name = 3718
REMARK  4 active torsions:
REMARK  status: ('A' for Active; 'I' for Inactive)
REMARK    1  A    between atoms: C_1  and  N_8
REMARK    2  A    between atoms: C_2  and  C_17
REMARK    3  A    between atoms: C_17  and  C_20
REMARK    4  A    between atoms: C_20  and  O_21
REMARK                            x       y       z     vdW  Elec       q    Type
REMARK                         _______ _______ _______ _____ _____    ______ ____
ROOT
ATOM      1  C   UNL     1      32.681 -24.113 -14.387  0.00  0.00    +0.054 C 
ATOM      2  C   UNL     1      29.990 -23.710 -15.027  0.00  0.00    -0.012 C 
ATOM      3  C   UNL     1      31.718 -25.052 -14.004  0.00  0.00    +0.015 C 
ATOM      4  C   UNL     1      32.289 -22.972 -15.092  0.00  0.00    +0.015 C 
ATOM      5  C   UNL     1      30.376 -24.850 -14.323  0.00  0.00    -0.002 C 
ATOM      6  C   UNL     1      30.946 -22.770 -15.411  0.00  0.00    -0.002 C 
ENDROOT
BRANCH   1   8
ATOM      7  O   UNL     1      34.961 -24.546 -16.232  0.00  0.00    -0.270 OA
ATOM      8  N   UNL     1      34.019 -24.313 -14.068  0.00  0.00    -0.251 N 
ATOM      9  C   UNL     1      34.545 -24.344 -12.702  0.00  0.00    +0.125 C 
ATOM     10  C   UNL     1      35.999 -24.583 -12.910  0.00  0.00    +0.002 C 
ATOM     11  C   UNL     1      36.284 -24.678 -14.267  0.00  0.00    +0.052 C 
ATOM     12  C   UNL     1      35.034 -24.510 -15.018  0.00  0.00    +0.253 C 
ATOM     13  C   UNL     1      37.008 -24.705 -11.972  0.00  0.00    -0.002 C 
ATOM     14  C   UNL     1      37.562 -24.898 -14.747  0.00  0.00    +0.004 C 
ATOM     15  C   UNL     1      38.311 -24.928 -12.430  0.00  0.00    -0.000 C 
ATOM     16  C   UNL     1      38.586 -25.023 -13.805  0.00  0.00    +0.000 C 
ENDBRANCH   1   8
BRANCH   2  17
ATOM     17  C   UNL     1      28.554 -23.495 -15.367  0.00  0.00    +0.121 C 
ATOM     18  C   UNL     1      28.007 -22.119 -14.937  0.00  0.00    +0.016 C 
BRANCH  17  20
ATOM     19  O   UNL     1      27.971 -24.746 -17.384  0.00  0.00    -0.250 OA
ATOM     20  C   UNL     1      28.264 -23.678 -16.862  0.00  0.00    +0.317 C 
BRANCH  20  21
ATOM     21  O   UNL     1      28.374 -22.524 -17.572  0.00  0.00    -0.480 OA
ATOM     22  H   UNL     1      27.694 -22.274 -18.167  0.00  0.00    +0.295 HD
ENDBRANCH  20  21
ENDBRANCH  17  20
ENDBRANCH   2  17
TORSDOF 4
ENDMDL
