MODEL 1
REMARK VINA RESULT:      -6.5      0.000      0.000
REMARK  Name = 4133
REMARK  3 active torsions:
REMARK  status: ('A' for Active; 'I' for Inactive)
REMARK    1  A    between atoms: C_1  and  C_10
REMARK    2  A    between atoms: C_2  and  O_7
REMARK    3  A    between atoms: C_10  and  O_11
REMARK                            x       y       z     vdW  Elec       q    Type
REMARK                         _______ _______ _______ _____ _____    ______ ____
ROOT
ATOM      1  C   UNL     1      34.283 -21.460 -19.640  0.00  0.00    +0.109 C 
ATOM      2  C   UNL     1      35.432 -20.841 -20.131  0.00  0.00    +0.140 C 
ATOM      3  C   UNL     1      33.029 -20.904 -19.891  0.00  0.00    +0.009 C 
ATOM      4  C   UNL     1      35.327 -19.663 -20.872  0.00  0.00    +0.037 C 
ATOM      5  C   UNL     1      32.923 -19.727 -20.631  0.00  0.00    +0.000 C 
ATOM      6  C   UNL     1      34.072 -19.107 -21.121  0.00  0.00    +0.003 C 
ENDROOT
BRANCH   2   7
ATOM      7  O   UNL     1      36.667 -21.367 -19.897  0.00  0.00    -0.505 OA
ATOM      8  H   UNL     1      37.425 -20.817 -19.936  0.00  0.00    +0.292 HD
ENDBRANCH   2   7
BRANCH   1  10
ATOM      9  O   UNL     1      33.833 -23.757 -19.183  0.00  0.00    -0.245 OA
ATOM     10  C   UNL     1      34.371 -22.690 -18.865  0.00  0.00    +0.344 C 
BRANCH  10  11
ATOM     11  O   UNL     1      35.127 -22.519 -17.737  0.00  0.00    -0.441 OA
ATOM     12  C   UNL     1      34.608 -23.069 -16.522  0.00  0.00    +0.256 C 
ENDBRANCH  10  11
ENDBRANCH   1  10
TORSDOF 3
ENDMDL
MODEL 2
REMARK VINA RESULT:      -6.5      1.210      2.083
REMARK  Name = 4133
REMARK  3 active torsions:
REMARK  status: ('A' for Active; 'I' for Inactive)
REMARK    1  A    between atoms: C_1  and  C_10
REMARK    2  A    between atoms: C_2  and  O_7
REMARK    3  A    between atoms: C_10  and  O_11
REMARK                            x       y       z     vdW  Elec       q    Type
REMARK                         _______ _______ _______ _____ _____    ______ ____
ROOT
ATOM      1  C   UNL     1      34.902 -21.365 -19.681  0.00  0.00    +0.109 C 
ATOM      2  C   UNL     1      33.933 -20.555 -20.271  0.00  0.00    +0.140 C 
ATOM      3  C   UNL     1      36.250 -21.016 -19.766  0.00  0.00    +0.009 C 
ATOM      4  C   UNL     1      34.311 -19.395 -20.948  0.00  0.00    +0.037 C 
ATOM      5  C   UNL     1      36.629 -19.857 -20.443  0.00  0.00    +0.000 C 
ATOM      6  C   UNL     1      35.660 -19.047 -21.034  0.00  0.00    +0.003 C 
ENDROOT
BRANCH   2   7
ATOM      7  O   UNL     1      32.611 -20.878 -20.199  0.00  0.00    -0.505 OA
ATOM      8  H   UNL     1      32.281 -21.337 -19.452  0.00  0.00    +0.292 HD
ENDBRANCH   2   7
BRANCH   1  10
ATOM      9  O   UNL     1      33.830 -23.482 -19.445  0.00  0.00    -0.245 OA
ATOM     10  C   UNL     1      34.528 -22.579 -18.969  0.00  0.00    +0.344 C 
BRANCH  10  11
ATOM     11  O   UNL     1      35.048 -22.599 -17.703  0.00  0.00    -0.441 OA
ATOM     12  C   UNL     1      34.230 -23.170 -16.678  0.00  0.00    +0.256 C 
ENDBRANCH  10  11
ENDBRANCH   1  10
TORSDOF 3
ENDMDL
MODEL 3
REMARK VINA RESULT:      -6.5      2.406      4.491
REMARK  Name = 4133
REMARK  3 active torsions:
REMARK  status: ('A' for Active; 'I' for Inactive)
REMARK    1  A    between atoms: C_1  and  C_10
REMARK    2  A    between atoms: C_2  and  O_7
REMARK    3  A    between atoms: C_10  and  O_11
REMARK                            x       y       z     vdW  Elec       q    Type
REMARK                         _______ _______ _______ _____ _____    ______ ____
ROOT
ATOM      1  C   UNL     1      34.783 -20.179 -20.521  0.00  0.00    +0.109 C 
ATOM      2  C   UNL     1      33.521 -20.674 -20.195  0.00  0.00    +0.140 C 
ATOM      3  C   UNL     1      35.923 -20.743 -19.948  0.00  0.00    +0.009 C 
ATOM      4  C   UNL     1      33.397 -21.731 -19.293  0.00  0.00    +0.037 C 
ATOM      5  C   UNL     1      35.800 -21.801 -19.046  0.00  0.00    +0.000 C 
ATOM      6  C   UNL     1      34.538 -22.294 -18.719  0.00  0.00    +0.003 C 
ENDROOT
BRANCH   2   7
ATOM      7  O   UNL     1      32.395 -20.137 -20.743  0.00  0.00    -0.505 OA
ATOM      8  H   UNL     1      32.317 -20.064 -21.674  0.00  0.00    +0.292 HD
ENDBRANCH   2   7
BRANCH   1  10
ATOM      9  O   UNL     1      34.571 -19.110 -22.641  0.00  0.00    -0.245 OA
ATOM     10  C   UNL     1      34.934 -19.077 -21.460  0.00  0.00    +0.344 C 
BRANCH  10  11
ATOM     11  O   UNL     1      35.529 -17.994 -20.871  0.00  0.00    -0.441 OA
ATOM     12  C   UNL     1      34.858 -16.737 -21.003  0.00  0.00    +0.256 C 
ENDBRANCH  10  11
ENDBRANCH   1  10
TORSDOF 3
ENDMDL
MODEL 4
REMARK VINA RESULT:      -6.4      2.312      4.263
REMARK  Name = 4133
REMARK  3 active torsions:
REMARK  status: ('A' for Active; 'I' for Inactive)
REMARK    1  A    between atoms: C_1  and  C_10
REMARK    2  A    between atoms: C_2  and  O_7
REMARK    3  A    between atoms: C_10  and  O_11
REMARK                            x       y       z     vdW  Elec       q    Type
REMARK                         _______ _______ _______ _____ _____    ______ ____
ROOT
ATOM      1  C   UNL     1      34.622 -19.636 -20.752  0.00  0.00    +0.109 C 
ATOM      2  C   UNL     1      35.712 -20.339 -20.242  0.00  0.00    +0.140 C 
ATOM      3  C   UNL     1      33.326 -20.104 -20.534  0.00  0.00    +0.009 C 
ATOM      4  C   UNL     1      35.508 -21.512 -19.515  0.00  0.00    +0.037 C 
ATOM      5  C   UNL     1      33.121 -21.277 -19.807  0.00  0.00    +0.000 C 
ATOM      6  C   UNL     1      34.212 -21.980 -19.297  0.00  0.00    +0.003 C 
ENDROOT
BRANCH   2   7
ATOM      7  O   UNL     1      36.987 -19.899 -20.444  0.00  0.00    -0.505 OA
ATOM      8  H   UNL     1      37.187 -18.988 -20.354  0.00  0.00    +0.292 HD
ENDBRANCH   2   7
BRANCH   1  10
ATOM      9  O   UNL     1      34.558 -18.287 -22.717  0.00  0.00    -0.245 OA
ATOM     10  C   UNL     1      34.813 -18.410 -21.514  0.00  0.00    +0.344 C 
BRANCH  10  11
ATOM     11  O   UNL     1      35.312 -17.405 -20.730  0.00  0.00    -0.441 OA
ATOM     12  C   UNL     1      34.725 -16.110 -20.890  0.00  0.00    +0.256 C 
ENDBRANCH  10  11
ENDBRANCH   1  10
TORSDOF 3
ENDMDL
MODEL 5
REMARK VINA RESULT:      -6.3      5.618      7.374
REMARK  Name = 4133
REMARK  3 active torsions:
REMARK  status: ('A' for Active; 'I' for Inactive)
REMARK    1  A    between atoms: C_1  and  C_10
REMARK    2  A    between atoms: C_2  and  O_7
REMARK    3  A    between atoms: C_10  and  O_11
REMARK                            x       y       z     vdW  Elec       q    Type
REMARK                         _______ _______ _______ _____ _____    ______ ____
ROOT
ATOM      1  C   UNL     1      29.315 -23.675 -16.079  0.00  0.00    +0.109 C 
ATOM      2  C   UNL     1      30.561 -23.071 -16.245  0.00  0.00    +0.140 C 
ATOM      3  C   UNL     1      29.121 -24.605 -15.058  0.00  0.00    +0.009 C 
ATOM      4  C   UNL     1      31.614 -23.398 -15.391  0.00  0.00    +0.037 C 
ATOM      5  C   UNL     1      30.174 -24.933 -14.204  0.00  0.00    +0.000 C 
ATOM      6  C   UNL     1      31.420 -24.329 -14.370  0.00  0.00    +0.003 C 
ENDROOT
BRANCH   2   7
ATOM      7  O   UNL     1      30.771 -22.160 -17.237  0.00  0.00    -0.505 OA
ATOM      8  H   UNL     1      30.850 -21.250 -17.027  0.00  0.00    +0.292 HD
ENDBRANCH   2   7
BRANCH   1  10
ATOM      9  O   UNL     1      27.601 -24.168 -17.661  0.00  0.00    -0.245 OA
ATOM     10  C   UNL     1      28.202 -23.347 -16.959  0.00  0.00    +0.344 C 
BRANCH  10  11
ATOM     11  O   UNL     1      27.903 -22.013 -16.913  0.00  0.00    -0.441 OA
ATOM     12  C   UNL     1      26.582 -21.633 -17.313  0.00  0.00    +0.256 C 
ENDBRANCH  10  11
ENDBRANCH   1  10
TORSDOF 3
ENDMDL
MODEL 6
REMARK VINA RESULT:      -6.2      4.821      6.276
REMARK  Name = 4133
REMARK  3 active torsions:
REMARK  status: ('A' for Active; 'I' for Inactive)
REMARK    1  A    between atoms: C_1  and  C_10
REMARK    2  A    between atoms: C_2  and  O_7
REMARK    3  A    between atoms: C_10  and  O_11
REMARK                            x       y       z     vdW  Elec       q    Type
REMARK                         _______ _______ _______ _____ _____    ______ ____
ROOT
ATOM      1  C   UNL     1      34.637 -16.959 -21.845  0.00  0.00    +0.109 C 
ATOM      2  C   UNL     1      35.185 -17.042 -23.124  0.00  0.00    +0.140 C 
ATOM      3  C   UNL     1      34.188 -18.111 -21.202  0.00  0.00    +0.009 C 
ATOM      4  C   UNL     1      35.284 -18.279 -23.762  0.00  0.00    +0.037 C 
ATOM      5  C   UNL     1      34.286 -19.349 -21.838  0.00  0.00    +0.000 C 
ATOM      6  C   UNL     1      34.834 -19.433 -23.118  0.00  0.00    +0.003 C 
ENDROOT
BRANCH   2   7
ATOM      7  O   UNL     1      35.629 -15.928 -23.771  0.00  0.00    -0.505 OA
ATOM      8  H   UNL     1      36.168 -15.308 -23.319  0.00  0.00    +0.292 HD
ENDBRANCH   2   7
BRANCH   1  10
ATOM      9  O   UNL     1      34.923 -15.461 -20.012  0.00  0.00    -0.245 OA
ATOM     10  C   UNL     1      34.525 -15.677 -21.163  0.00  0.00    +0.344 C 
BRANCH  10  11
ATOM     11  O   UNL     1      33.924 -14.737 -21.955  0.00  0.00    -0.441 OA
ATOM     12  C   UNL     1      32.517 -14.546 -21.776  0.00  0.00    +0.256 C 
ENDBRANCH  10  11
ENDBRANCH   1  10
TORSDOF 3
ENDMDL
MODEL 7
REMARK VINA RESULT:      -6.2      3.348      4.913
REMARK  Name = 4133
REMARK  3 active torsions:
REMARK  status: ('A' for Active; 'I' for Inactive)
REMARK    1  A    between atoms: C_1  and  C_10
REMARK    2  A    between atoms: C_2  and  O_7
REMARK    3  A    between atoms: C_10  and  O_11
REMARK                            x       y       z     vdW  Elec       q    Type
REMARK                         _______ _______ _______ _____ _____    ______ ____
ROOT
ATOM      1  C   UNL     1      34.936 -18.280 -22.659  0.00  0.00    +0.109 C 
ATOM      2  C   UNL     1      34.877 -16.887 -22.658  0.00  0.00    +0.140 C 
ATOM      3  C   UNL     1      34.801 -18.984 -23.855  0.00  0.00    +0.009 C 
ATOM      4  C   UNL     1      34.681 -16.196 -23.854  0.00  0.00    +0.037 C 
ATOM      5  C   UNL     1      34.604 -18.294 -25.052  0.00  0.00    +0.000 C 
ATOM      6  C   UNL     1      34.545 -16.900 -25.051  0.00  0.00    +0.003 C 
ENDROOT
BRANCH   2   7
ATOM      7  O   UNL     1      35.006 -16.180 -21.500  0.00  0.00    -0.505 OA
ATOM      8  H   UNL     1      35.181 -16.628 -20.696  0.00  0.00    +0.292 HD
ENDBRANCH   2   7
BRANCH   1  10
ATOM      9  O   UNL     1      35.989 -18.735 -20.569  0.00  0.00    -0.245 OA
ATOM     10  C   UNL     1      35.140 -19.020 -21.421  0.00  0.00    +0.344 C 
BRANCH  10  11
ATOM     11  O   UNL     1      34.271 -20.072 -21.317  0.00  0.00    -0.441 OA
ATOM     12  C   UNL     1      33.012 -19.809 -20.689  0.00  0.00    +0.256 C 
ENDBRANCH  10  11
ENDBRANCH   1  10
TORSDOF 3
ENDMDL
MODEL 8
REMARK VINA RESULT:      -6.1      5.337      7.173
REMARK  Name = 4133
REMARK  3 active torsions:
REMARK  status: ('A' for Active; 'I' for Inactive)
REMARK    1  A    between atoms: C_1  and  C_10
REMARK    2  A    between atoms: C_2  and  O_7
REMARK    3  A    between atoms: C_10  and  O_11
REMARK                            x       y       z     vdW  Elec       q    Type
REMARK                         _______ _______ _______ _____ _____    ______ ____
ROOT
ATOM      1  C   UNL     1      34.692 -17.294 -23.639  0.00  0.00    +0.109 C 
ATOM      2  C   UNL     1      34.928 -16.551 -22.482  0.00  0.00    +0.140 C 
ATOM      3  C   UNL     1      34.661 -18.687 -23.580  0.00  0.00    +0.009 C 
ATOM      4  C   UNL     1      35.134 -17.202 -21.266  0.00  0.00    +0.037 C 
ATOM      5  C   UNL     1      34.868 -19.338 -22.364  0.00  0.00    +0.000 C 
ATOM      6  C   UNL     1      35.104 -18.596 -21.207  0.00  0.00    +0.003 C 
ENDROOT
BRANCH   2   7
ATOM      7  O   UNL     1      34.962 -15.189 -22.518  0.00  0.00    -0.505 OA
ATOM      8  H   UNL     1      34.542 -14.729 -23.218  0.00  0.00    +0.292 HD
ENDBRANCH   2   7
BRANCH   1  10
ATOM      9  O   UNL     1      35.028 -16.958 -25.976  0.00  0.00    -0.245 OA
ATOM     10  C   UNL     1      34.475 -16.634 -24.919  0.00  0.00    +0.344 C 
BRANCH  10  11
ATOM     11  O   UNL     1      33.577 -15.607 -24.807  0.00  0.00    -0.441 OA
ATOM     12  C   UNL     1      33.113 -15.019 -26.027  0.00  0.00    +0.256 C 
ENDBRANCH  10  11
ENDBRANCH   1  10
TORSDOF 3
ENDMDL
MODEL 9
REMARK VINA RESULT:      -6.1      3.612      5.248
REMARK  Name = 4133
REMARK  3 active torsions:
REMARK  status: ('A' for Active; 'I' for Inactive)
REMARK    1  A    between atoms: C_1  and  C_10
REMARK    2  A    between atoms: C_2  and  O_7
REMARK    3  A    between atoms: C_10  and  O_11
REMARK                            x       y       z     vdW  Elec       q    Type
REMARK                         _______ _______ _______ _____ _____    ______ ____
ROOT
ATOM      1  C   UNL     1      34.975 -17.029 -21.676  0.00  0.00    +0.109 C 
ATOM      2  C   UNL     1      35.039 -16.645 -23.015  0.00  0.00    +0.140 C 
ATOM      3  C   UNL     1      34.602 -16.105 -20.701  0.00  0.00    +0.009 C 
ATOM      4  C   UNL     1      34.731 -15.334 -23.379  0.00  0.00    +0.037 C 
ATOM      5  C   UNL     1      34.294 -14.793 -21.065  0.00  0.00    +0.000 C 
ATOM      6  C   UNL     1      34.359 -14.408 -22.403  0.00  0.00    +0.003 C 
ENDROOT
BRANCH   2   7
ATOM      7  O   UNL     1      35.401 -17.533 -23.983  0.00  0.00    -0.505 OA
ATOM      8  H   UNL     1      34.847 -17.666 -24.726  0.00  0.00    +0.292 HD
ENDBRANCH   2   7
BRANCH   1  10
ATOM      9  O   UNL     1      36.239 -18.704 -20.543  0.00  0.00    -0.245 OA
ATOM     10  C   UNL     1      35.292 -18.393 -21.275  0.00  0.00    +0.344 C 
BRANCH  10  11
ATOM     11  O   UNL     1      34.408 -19.291 -21.808  0.00  0.00    -0.441 OA
ATOM     12  C   UNL     1      33.366 -19.760 -20.947  0.00  0.00    +0.256 C 
ENDBRANCH  10  11
ENDBRANCH   1  10
TORSDOF 3
ENDMDL
