MODEL 1
REMARK VINA RESULT:      -7.3      0.000      0.000
REMARK  Name = 5341
REMARK  5 active torsions:
REMARK  status: ('A' for Active; 'I' for Inactive)
REMARK    1  A    between atoms: S_1  and  C_4
REMARK    2  A    between atoms: S_1  and  N_13
REMARK    3  A    between atoms: C_7  and  N_10
REMARK    4  A    between atoms: N_13  and  C_15
REMARK    5  A    between atoms: C_15  and  S_18
REMARK                            x       y       z     vdW  Elec       q    Type
REMARK                         _______ _______ _______ _____ _____    ______ ____
ROOT
ATOM      1  S   UNL     1      33.734 -22.797 -18.623  0.00  0.00    +0.095 S 
ATOM      2  O   UNL     1      32.389 -22.380 -18.244  0.00  0.00    -0.148 OA
ATOM      3  O   UNL     1      33.913 -24.017 -19.403  0.00  0.00    -0.148 OA
ENDROOT
BRANCH   1   4
ATOM      4  C   UNL     1      34.412 -21.475 -19.540  0.00  0.00    +0.127 C 
ATOM      5  C   UNL     1      33.570 -20.584 -20.206  0.00  0.00    +0.022 C 
ATOM      6  C   UNL     1      35.795 -21.307 -19.605  0.00  0.00    +0.022 C 
ATOM      7  C   UNL     1      35.494 -19.361 -21.004  0.00  0.00    +0.042 C 
ATOM      8  C   UNL     1      34.112 -19.527 -20.938  0.00  0.00    +0.015 C 
ATOM      9  C   UNL     1      36.337 -20.251 -20.336  0.00  0.00    +0.015 C 
BRANCH   7  10
ATOM     10  N   UNL     1      36.042 -18.292 -21.743  0.00  0.00    -0.357 N 
ATOM     11  H   UNL     1      35.449 -17.678 -22.234  0.00  0.00    +0.142 HD
ATOM     12  H   UNL     1      37.018 -18.160 -21.769  0.00  0.00    +0.142 HD
ENDBRANCH   7  10
ENDBRANCH   1   4
BRANCH   1  13
ATOM     13  N   UNL     1      34.686 -22.887 -17.294  0.00  0.00    -0.073 NA
BRANCH  13  15
ATOM     14  N   UNL     1      32.987 -23.414 -15.664  0.00  0.00    -0.379 N 
ATOM     15  C   UNL     1      34.254 -23.392 -16.183  0.00  0.00    +0.166 C 
ATOM     16  H   UNL     1      32.819 -23.844 -14.794  0.00  0.00    +0.158 HD
ATOM     17  H   UNL     1      32.245 -23.000 -16.160  0.00  0.00    +0.158 HD
BRANCH  15  18
ATOM     18  S   UNL     1      35.473 -24.176 -15.171  0.00  0.00    -0.107 S 
ATOM     19  H   UNL     1      35.165 -23.984 -13.860  0.00  0.00    +0.110 HD
ENDBRANCH  15  18
ENDBRANCH  13  15
ENDBRANCH   1  13
TORSDOF 5
ENDMDL
MODEL 2
REMARK VINA RESULT:      -7.2      4.131      6.563
REMARK  Name = 5341
REMARK  5 active torsions:
REMARK  status: ('A' for Active; 'I' for Inactive)
REMARK    1  A    between atoms: S_1  and  C_4
REMARK    2  A    between atoms: S_1  and  N_13
REMARK    3  A    between atoms: C_7  and  N_10
REMARK    4  A    between atoms: N_13  and  C_15
REMARK    5  A    between atoms: C_15  and  S_18
REMARK                            x       y       z     vdW  Elec       q    Type
REMARK                         _______ _______ _______ _____ _____    ______ ____
ROOT
ATOM      1  S   UNL     1      35.645 -18.626 -22.144  0.00  0.00    +0.095 S 
ATOM      2  O   UNL     1      37.051 -18.646 -21.755  0.00  0.00    -0.148 OA
ATOM      3  O   UNL     1      35.276 -18.975 -23.513  0.00  0.00    -0.148 OA
ENDROOT
BRANCH   1   4
ATOM      4  C   UNL     1      34.828 -19.736 -21.073  0.00  0.00    +0.127 C 
ATOM      5  C   UNL     1      33.441 -19.684 -20.940  0.00  0.00    +0.022 C 
ATOM      6  C   UNL     1      35.562 -20.675 -20.350  0.00  0.00    +0.022 C 
ATOM      7  C   UNL     1      33.522 -21.510 -19.361  0.00  0.00    +0.042 C 
ATOM      8  C   UNL     1      32.788 -20.571 -20.084  0.00  0.00    +0.015 C 
ATOM      9  C   UNL     1      34.910 -21.563 -19.494  0.00  0.00    +0.015 C 
BRANCH   7  10
ATOM     10  N   UNL     1      32.862 -22.407 -18.496  0.00  0.00    -0.357 N 
ATOM     11  H   UNL     1      32.533 -22.096 -17.622  0.00  0.00    +0.142 HD
ATOM     12  H   UNL     1      32.730 -23.345 -18.767  0.00  0.00    +0.142 HD
ENDBRANCH   7  10
ENDBRANCH   1   4
BRANCH   1  13
ATOM     13  N   UNL     1      34.988 -17.171 -21.786  0.00  0.00    -0.073 NA
BRANCH  13  15
ATOM     14  N   UNL     1      35.331 -16.204 -23.970  0.00  0.00    -0.379 N 
ATOM     15  C   UNL     1      34.927 -16.219 -22.662  0.00  0.00    +0.166 C 
ATOM     16  H   UNL     1      35.214 -15.391 -24.512  0.00  0.00    +0.158 HD
ATOM     17  H   UNL     1      35.739 -17.007 -24.368  0.00  0.00    +0.158 HD
BRANCH  15  18
ATOM     18  S   UNL     1      34.216 -14.702 -22.099  0.00  0.00    -0.107 S 
ATOM     19  H   UNL     1      33.369 -14.219 -23.046  0.00  0.00    +0.110 HD
ENDBRANCH  15  18
ENDBRANCH  13  15
ENDBRANCH   1  13
TORSDOF 5
ENDMDL
MODEL 3
REMARK VINA RESULT:      -7.2      3.925      6.614
REMARK  Name = 5341
REMARK  5 active torsions:
REMARK  status: ('A' for Active; 'I' for Inactive)
REMARK    1  A    between atoms: S_1  and  C_4
REMARK    2  A    between atoms: S_1  and  N_13
REMARK    3  A    between atoms: C_7  and  N_10
REMARK    4  A    between atoms: N_13  and  C_15
REMARK    5  A    between atoms: C_15  and  S_18
REMARK                            x       y       z     vdW  Elec       q    Type
REMARK                         _______ _______ _______ _____ _____    ______ ____
ROOT
ATOM      1  S   UNL     1      35.724 -18.476 -21.448  0.00  0.00    +0.095 S 
ATOM      2  O   UNL     1      35.333 -17.308 -20.666  0.00  0.00    -0.148 OA
ATOM      3  O   UNL     1      37.140 -18.733 -21.693  0.00  0.00    -0.148 OA
ENDROOT
BRANCH   1   4
ATOM      4  C   UNL     1      35.069 -19.862 -20.612  0.00  0.00    +0.127 C 
ATOM      5  C   UNL     1      35.925 -20.794 -20.028  0.00  0.00    +0.022 C 
ATOM      6  C   UNL     1      33.688 -20.035 -20.527  0.00  0.00    +0.022 C 
ATOM      7  C   UNL     1      34.020 -22.075 -19.276  0.00  0.00    +0.042 C 
ATOM      8  C   UNL     1      35.401 -21.901 -19.360  0.00  0.00    +0.015 C 
ATOM      9  C   UNL     1      33.162 -21.141 -19.860  0.00  0.00    +0.015 C 
BRANCH   7  10
ATOM     10  N   UNL     1      33.490 -23.193 -18.601  0.00  0.00    -0.357 N 
ATOM     11  H   UNL     1      32.860 -23.065 -17.856  0.00  0.00    +0.142 HD
ATOM     12  H   UNL     1      33.751 -24.103 -18.874  0.00  0.00    +0.142 HD
ENDBRANCH   7  10
ENDBRANCH   1   4
BRANCH   1  13
ATOM     13  N   UNL     1      34.942 -18.472 -22.886  0.00  0.00    -0.073 NA
BRANCH  13  15
ATOM     14  N   UNL     1      35.429 -16.175 -23.441  0.00  0.00    -0.379 N 
ATOM     15  C   UNL     1      34.978 -17.446 -23.675  0.00  0.00    +0.166 C 
ATOM     16  H   UNL     1      35.389 -15.499 -24.155  0.00  0.00    +0.158 HD
ATOM     17  H   UNL     1      35.795 -15.937 -22.559  0.00  0.00    +0.158 HD
BRANCH  15  18
ATOM     18  S   UNL     1      34.352 -17.712 -25.307  0.00  0.00    -0.107 S 
ATOM     19  H   UNL     1      33.236 -18.486 -25.243  0.00  0.00    +0.110 HD
ENDBRANCH  15  18
ENDBRANCH  13  15
ENDBRANCH   1  13
TORSDOF 5
ENDMDL
MODEL 4
REMARK VINA RESULT:      -7.2      1.637      2.018
REMARK  Name = 5341
REMARK  5 active torsions:
REMARK  status: ('A' for Active; 'I' for Inactive)
REMARK    1  A    between atoms: S_1  and  C_4
REMARK    2  A    between atoms: S_1  and  N_13
REMARK    3  A    between atoms: C_7  and  N_10
REMARK    4  A    between atoms: N_13  and  C_15
REMARK    5  A    between atoms: C_15  and  S_18
REMARK                            x       y       z     vdW  Elec       q    Type
REMARK                         _______ _______ _______ _____ _____    ______ ____
ROOT
ATOM      1  S   UNL     1      33.939 -22.777 -18.591  0.00  0.00    +0.095 S 
ATOM      2  O   UNL     1      33.924 -23.933 -19.482  0.00  0.00    -0.148 OA
ATOM      3  O   UNL     1      34.944 -22.698 -17.537  0.00  0.00    -0.148 OA
ENDROOT
BRANCH   1   4
ATOM      4  C   UNL     1      34.128 -21.376 -19.616  0.00  0.00    +0.127 C 
ATOM      5  C   UNL     1      33.009 -20.647 -20.015  0.00  0.00    +0.022 C 
ATOM      6  C   UNL     1      35.400 -20.985 -20.033  0.00  0.00    +0.022 C 
ATOM      7  C   UNL     1      34.432 -19.137 -21.251  0.00  0.00    +0.042 C 
ATOM      8  C   UNL     1      33.161 -19.528 -20.833  0.00  0.00    +0.015 C 
ATOM      9  C   UNL     1      35.553 -19.865 -20.851  0.00  0.00    +0.015 C 
BRANCH   7  10
ATOM     10  N   UNL     1      34.586 -18.005 -22.077  0.00  0.00    -0.357 N 
ATOM     11  H   UNL     1      34.284 -17.122 -21.764  0.00  0.00    +0.142 HD
ATOM     12  H   UNL     1      34.995 -18.097 -22.969  0.00  0.00    +0.142 HD
ENDBRANCH   7  10
ENDBRANCH   1   4
BRANCH   1  13
ATOM     13  N   UNL     1      32.462 -22.577 -17.914  0.00  0.00    -0.073 NA
BRANCH  13  15
ATOM     14  N   UNL     1      32.988 -23.656 -15.821  0.00  0.00    -0.379 N 
ATOM     15  C   UNL     1      32.171 -23.083 -16.758  0.00  0.00    +0.166 C 
ATOM     16  H   UNL     1      32.608 -23.998 -14.980  0.00  0.00    +0.158 HD
ATOM     17  H   UNL     1      33.955 -23.726 -15.988  0.00  0.00    +0.158 HD
BRANCH  15  18
ATOM     18  S   UNL     1      30.462 -23.035 -16.308  0.00  0.00    -0.107 S 
ATOM     19  H   UNL     1      30.047 -24.287 -15.974  0.00  0.00    +0.110 HD
ENDBRANCH  15  18
ENDBRANCH  13  15
ENDBRANCH   1  13
TORSDOF 5
ENDMDL
MODEL 5
REMARK VINA RESULT:      -6.7      4.687      6.010
REMARK  Name = 5341
REMARK  5 active torsions:
REMARK  status: ('A' for Active; 'I' for Inactive)
REMARK    1  A    between atoms: S_1  and  C_4
REMARK    2  A    between atoms: S_1  and  N_13
REMARK    3  A    between atoms: C_7  and  N_10
REMARK    4  A    between atoms: N_13  and  C_15
REMARK    5  A    between atoms: C_15  and  S_18
REMARK                            x       y       z     vdW  Elec       q    Type
REMARK                         _______ _______ _______ _____ _____    ______ ____
ROOT
ATOM      1  S   UNL     1      35.568 -17.986 -21.650  0.00  0.00    +0.095 S 
ATOM      2  O   UNL     1      36.892 -18.427 -22.075  0.00  0.00    -0.148 OA
ATOM      3  O   UNL     1      35.440 -17.132 -20.473  0.00  0.00    -0.148 OA
ENDROOT
BRANCH   1   4
ATOM      4  C   UNL     1      34.882 -17.129 -23.008  0.00  0.00    +0.127 C 
ATOM      5  C   UNL     1      34.395 -15.833 -22.841  0.00  0.00    +0.022 C 
ATOM      6  C   UNL     1      34.824 -17.740 -24.260  0.00  0.00    +0.022 C 
ATOM      7  C   UNL     1      33.789 -15.759 -25.178  0.00  0.00    +0.042 C 
ATOM      8  C   UNL     1      33.848 -15.148 -23.926  0.00  0.00    +0.015 C 
ATOM      9  C   UNL     1      34.278 -17.055 -25.346  0.00  0.00    +0.015 C 
BRANCH   7  10
ATOM     10  N   UNL     1      33.237 -15.066 -26.275  0.00  0.00    -0.357 N 
ATOM     11  H   UNL     1      33.647 -14.227 -26.584  0.00  0.00    +0.142 HD
ATOM     12  H   UNL     1      32.440 -15.423 -26.732  0.00  0.00    +0.142 HD
ENDBRANCH   7  10
ENDBRANCH   1   4
BRANCH   1  13
ATOM     13  N   UNL     1      34.584 -19.281 -21.460  0.00  0.00    -0.073 NA
BRANCH  13  15
ATOM     14  N   UNL     1      35.893 -20.478 -19.824  0.00  0.00    -0.379 N 
ATOM     15  C   UNL     1      34.751 -20.124 -20.491  0.00  0.00    +0.166 C 
ATOM     16  H   UNL     1      35.854 -21.144 -19.100  0.00  0.00    +0.158 HD
ATOM     17  H   UNL     1      36.753 -20.067 -20.069  0.00  0.00    +0.158 HD
BRANCH  15  18
ATOM     18  S   UNL     1      33.292 -20.953 -19.935  0.00  0.00    -0.107 S 
ATOM     19  H   UNL     1      33.243 -22.198 -20.480  0.00  0.00    +0.110 HD
ENDBRANCH  15  18
ENDBRANCH  13  15
ENDBRANCH   1  13
TORSDOF 5
ENDMDL
MODEL 6
REMARK VINA RESULT:      -6.5      3.483      4.443
REMARK  Name = 5341
REMARK  5 active torsions:
REMARK  status: ('A' for Active; 'I' for Inactive)
REMARK    1  A    between atoms: S_1  and  C_4
REMARK    2  A    between atoms: S_1  and  N_13
REMARK    3  A    between atoms: C_7  and  N_10
REMARK    4  A    between atoms: N_13  and  C_15
REMARK    5  A    between atoms: C_15  and  S_18
REMARK                            x       y       z     vdW  Elec       q    Type
REMARK                         _______ _______ _______ _____ _____    ______ ____
ROOT
ATOM      1  S   UNL     1      36.504 -23.217 -15.315  0.00  0.00    +0.095 S 
ATOM      2  O   UNL     1      37.779 -22.570 -15.606  0.00  0.00    -0.148 OA
ATOM      3  O   UNL     1      35.795 -22.882 -14.085  0.00  0.00    -0.148 OA
ENDROOT
BRANCH   1   4
ATOM      4  C   UNL     1      35.452 -22.841 -16.656  0.00  0.00    +0.127 C 
ATOM      5  C   UNL     1      34.119 -23.253 -16.635  0.00  0.00    +0.022 C 
ATOM      6  C   UNL     1      35.943 -22.127 -17.749  0.00  0.00    +0.022 C 
ATOM      7  C   UNL     1      33.770 -22.239 -18.799  0.00  0.00    +0.042 C 
ATOM      8  C   UNL     1      33.279 -22.952 -17.706  0.00  0.00    +0.015 C 
ATOM      9  C   UNL     1      35.103 -21.825 -18.821  0.00  0.00    +0.015 C 
BRANCH   7  10
ATOM     10  N   UNL     1      32.920 -21.933 -19.882  0.00  0.00    -0.357 N 
ATOM     11  H   UNL     1      32.847 -22.555 -20.641  0.00  0.00    +0.142 HD
ATOM     12  H   UNL     1      32.398 -21.098 -19.878  0.00  0.00    +0.142 HD
ENDBRANCH   7  10
ENDBRANCH   1   4
BRANCH   1  13
ATOM     13  N   UNL     1      36.675 -24.844 -15.388  0.00  0.00    -0.073 NA
BRANCH  13  15
ATOM     14  N   UNL     1      38.989 -25.496 -15.193  0.00  0.00    -0.379 N 
ATOM     15  C   UNL     1      37.672 -25.448 -14.824  0.00  0.00    +0.166 C 
ATOM     16  H   UNL     1      39.634 -26.006 -14.651  0.00  0.00    +0.158 HD
ATOM     17  H   UNL     1      39.293 -25.021 -16.000  0.00  0.00    +0.158 HD
BRANCH  15  18
ATOM     18  S   UNL     1      37.289 -26.353 -13.356  0.00  0.00    -0.107 S 
ATOM     19  H   UNL     1      37.905 -25.772 -12.292  0.00  0.00    +0.110 HD
ENDBRANCH  15  18
ENDBRANCH  13  15
ENDBRANCH   1  13
TORSDOF 5
ENDMDL
MODEL 7
REMARK VINA RESULT:      -6.5      2.506      5.277
REMARK  Name = 5341
REMARK  5 active torsions:
REMARK  status: ('A' for Active; 'I' for Inactive)
REMARK    1  A    between atoms: S_1  and  C_4
REMARK    2  A    between atoms: S_1  and  N_13
REMARK    3  A    between atoms: C_7  and  N_10
REMARK    4  A    between atoms: N_13  and  C_15
REMARK    5  A    between atoms: C_15  and  S_18
REMARK                            x       y       z     vdW  Elec       q    Type
REMARK                         _______ _______ _______ _____ _____    ______ ____
ROOT
ATOM      1  S   UNL     1      33.859 -22.512 -18.825  0.00  0.00    +0.095 S 
ATOM      2  O   UNL     1      34.091 -23.711 -19.623  0.00  0.00    -0.148 OA
ATOM      3  O   UNL     1      32.496 -22.161 -18.439  0.00  0.00    -0.148 OA
ENDROOT
BRANCH   1   4
ATOM      4  C   UNL     1      34.791 -22.715 -17.362  0.00  0.00    +0.127 C 
ATOM      5  C   UNL     1      34.232 -23.367 -16.263  0.00  0.00    +0.022 C 
ATOM      6  C   UNL     1      36.095 -22.226 -17.293  0.00  0.00    +0.022 C 
ATOM      7  C   UNL     1      36.281 -23.039 -15.027  0.00  0.00    +0.042 C 
ATOM      8  C   UNL     1      34.977 -23.529 -15.096  0.00  0.00    +0.015 C 
ATOM      9  C   UNL     1      36.841 -22.388 -16.126  0.00  0.00    +0.015 C 
BRANCH   7  10
ATOM     10  N   UNL     1      37.035 -23.204 -13.846  0.00  0.00    -0.357 N 
ATOM     11  H   UNL     1      37.996 -23.406 -13.900  0.00  0.00    +0.142 HD
ATOM     12  H   UNL     1      36.598 -23.117 -12.967  0.00  0.00    +0.142 HD
ENDBRANCH   7  10
ENDBRANCH   1   4
BRANCH   1  13
ATOM     13  N   UNL     1      34.542 -21.216 -19.554  0.00  0.00    -0.073 NA
BRANCH  13  15
ATOM     14  N   UNL     1      32.538 -20.480 -20.680  0.00  0.00    -0.379 N 
ATOM     15  C   UNL     1      33.871 -20.463 -20.368  0.00  0.00    +0.166 C 
ATOM     16  H   UNL     1      32.176 -19.832 -21.327  0.00  0.00    +0.158 HD
ATOM     17  H   UNL     1      31.942 -21.139 -20.257  0.00  0.00    +0.158 HD
BRANCH  15  18
ATOM     18  S   UNL     1      34.805 -19.223 -21.212  0.00  0.00    -0.107 S 
ATOM     19  H   UNL     1      35.246 -18.299 -20.316  0.00  0.00    +0.110 HD
ENDBRANCH  15  18
ENDBRANCH  13  15
ENDBRANCH   1  13
TORSDOF 5
ENDMDL
MODEL 8
REMARK VINA RESULT:      -6.4      4.382      5.505
REMARK  Name = 5341
REMARK  5 active torsions:
REMARK  status: ('A' for Active; 'I' for Inactive)
REMARK    1  A    between atoms: S_1  and  C_4
REMARK    2  A    between atoms: S_1  and  N_13
REMARK    3  A    between atoms: C_7  and  N_10
REMARK    4  A    between atoms: N_13  and  C_15
REMARK    5  A    between atoms: C_15  and  S_18
REMARK                            x       y       z     vdW  Elec       q    Type
REMARK                         _______ _______ _______ _____ _____    ______ ____
ROOT
ATOM      1  S   UNL     1      35.417 -18.777 -21.886  0.00  0.00    +0.095 S 
ATOM      2  O   UNL     1      34.906 -19.582 -22.990  0.00  0.00    -0.148 OA
ATOM      3  O   UNL     1      36.841 -18.818 -21.568  0.00  0.00    -0.148 OA
ENDROOT
BRANCH   1   4
ATOM      4  C   UNL     1      35.002 -17.122 -22.259  0.00  0.00    +0.127 C 
ATOM      5  C   UNL     1      34.921 -16.706 -23.587  0.00  0.00    +0.022 C 
ATOM      6  C   UNL     1      34.750 -16.217 -21.228  0.00  0.00    +0.022 C 
ATOM      7  C   UNL     1      34.337 -14.480 -22.854  0.00  0.00    +0.042 C 
ATOM      8  C   UNL     1      34.588 -15.385 -23.885  0.00  0.00    +0.015 C 
ATOM      9  C   UNL     1      34.418 -14.896 -21.525  0.00  0.00    +0.015 C 
BRANCH   7  10
ATOM     10  N   UNL     1      34.001 -13.143 -23.155  0.00  0.00    -0.357 N 
ATOM     11  H   UNL     1      34.182 -12.780 -24.052  0.00  0.00    +0.142 HD
ATOM     12  H   UNL     1      33.584 -12.574 -22.468  0.00  0.00    +0.142 HD
ENDBRANCH   7  10
ENDBRANCH   1   4
BRANCH   1  13
ATOM     13  N   UNL     1      34.573 -19.100 -20.522  0.00  0.00    -0.073 NA
BRANCH  13  15
ATOM     14  N   UNL     1      32.697 -20.613 -20.649  0.00  0.00    -0.379 N 
ATOM     15  C   UNL     1      33.978 -20.237 -20.345  0.00  0.00    +0.166 C 
ATOM     16  H   UNL     1      32.392 -21.527 -20.450  0.00  0.00    +0.158 HD
ATOM     17  H   UNL     1      32.082 -19.969 -21.068  0.00  0.00    +0.158 HD
BRANCH  15  18
ATOM     18  S   UNL     1      34.955 -21.505 -19.597  0.00  0.00    -0.107 S 
ATOM     19  H   UNL     1      35.732 -20.963 -18.621  0.00  0.00    +0.110 HD
ENDBRANCH  15  18
ENDBRANCH  13  15
ENDBRANCH   1  13
TORSDOF 5
ENDMDL
MODEL 9
REMARK VINA RESULT:      -6.4      2.461      6.063
REMARK  Name = 5341
REMARK  5 active torsions:
REMARK  status: ('A' for Active; 'I' for Inactive)
REMARK    1  A    between atoms: S_1  and  C_4
REMARK    2  A    between atoms: S_1  and  N_13
REMARK    3  A    between atoms: C_7  and  N_10
REMARK    4  A    between atoms: N_13  and  C_15
REMARK    5  A    between atoms: C_15  and  S_18
REMARK                            x       y       z     vdW  Elec       q    Type
REMARK                         _______ _______ _______ _____ _____    ______ ____
ROOT
ATOM      1  S   UNL     1      33.946 -22.935 -18.321  0.00  0.00    +0.095 S 
ATOM      2  O   UNL     1      35.280 -22.508 -17.910  0.00  0.00    -0.148 OA
ATOM      3  O   UNL     1      33.796 -24.151 -19.113  0.00  0.00    -0.148 OA
ENDROOT
BRANCH   1   4
ATOM      4  C   UNL     1      33.028 -23.139 -16.850  0.00  0.00    +0.127 C 
ATOM      5  C   UNL     1      33.673 -23.506 -15.670  0.00  0.00    +0.022 C 
ATOM      6  C   UNL     1      31.649 -22.934 -16.855  0.00  0.00    +0.022 C 
ATOM      7  C   UNL     1      31.560 -23.464 -14.500  0.00  0.00    +0.042 C 
ATOM      8  C   UNL     1      32.939 -23.668 -14.495  0.00  0.00    +0.015 C 
ATOM      9  C   UNL     1      30.914 -23.096 -15.681  0.00  0.00    +0.015 C 
BRANCH   7  10
ATOM     10  N   UNL     1      30.818 -23.628 -13.312  0.00  0.00    -0.357 N 
ATOM     11  H   UNL     1      31.215 -24.098 -12.545  0.00  0.00    +0.142 HD
ATOM     12  H   UNL     1      29.902 -23.271 -13.251  0.00  0.00    +0.142 HD
ENDBRANCH   7  10
ENDBRANCH   1   4
BRANCH   1  13
ATOM     13  N   UNL     1      33.184 -21.713 -19.098  0.00  0.00    -0.073 NA
BRANCH  13  15
ATOM     14  N   UNL     1      35.160 -20.820 -20.157  0.00  0.00    -0.379 N 
ATOM     15  C   UNL     1      33.819 -20.917 -19.898  0.00  0.00    +0.166 C 
ATOM     16  H   UNL     1      35.490 -20.153 -20.802  0.00  0.00    +0.158 HD
ATOM     17  H   UNL     1      35.794 -21.417 -19.699  0.00  0.00    +0.158 HD
BRANCH  15  18
ATOM     18  S   UNL     1      32.816 -19.774 -20.800  0.00  0.00    -0.107 S 
ATOM     19  H   UNL     1      33.560 -18.688 -21.140  0.00  0.00    +0.110 HD
ENDBRANCH  15  18
ENDBRANCH  13  15
ENDBRANCH   1  13
TORSDOF 5
ENDMDL
