MODEL 1
REMARK VINA RESULT:     -10.5      0.000      0.000
REMARK  Name = 448138
REMARK  6 active torsions:
REMARK  status: ('A' for Active; 'I' for Inactive)
REMARK    1  A    between atoms: C_1  and  O_15
REMARK    2  A    between atoms: C_4  and  C_11
REMARK    3  A    between atoms: O_15  and  C_16
REMARK    4  A    between atoms: C_16  and  C_17
REMARK    5  A    between atoms: C_17  and  C_18
REMARK    6  A    between atoms: C_18  and  C_21
REMARK                            x       y       z     vdW  Elec       q    Type
REMARK                         _______ _______ _______ _____ _____    ______ ____
ROOT
ATOM      1  C   UNL     1      34.676 -16.238 -22.991  0.00  0.00    +0.130 C 
ATOM      2  C   UNL     1      34.734 -17.476 -23.632  0.00  0.00    +0.012 C 
ATOM      3  C   UNL     1      34.678 -16.176 -21.596  0.00  0.00    +0.012 C 
ATOM      4  C   UNL     1      34.799 -18.587 -21.488  0.00  0.00    +0.029 C 
ATOM      5  C   UNL     1      34.796 -18.649 -22.882  0.00  0.00    +0.001 C 
ATOM      6  C   UNL     1      34.739 -17.350 -20.846  0.00  0.00    +0.001 C 
ATOM      7  C   UNL     1      34.734 -17.562 -25.124  0.00  0.00    +0.034 C 
ATOM      8  C   UNL     1      34.616 -14.862 -20.891  0.00  0.00    +0.034 C 
ENDROOT
BRANCH   4  11
ATOM      9  O   UNL     1      35.659 -21.554 -19.653  0.00  0.00    -0.447 OA
ATOM     10  N   UNL     1      33.769 -20.439 -20.203  0.00  0.00    -0.372 NA
ATOM     11  C   UNL     1      34.861 -19.796 -20.716  0.00  0.00    +0.156 C 
ATOM     12  C   UNL     1      36.010 -20.462 -20.388  0.00  0.00    +0.266 C 
ATOM     13  C   UNL     1      34.302 -21.470 -19.586  0.00  0.00    +0.253 C 
ATOM     14  C   UNL     1      33.627 -22.540 -18.836  0.00  0.00    +0.110 C 
ENDBRANCH   4  11
BRANCH   1  15
ATOM     15  O   UNL     1      34.615 -15.090 -23.724  0.00  0.00    -0.476 OA
BRANCH  15  16
ATOM     16  C   UNL     1      33.319 -14.639 -24.111  0.00  0.00    +0.206 C 
BRANCH  16  17
ATOM     17  C   UNL     1      33.177 -13.171 -23.735  0.00  0.00    +0.055 C 
BRANCH  17  18
ATOM     18  C   UNL     1      33.853 -12.259 -24.759  0.00  0.00    +0.071 C 
BRANCH  18  21
ATOM     19  O   UNL     1      32.911 -10.456 -23.480  0.00  0.00    -0.358 OA
ATOM     20  N   UNL     1      33.125  -9.131 -23.121  0.00  0.00    -0.082 NA
ATOM     21  C   UNL     1      33.925 -10.834 -24.271  0.00  0.00    +0.154 C 
ATOM     22  C   UNL     1      34.815  -9.850 -24.470  0.00  0.00    +0.054 C 
ATOM     23  C   UNL     1      34.268  -8.790 -23.723  0.00  0.00    +0.101 C 
ATOM     24  C   UNL     1      34.809  -7.431 -23.558  0.00  0.00    +0.056 C 
ENDBRANCH  18  21
ENDBRANCH  17  18
ENDBRANCH  16  17
ENDBRANCH  15  16
ENDBRANCH   1  15
TORSDOF 6
ENDMDL
MODEL 2
REMARK VINA RESULT:     -10.4      0.019      1.754
REMARK  Name = 448138
REMARK  6 active torsions:
REMARK  status: ('A' for Active; 'I' for Inactive)
REMARK    1  A    between atoms: C_1  and  O_15
REMARK    2  A    between atoms: C_4  and  C_11
REMARK    3  A    between atoms: O_15  and  C_16
REMARK    4  A    between atoms: C_16  and  C_17
REMARK    5  A    between atoms: C_17  and  C_18
REMARK    6  A    between atoms: C_18  and  C_21
REMARK                            x       y       z     vdW  Elec       q    Type
REMARK                         _______ _______ _______ _____ _____    ______ ____
ROOT
ATOM      1  C   UNL     1      34.667 -16.240 -23.006  0.00  0.00    +0.130 C 
ATOM      2  C   UNL     1      34.677 -16.175 -21.613  0.00  0.00    +0.012 C 
ATOM      3  C   UNL     1      34.724 -17.479 -23.646  0.00  0.00    +0.012 C 
ATOM      4  C   UNL     1      34.799 -18.585 -21.500  0.00  0.00    +0.029 C 
ATOM      5  C   UNL     1      34.742 -17.347 -20.859  0.00  0.00    +0.001 C 
ATOM      6  C   UNL     1      34.791 -18.651 -22.893  0.00  0.00    +0.001 C 
ATOM      7  C   UNL     1      34.615 -14.858 -20.910  0.00  0.00    +0.034 C 
ATOM      8  C   UNL     1      34.716 -17.569 -25.136  0.00  0.00    +0.034 C 
ENDROOT
BRANCH   4  11
ATOM      9  O   UNL     1      35.679 -21.539 -19.654  0.00  0.00    -0.447 OA
ATOM     10  N   UNL     1      33.782 -20.442 -20.212  0.00  0.00    -0.372 NA
ATOM     11  C   UNL     1      34.869 -19.791 -20.724  0.00  0.00    +0.156 C 
ATOM     12  C   UNL     1      36.023 -20.447 -20.391  0.00  0.00    +0.266 C 
ATOM     13  C   UNL     1      34.321 -21.467 -19.591  0.00  0.00    +0.253 C 
ATOM     14  C   UNL     1      33.654 -22.541 -18.840  0.00  0.00    +0.110 C 
ENDBRANCH   4  11
BRANCH   1  15
ATOM     15  O   UNL     1      34.603 -15.095 -23.743  0.00  0.00    -0.476 OA
BRANCH  15  16
ATOM     16  C   UNL     1      33.306 -14.646 -24.129  0.00  0.00    +0.206 C 
BRANCH  16  17
ATOM     17  C   UNL     1      33.161 -13.177 -23.753  0.00  0.00    +0.055 C 
BRANCH  17  18
ATOM     18  C   UNL     1      33.866 -12.267 -24.759  0.00  0.00    +0.071 C 
BRANCH  18  21
ATOM     19  O   UNL     1      32.926 -10.475 -23.464  0.00  0.00    -0.358 OA
ATOM     20  N   UNL     1      33.135  -9.150 -23.102  0.00  0.00    -0.082 NA
ATOM     21  C   UNL     1      33.934 -10.844 -24.266  0.00  0.00    +0.154 C 
ATOM     22  C   UNL     1      34.814  -9.852 -24.472  0.00  0.00    +0.054 C 
ATOM     23  C   UNL     1      34.269  -8.799 -23.716  0.00  0.00    +0.101 C 
ATOM     24  C   UNL     1      34.801  -7.437 -23.552  0.00  0.00    +0.056 C 
ENDBRANCH  18  21
ENDBRANCH  17  18
ENDBRANCH  16  17
ENDBRANCH  15  16
ENDBRANCH   1  15
TORSDOF 6
ENDMDL
MODEL 3
REMARK VINA RESULT:     -10.1      2.063      3.027
REMARK  Name = 448138
REMARK  6 active torsions:
REMARK  status: ('A' for Active; 'I' for Inactive)
REMARK    1  A    between atoms: C_1  and  O_15
REMARK    2  A    between atoms: C_4  and  C_11
REMARK    3  A    between atoms: O_15  and  C_16
REMARK    4  A    between atoms: C_16  and  C_17
REMARK    5  A    between atoms: C_17  and  C_18
REMARK    6  A    between atoms: C_18  and  C_21
REMARK                            x       y       z     vdW  Elec       q    Type
REMARK                         _______ _______ _______ _____ _____    ______ ____
ROOT
ATOM      1  C   UNL     1      34.791 -16.236 -22.892  0.00  0.00    +0.130 C 
ATOM      2  C   UNL     1      34.606 -16.191 -21.511  0.00  0.00    +0.012 C 
ATOM      3  C   UNL     1      34.701 -17.455 -23.568  0.00  0.00    +0.012 C 
ATOM      4  C   UNL     1      34.239 -18.578 -21.479  0.00  0.00    +0.029 C 
ATOM      5  C   UNL     1      34.329 -17.361 -20.804  0.00  0.00    +0.001 C 
ATOM      6  C   UNL     1      34.426 -18.625 -22.861  0.00  0.00    +0.001 C 
ATOM      7  C   UNL     1      34.697 -14.896 -20.771  0.00  0.00    +0.034 C 
ATOM      8  C   UNL     1      34.897 -17.524 -25.046  0.00  0.00    +0.034 C 
ENDROOT
BRANCH   4  11
ATOM      9  O   UNL     1      32.874 -21.516 -19.925  0.00  0.00    -0.447 OA
ATOM     10  N   UNL     1      34.873 -20.461 -19.997  0.00  0.00    -0.372 NA
ATOM     11  C   UNL     1      33.957 -19.783 -20.751  0.00  0.00    +0.156 C 
ATOM     12  C   UNL     1      32.743 -20.415 -20.715  0.00  0.00    +0.266 C 
ATOM     13  C   UNL     1      34.177 -21.474 -19.533  0.00  0.00    +0.253 C 
ATOM     14  C   UNL     1      34.619 -22.565 -18.650  0.00  0.00    +0.110 C 
ENDBRANCH   4  11
BRANCH   1  15
ATOM     15  O   UNL     1      35.062 -15.093 -23.584  0.00  0.00    -0.476 OA
BRANCH  15  16
ATOM     16  C   UNL     1      33.994 -14.528 -24.342  0.00  0.00    +0.206 C 
BRANCH  16  17
ATOM     17  C   UNL     1      33.533 -13.246 -23.664  0.00  0.00    +0.055 C 
BRANCH  17  18
ATOM     18  C   UNL     1      32.202 -13.440 -22.938  0.00  0.00    +0.071 C 
BRANCH  18  21
ATOM     19  O   UNL     1      31.919 -11.101 -22.463  0.00  0.00    -0.358 OA
ATOM     20  N   UNL     1      31.677 -10.210 -21.426  0.00  0.00    -0.082 NA
ATOM     21  C   UNL     1      31.947 -12.336 -21.943  0.00  0.00    +0.154 C 
ATOM     22  C   UNL     1      31.740 -12.338 -20.617  0.00  0.00    +0.054 C 
ATOM     23  C   UNL     1      31.574 -10.971 -20.333  0.00  0.00    +0.101 C 
ATOM     24  C   UNL     1      31.313 -10.347 -19.025  0.00  0.00    +0.056 C 
ENDBRANCH  18  21
ENDBRANCH  17  18
ENDBRANCH  16  17
ENDBRANCH  15  16
ENDBRANCH   1  15
TORSDOF 6
ENDMDL
MODEL 4
REMARK VINA RESULT:     -10.1      1.212      2.215
REMARK  Name = 448138
REMARK  6 active torsions:
REMARK  status: ('A' for Active; 'I' for Inactive)
REMARK    1  A    between atoms: C_1  and  O_15
REMARK    2  A    between atoms: C_4  and  C_11
REMARK    3  A    between atoms: O_15  and  C_16
REMARK    4  A    between atoms: C_16  and  C_17
REMARK    5  A    between atoms: C_17  and  C_18
REMARK    6  A    between atoms: C_18  and  C_21
REMARK                            x       y       z     vdW  Elec       q    Type
REMARK                         _______ _______ _______ _____ _____    ______ ____
ROOT
ATOM      1  C   UNL     1      34.597 -15.716 -23.039  0.00  0.00    +0.130 C 
ATOM      2  C   UNL     1      34.490 -15.699 -21.649  0.00  0.00    +0.012 C 
ATOM      3  C   UNL     1      34.699 -16.933 -23.715  0.00  0.00    +0.012 C 
ATOM      4  C   UNL     1      34.585 -18.112 -21.610  0.00  0.00    +0.029 C 
ATOM      5  C   UNL     1      34.483 -16.896 -20.934  0.00  0.00    +0.001 C 
ATOM      6  C   UNL     1      34.693 -18.130 -23.000  0.00  0.00    +0.001 C 
ATOM      7  C   UNL     1      34.379 -14.406 -20.908  0.00  0.00    +0.034 C 
ATOM      8  C   UNL     1      34.815 -16.972 -25.203  0.00  0.00    +0.034 C 
ENDROOT
BRANCH   4  11
ATOM      9  O   UNL     1      33.881 -21.218 -19.946  0.00  0.00    -0.447 OA
ATOM     10  N   UNL     1      35.676 -19.878 -20.255  0.00  0.00    -0.372 NA
ATOM     11  C   UNL     1      34.580 -19.345 -20.873  0.00  0.00    +0.156 C 
ATOM     12  C   UNL     1      33.488 -20.149 -20.693  0.00  0.00    +0.266 C 
ATOM     13  C   UNL     1      35.204 -20.983 -19.724  0.00  0.00    +0.253 C 
ATOM     14  C   UNL     1      35.912 -21.994 -18.926  0.00  0.00    +0.110 C 
ENDBRANCH   4  11
BRANCH   1  15
ATOM     15  O   UNL     1      34.604 -14.546 -23.739  0.00  0.00    -0.476 OA
BRANCH  15  16
ATOM     16  C   UNL     1      33.346 -14.070 -24.214  0.00  0.00    +0.206 C 
BRANCH  16  17
ATOM     17  C   UNL     1      33.165 -12.626 -23.766  0.00  0.00    +0.055 C 
BRANCH  17  18
ATOM     18  C   UNL     1      33.992 -11.664 -24.621  0.00  0.00    +0.071 C 
BRANCH  18  21
ATOM     19  O   UNL     1      35.139  -9.614 -24.115  0.00  0.00    -0.358 OA
ATOM     20  N   UNL     1      34.950  -8.354 -23.563  0.00  0.00    -0.082 NA
ATOM     21  C   UNL     1      33.969 -10.265 -24.059  0.00  0.00    +0.154 C 
ATOM     22  C   UNL     1      32.997  -9.525 -23.504  0.00  0.00    +0.054 C 
ATOM     23  C   UNL     1      33.663  -8.323 -23.205  0.00  0.00    +0.101 C 
ATOM     24  C   UNL     1      33.104  -7.115 -22.576  0.00  0.00    +0.056 C 
ENDBRANCH  18  21
ENDBRANCH  17  18
ENDBRANCH  16  17
ENDBRANCH  15  16
ENDBRANCH   1  15
TORSDOF 6
ENDMDL
MODEL 5
REMARK VINA RESULT:     -10.0      3.505      5.728
REMARK  Name = 448138
REMARK  6 active torsions:
REMARK  status: ('A' for Active; 'I' for Inactive)
REMARK    1  A    between atoms: C_1  and  O_15
REMARK    2  A    between atoms: C_4  and  C_11
REMARK    3  A    between atoms: O_15  and  C_16
REMARK    4  A    between atoms: C_16  and  C_17
REMARK    5  A    between atoms: C_17  and  C_18
REMARK    6  A    between atoms: C_18  and  C_21
REMARK                            x       y       z     vdW  Elec       q    Type
REMARK                         _______ _______ _______ _____ _____    ______ ____
ROOT
ATOM      1  C   UNL     1      34.752 -20.587 -20.505  0.00  0.00    +0.130 C 
ATOM      2  C   UNL     1      33.374 -20.468 -20.330  0.00  0.00    +0.012 C 
ATOM      3  C   UNL     1      35.493 -21.413 -19.657  0.00  0.00    +0.012 C 
ATOM      4  C   UNL     1      33.475 -21.998 -18.464  0.00  0.00    +0.029 C 
ATOM      5  C   UNL     1      32.735 -21.173 -19.310  0.00  0.00    +0.001 C 
ATOM      6  C   UNL     1      34.854 -22.117 -18.637  0.00  0.00    +0.001 C 
ATOM      7  C   UNL     1      32.564 -19.590 -21.229  0.00  0.00    +0.034 C 
ATOM      8  C   UNL     1      36.969 -21.554 -19.827  0.00  0.00    +0.034 C 
ENDROOT
BRANCH   4  11
ATOM      9  O   UNL     1      32.492 -24.002 -15.649  0.00  0.00    -0.447 OA
ATOM     10  N   UNL     1      31.464 -22.744 -17.222  0.00  0.00    -0.372 NA
ATOM     11  C   UNL     1      32.817 -22.722 -17.413  0.00  0.00    +0.156 C 
ATOM     12  C   UNL     1      33.449 -23.480 -16.465  0.00  0.00    +0.266 C 
ATOM     13  C   UNL     1      31.331 -23.516 -16.167  0.00  0.00    +0.253 C 
ATOM     14  C   UNL     1      30.098 -23.922 -15.475  0.00  0.00    +0.110 C 
ENDBRANCH   4  11
BRANCH   1  15
ATOM     15  O   UNL     1      35.378 -19.898 -21.501  0.00  0.00    -0.476 OA
BRANCH  15  16
ATOM     16  C   UNL     1      36.014 -18.674 -21.140  0.00  0.00    +0.206 C 
BRANCH  16  17
ATOM     17  C   UNL     1      35.437 -17.550 -21.988  0.00  0.00    +0.055 C 
BRANCH  17  18
ATOM     18  C   UNL     1      35.296 -17.966 -23.453  0.00  0.00    +0.071 C 
BRANCH  18  21
ATOM     19  O   UNL     1      34.412 -17.213 -25.557  0.00  0.00    -0.358 OA
ATOM     20  N   UNL     1      33.749 -16.149 -26.155  0.00  0.00    -0.082 NA
ATOM     21  C   UNL     1      34.585 -16.912 -24.263  0.00  0.00    +0.154 C 
ATOM     22  C   UNL     1      34.080 -15.709 -23.945  0.00  0.00    +0.054 C 
ATOM     23  C   UNL     1      33.561 -15.263 -25.173  0.00  0.00    +0.101 C 
ATOM     24  C   UNL     1      32.875 -13.991 -25.454  0.00  0.00    +0.056 C 
ENDBRANCH  18  21
ENDBRANCH  17  18
ENDBRANCH  16  17
ENDBRANCH  15  16
ENDBRANCH   1  15
TORSDOF 6
ENDMDL
MODEL 6
REMARK VINA RESULT:      -9.9      1.236      1.411
REMARK  Name = 448138
REMARK  6 active torsions:
REMARK  status: ('A' for Active; 'I' for Inactive)
REMARK    1  A    between atoms: C_1  and  O_15
REMARK    2  A    between atoms: C_4  and  C_11
REMARK    3  A    between atoms: O_15  and  C_16
REMARK    4  A    between atoms: C_16  and  C_17
REMARK    5  A    between atoms: C_17  and  C_18
REMARK    6  A    between atoms: C_18  and  C_21
REMARK                            x       y       z     vdW  Elec       q    Type
REMARK                         _______ _______ _______ _____ _____    ______ ____
ROOT
ATOM      1  C   UNL     1      34.684 -16.231 -23.006  0.00  0.00    +0.130 C 
ATOM      2  C   UNL     1      34.756 -17.468 -23.646  0.00  0.00    +0.012 C 
ATOM      3  C   UNL     1      34.689 -16.167 -21.612  0.00  0.00    +0.012 C 
ATOM      4  C   UNL     1      34.838 -18.576 -21.501  0.00  0.00    +0.029 C 
ATOM      5  C   UNL     1      34.833 -18.640 -22.894  0.00  0.00    +0.001 C 
ATOM      6  C   UNL     1      34.765 -17.339 -20.860  0.00  0.00    +0.001 C 
ATOM      7  C   UNL     1      34.753 -17.557 -25.138  0.00  0.00    +0.034 C 
ATOM      8  C   UNL     1      34.613 -14.852 -20.908  0.00  0.00    +0.034 C 
ENDROOT
BRANCH   4  11
ATOM      9  O   UNL     1      35.737 -21.531 -19.666  0.00  0.00    -0.447 OA
ATOM     10  N   UNL     1      33.834 -20.435 -20.206  0.00  0.00    -0.372 NA
ATOM     11  C   UNL     1      34.916 -19.783 -20.727  0.00  0.00    +0.156 C 
ATOM     12  C   UNL     1      36.073 -20.438 -20.405  0.00  0.00    +0.266 C 
ATOM     13  C   UNL     1      34.379 -21.460 -19.590  0.00  0.00    +0.253 C 
ATOM     14  C   UNL     1      33.720 -22.535 -18.834  0.00  0.00    +0.110 C 
ENDBRANCH   4  11
BRANCH   1  15
ATOM     15  O   UNL     1      34.608 -15.085 -23.741  0.00  0.00    -0.476 OA
BRANCH  15  16
ATOM     16  C   UNL     1      33.303 -14.597 -24.045  0.00  0.00    +0.206 C 
BRANCH  16  17
ATOM     17  C   UNL     1      33.297 -13.082 -23.896  0.00  0.00    +0.055 C 
BRANCH  17  18
ATOM     18  C   UNL     1      32.320 -12.627 -22.813  0.00  0.00    +0.071 C 
BRANCH  18  21
ATOM     19  O   UNL     1      33.171 -10.476 -23.463  0.00  0.00    -0.358 OA
ATOM     20  N   UNL     1      33.105  -9.125 -23.149  0.00  0.00    -0.082 NA
ATOM     21  C   UNL     1      32.369 -11.133 -22.614  0.00  0.00    +0.154 C 
ATOM     22  C   UNL     1      31.763 -10.312 -21.742  0.00  0.00    +0.054 C 
ATOM     23  C   UNL     1      32.258  -9.051 -22.118  0.00  0.00    +0.101 C 
ATOM     24  C   UNL     1      31.946  -7.744 -21.516  0.00  0.00    +0.056 C 
ENDBRANCH  18  21
ENDBRANCH  17  18
ENDBRANCH  16  17
ENDBRANCH  15  16
ENDBRANCH   1  15
TORSDOF 6
ENDMDL
MODEL 7
REMARK VINA RESULT:      -9.8      1.464      9.127
REMARK  Name = 448138
REMARK  6 active torsions:
REMARK  status: ('A' for Active; 'I' for Inactive)
REMARK    1  A    between atoms: C_1  and  O_15
REMARK    2  A    between atoms: C_4  and  C_11
REMARK    3  A    between atoms: O_15  and  C_16
REMARK    4  A    between atoms: C_16  and  C_17
REMARK    5  A    between atoms: C_17  and  C_18
REMARK    6  A    between atoms: C_18  and  C_21
REMARK                            x       y       z     vdW  Elec       q    Type
REMARK                         _______ _______ _______ _____ _____    ______ ____
ROOT
ATOM      1  C   UNL     1      33.473 -14.792 -24.683  0.00  0.00    +0.130 C 
ATOM      2  C   UNL     1      33.560 -14.381 -23.353  0.00  0.00    +0.012 C 
ATOM      3  C   UNL     1      33.409 -13.841 -25.703  0.00  0.00    +0.012 C 
ATOM      4  C   UNL     1      33.522 -12.072 -24.062  0.00  0.00    +0.029 C 
ATOM      5  C   UNL     1      33.585 -13.021 -23.042  0.00  0.00    +0.001 C 
ATOM      6  C   UNL     1      33.434 -12.481 -25.392  0.00  0.00    +0.001 C 
ATOM      7  C   UNL     1      33.629 -15.384 -22.248  0.00  0.00    +0.034 C 
ATOM      8  C   UNL     1      33.315 -14.260 -27.133  0.00  0.00    +0.034 C 
ENDROOT
BRANCH   4  11
ATOM      9  O   UNL     1      32.972  -8.712 -22.913  0.00  0.00    -0.447 OA
ATOM     10  N   UNL     1      34.526  -9.807 -24.138  0.00  0.00    -0.372 NA
ATOM     11  C   UNL     1      33.546 -10.672 -23.741  0.00  0.00    +0.156 C 
ATOM     12  C   UNL     1      32.600 -10.019 -22.997  0.00  0.00    +0.266 C 
ATOM     13  C   UNL     1      34.134  -8.665 -23.620  0.00  0.00    +0.253 C 
ATOM     14  C   UNL     1      34.783  -7.348 -23.705  0.00  0.00    +0.110 C 
ENDBRANCH   4  11
BRANCH   1  15
ATOM     15  O   UNL     1      33.448 -16.120 -24.988  0.00  0.00    -0.476 OA
BRANCH  15  16
ATOM     16  C   UNL     1      34.703 -16.751 -25.233  0.00  0.00    +0.206 C 
BRANCH  16  17
ATOM     17  C   UNL     1      34.745 -18.073 -24.480  0.00  0.00    +0.055 C 
BRANCH  17  18
ATOM     18  C   UNL     1      35.703 -18.012 -23.290  0.00  0.00    +0.071 C 
BRANCH  18  21
ATOM     19  O   UNL     1      36.152 -19.161 -21.228  0.00  0.00    -0.358 OA
ATOM     20  N   UNL     1      35.553 -19.950 -20.253  0.00  0.00    -0.082 NA
ATOM     21  C   UNL     1      35.221 -18.869 -22.147  0.00  0.00    +0.154 C 
ATOM     22  C   UNL     1      34.027 -19.409 -21.856  0.00  0.00    +0.054 C 
ATOM     23  C   UNL     1      34.284 -20.084 -20.650  0.00  0.00    +0.101 C 
ATOM     24  C   UNL     1      33.342 -20.873 -19.840  0.00  0.00    +0.056 C 
ENDBRANCH  18  21
ENDBRANCH  17  18
ENDBRANCH  16  17
ENDBRANCH  15  16
ENDBRANCH   1  15
TORSDOF 6
ENDMDL
MODEL 8
REMARK VINA RESULT:      -9.8      1.583      9.486
REMARK  Name = 448138
REMARK  6 active torsions:
REMARK  status: ('A' for Active; 'I' for Inactive)
REMARK    1  A    between atoms: C_1  and  O_15
REMARK    2  A    between atoms: C_4  and  C_11
REMARK    3  A    between atoms: O_15  and  C_16
REMARK    4  A    between atoms: C_16  and  C_17
REMARK    5  A    between atoms: C_17  and  C_18
REMARK    6  A    between atoms: C_18  and  C_21
REMARK                            x       y       z     vdW  Elec       q    Type
REMARK                         _______ _______ _______ _____ _____    ______ ____
ROOT
ATOM      1  C   UNL     1      34.351 -16.413 -22.875  0.00  0.00    +0.130 C 
ATOM      2  C   UNL     1      34.282 -15.487 -21.834  0.00  0.00    +0.012 C 
ATOM      3  C   UNL     1      34.166 -15.995 -24.194  0.00  0.00    +0.012 C 
ATOM      4  C   UNL     1      33.845 -13.726 -23.429  0.00  0.00    +0.029 C 
ATOM      5  C   UNL     1      34.029 -14.143 -22.111  0.00  0.00    +0.001 C 
ATOM      6  C   UNL     1      33.913 -14.652 -24.470  0.00  0.00    +0.001 C 
ATOM      7  C   UNL     1      34.478 -15.915 -20.416  0.00  0.00    +0.034 C 
ATOM      8  C   UNL     1      34.236 -16.971 -25.321  0.00  0.00    +0.034 C 
ENDROOT
BRANCH   4  11
ATOM      9  O   UNL     1      33.619 -10.373 -24.702  0.00  0.00    -0.447 OA
ATOM     10  N   UNL     1      32.776 -11.540 -22.957  0.00  0.00    -0.372 NA
ATOM     11  C   UNL     1      33.582 -12.343 -23.714  0.00  0.00    +0.156 C 
ATOM     12  C   UNL     1      34.097 -11.646 -24.773  0.00  0.00    +0.266 C 
ATOM     13  C   UNL     1      32.835 -10.389 -23.588  0.00  0.00    +0.253 C 
ATOM     14  C   UNL     1      32.171  -9.121 -23.252  0.00  0.00    +0.110 C 
ENDBRANCH   4  11
BRANCH   1  15
ATOM     15  O   UNL     1      34.598 -17.727 -22.605  0.00  0.00    -0.476 OA
BRANCH  15  16
ATOM     16  C   UNL     1      35.932 -18.071 -22.238  0.00  0.00    +0.206 C 
BRANCH  16  17
ATOM     17  C   UNL     1      35.884 -19.142 -21.156  0.00  0.00    +0.055 C 
BRANCH  17  18
ATOM     18  C   UNL     1      34.504 -19.795 -21.072  0.00  0.00    +0.071 C 
BRANCH  18  21
ATOM     19  O   UNL     1      35.661 -21.289 -19.587  0.00  0.00    -0.358 OA
ATOM     20  N   UNL     1      35.449 -22.266 -18.623  0.00  0.00    -0.082 NA
ATOM     21  C   UNL     1      34.462 -20.867 -20.012  0.00  0.00    +0.154 C 
ATOM     22  C   UNL     1      33.450 -21.497 -19.397  0.00  0.00    +0.054 C 
ATOM     23  C   UNL     1      34.121 -22.374 -18.526  0.00  0.00    +0.101 C 
ATOM     24  C   UNL     1      33.529 -23.334 -17.581  0.00  0.00    +0.056 C 
ENDBRANCH  18  21
ENDBRANCH  17  18
ENDBRANCH  16  17
ENDBRANCH  15  16
ENDBRANCH   1  15
TORSDOF 6
ENDMDL
MODEL 9
REMARK VINA RESULT:      -9.7      1.346      9.120
REMARK  Name = 448138
REMARK  6 active torsions:
REMARK  status: ('A' for Active; 'I' for Inactive)
REMARK    1  A    between atoms: C_1  and  O_15
REMARK    2  A    between atoms: C_4  and  C_11
REMARK    3  A    between atoms: O_15  and  C_16
REMARK    4  A    between atoms: C_16  and  C_17
REMARK    5  A    between atoms: C_17  and  C_18
REMARK    6  A    between atoms: C_18  and  C_21
REMARK                            x       y       z     vdW  Elec       q    Type
REMARK                         _______ _______ _______ _____ _____    ______ ____
ROOT
ATOM      1  C   UNL     1      33.762 -15.237 -23.702  0.00  0.00    +0.130 C 
ATOM      2  C   UNL     1      33.444 -14.538 -24.866  0.00  0.00    +0.012 C 
ATOM      3  C   UNL     1      34.010 -14.542 -22.517  0.00  0.00    +0.012 C 
ATOM      4  C   UNL     1      33.618 -12.451 -23.662  0.00  0.00    +0.029 C 
ATOM      5  C   UNL     1      33.371 -13.145 -24.846  0.00  0.00    +0.001 C 
ATOM      6  C   UNL     1      33.938 -13.149 -22.498  0.00  0.00    +0.001 C 
ATOM      7  C   UNL     1      33.175 -15.265 -26.143  0.00  0.00    +0.034 C 
ATOM      8  C   UNL     1      34.352 -15.272 -21.260  0.00  0.00    +0.034 C 
ENDROOT
BRANCH   4  11
ATOM      9  O   UNL     1      32.753  -8.971 -23.437  0.00  0.00    -0.447 OA
ATOM     10  N   UNL     1      34.599 -10.188 -23.912  0.00  0.00    -0.372 NA
ATOM     11  C   UNL     1      33.546 -11.017 -23.643  0.00  0.00    +0.156 C 
ATOM     12  C   UNL     1      32.423 -10.290 -23.353  0.00  0.00    +0.266 C 
ATOM     13  C   UNL     1      34.071  -8.992 -23.775  0.00  0.00    +0.253 C 
ATOM     14  C   UNL     1      34.715  -7.680 -23.939  0.00  0.00    +0.110 C 
ENDBRANCH   4  11
BRANCH   1  15
ATOM     15  O   UNL     1      33.834 -16.599 -23.720  0.00  0.00    -0.476 OA
BRANCH  15  16
ATOM     16  C   UNL     1      35.103 -17.176 -24.020  0.00  0.00    +0.206 C 
BRANCH  16  17
ATOM     17  C   UNL     1      35.139 -18.596 -23.473  0.00  0.00    +0.055 C 
BRANCH  17  18
ATOM     18  C   UNL     1      35.595 -18.626 -22.014  0.00  0.00    +0.071 C 
BRANCH  18  21
ATOM     19  O   UNL     1      33.426 -19.417 -21.345  0.00  0.00    -0.358 OA
ATOM     20  N   UNL     1      32.798 -20.344 -20.524  0.00  0.00    -0.082 NA
ATOM     21  C   UNL     1      34.749 -19.563 -21.189  0.00  0.00    +0.154 C 
ATOM     22  C   UNL     1      35.058 -20.531 -20.313  0.00  0.00    +0.054 C 
ATOM     23  C   UNL     1      33.792 -20.998 -19.917  0.00  0.00    +0.101 C 
ATOM     24  C   UNL     1      33.487 -22.072 -18.959  0.00  0.00    +0.056 C 
ENDBRANCH  18  21
ENDBRANCH  17  18
ENDBRANCH  16  17
ENDBRANCH  15  16
ENDBRANCH   1  15
TORSDOF 6
ENDMDL
