MODEL 1
REMARK VINA RESULT:     -10.6      0.000      0.000
REMARK  Name = 46916694
REMARK  4 active torsions:
REMARK  status: ('A' for Active; 'I' for Inactive)
REMARK    1  A    between atoms: C_4  and  O_22
REMARK    2  A    between atoms: C_5  and  C_15
REMARK    3  A    between atoms: O_22  and  C_25
REMARK    4  A    between atoms: C_28  and  C_31
REMARK                            x       y       z     vdW  Elec       q    Type
REMARK                         _______ _______ _______ _____ _____    ______ ____
ROOT
ATOM      1  O   UNL     1      30.786 -22.830 -14.879  0.00  0.00    -0.458 OA
ATOM      2  C   UNL     1      31.833 -22.795 -16.880  0.00  0.00    +0.072 C 
ATOM      3  C   UNL     1      31.991 -22.940 -15.506  0.00  0.00    +0.148 C 
ATOM      4  C   UNL     1      32.972 -22.880 -17.701  0.00  0.00    +0.148 C 
ATOM      5  C   UNL     1      34.334 -23.247 -15.714  0.00  0.00    +0.060 C 
ATOM      6  C   UNL     1      30.445 -22.584 -17.089  0.00  0.00    +0.039 C 
ATOM      7  C   UNL     1      33.215 -23.167 -14.880  0.00  0.00    +0.042 C 
ATOM      8  C   UNL     1      29.857 -22.613 -15.845  0.00  0.00    +0.123 C 
ATOM      9  C   UNL     1      34.217 -23.106 -17.099  0.00  0.00    +0.042 C 
ATOM     10  C   UNL     1      28.469 -22.462 -15.387  0.00  0.00    +0.072 C 
ENDROOT
BRANCH   5  15
ATOM     11  O   UNL     1      36.188 -22.566 -14.485  0.00  0.00    -0.270 OA
ATOM     12  N   UNL     1      36.207 -24.741 -15.365  0.00  0.00    -0.268 N 
ATOM     13  N   UNL     1      37.827 -26.494 -15.279  0.00  0.00    -0.252 NA
ATOM     14  N   UNL     1      39.496 -24.817 -13.771  0.00  0.00    -0.269 NA
ATOM     15  C   UNL     1      35.645 -23.480 -15.127  0.00  0.00    +0.251 C 
ATOM     16  C   UNL     1      37.465 -25.240 -14.946  0.00  0.00    +0.131 C 
ATOM     17  C   UNL     1      38.285 -24.416 -14.205  0.00  0.00    +0.185 C 
ATOM     18  C   UNL     1      39.858 -26.072 -14.105  0.00  0.00    +0.057 C 
ATOM     19  C   UNL     1      39.038 -26.896 -14.845  0.00  0.00    +0.167 C 
ATOM     20  C   UNL     1      41.191 -26.550 -13.643  0.00  0.00    +0.049 C 
ATOM     21  H   UNL     1      35.655 -25.363 -15.892  0.00  0.00    +0.156 HD
ENDBRANCH   5  15
BRANCH   4  22
ATOM     22  O   UNL     1      32.889 -22.742 -19.059  0.00  0.00    -0.454 OA
BRANCH  22  25
ATOM     23  N   UNL     1      33.054 -19.438 -20.645  0.00  0.00    -0.186 NA
ATOM     24  N   UNL     1      35.293 -20.242 -20.256  0.00  0.00    -0.208 NA
ATOM     25  C   UNL     1      33.401 -21.585 -19.614  0.00  0.00    +0.168 C 
ATOM     26  C   UNL     1      32.589 -20.580 -20.098  0.00  0.00    +0.145 C 
ATOM     27  C   UNL     1      34.758 -21.359 -19.720  0.00  0.00    +0.202 C 
ATOM     28  C   UNL     1      34.396 -19.336 -20.692  0.00  0.00    +0.087 C 
BRANCH  28  31
ATOM     29  O   UNL     1      35.280 -17.223 -20.496  0.00  0.00    -0.259 OA
ATOM     30  N   UNL     1      35.051 -18.030 -22.677  0.00  0.00    -0.265 N 
ATOM     31  C   UNL     1      34.934 -18.123 -21.276  0.00  0.00    +0.312 C 
ATOM     32  C   UNL     1      34.632 -19.112 -23.566  0.00  0.00    +0.116 C 
ATOM     33  C   UNL     1      35.596 -16.850 -23.333  0.00  0.00    +0.116 C 
ENDBRANCH  28  31
ENDBRANCH  22  25
ENDBRANCH   4  22
TORSDOF 4
ENDMDL
MODEL 2
REMARK VINA RESULT:      -9.7      8.945     15.847
REMARK  Name = 46916694
REMARK  4 active torsions:
REMARK  status: ('A' for Active; 'I' for Inactive)
REMARK    1  A    between atoms: C_4  and  O_22
REMARK    2  A    between atoms: C_5  and  C_15
REMARK    3  A    between atoms: O_22  and  C_25
REMARK    4  A    between atoms: C_28  and  C_31
REMARK                            x       y       z     vdW  Elec       q    Type
REMARK                         _______ _______ _______ _____ _____    ______ ____
ROOT
ATOM      1  O   UNL     1      31.922  -9.431 -19.206  0.00  0.00    -0.458 OA
ATOM      2  C   UNL     1      31.774 -10.753 -21.031  0.00  0.00    +0.072 C 
ATOM      3  C   UNL     1      32.023  -9.466 -20.565  0.00  0.00    +0.148 C 
ATOM      4  C   UNL     1      31.833 -10.988 -22.417  0.00  0.00    +0.148 C 
ATOM      5  C   UNL     1      32.382  -8.639 -22.759  0.00  0.00    +0.060 C 
ATOM      6  C   UNL     1      31.509 -11.537 -19.879  0.00  0.00    +0.039 C 
ATOM      7  C   UNL     1      32.329  -8.383 -21.386  0.00  0.00    +0.042 C 
ATOM      8  C   UNL     1      31.610 -10.689 -18.801  0.00  0.00    +0.123 C 
ATOM      9  C   UNL     1      32.139  -9.917 -23.268  0.00  0.00    +0.042 C 
ATOM     10  C   UNL     1      31.451 -10.882 -17.352  0.00  0.00    +0.072 C 
ENDROOT
BRANCH   5  15
ATOM     11  O   UNL     1      33.796  -7.546 -24.248  0.00  0.00    -0.270 OA
ATOM     12  N   UNL     1      31.709  -6.566 -23.813  0.00  0.00    -0.268 N 
ATOM     13  N   UNL     1      30.682  -4.560 -24.603  0.00  0.00    -0.252 NA
ATOM     14  N   UNL     1      32.975  -4.039 -26.132  0.00  0.00    -0.269 NA
ATOM     15  C   UNL     1      32.694  -7.552 -23.674  0.00  0.00    +0.251 C 
ATOM     16  C   UNL     1      31.742  -5.392 -24.604  0.00  0.00    +0.131 C 
ATOM     17  C   UNL     1      32.869  -5.135 -25.355  0.00  0.00    +0.185 C 
ATOM     18  C   UNL     1      31.914  -3.208 -26.130  0.00  0.00    +0.057 C 
ATOM     19  C   UNL     1      30.787  -3.464 -25.380  0.00  0.00    +0.167 C 
ATOM     20  C   UNL     1      31.997  -1.985 -26.977  0.00  0.00    +0.049 C 
ATOM     21  H   UNL     1      30.885  -6.708 -23.293  0.00  0.00    +0.156 HD
ENDBRANCH   5  15
BRANCH   4  22
ATOM     22  O   UNL     1      31.597 -12.228 -22.944  0.00  0.00    -0.454 OA
BRANCH  22  25
ATOM     23  N   UNL     1      34.601 -14.307 -22.620  0.00  0.00    -0.186 NA
ATOM     24  N   UNL     1      32.813 -15.297 -21.343  0.00  0.00    -0.208 NA
ATOM     25  C   UNL     1      32.439 -13.254 -22.560  0.00  0.00    +0.168 C 
ATOM     26  C   UNL     1      33.753 -13.322 -22.976  0.00  0.00    +0.145 C 
ATOM     27  C   UNL     1      32.019 -14.279 -21.737  0.00  0.00    +0.202 C 
ATOM     28  C   UNL     1      34.074 -15.249 -21.814  0.00  0.00    +0.087 C 
BRANCH  28  31
ATOM     29  O   UNL     1      35.293 -16.369 -20.220  0.00  0.00    -0.259 OA
ATOM     30  N   UNL     1      35.369 -17.269 -22.376  0.00  0.00    -0.265 N 
ATOM     31  C   UNL     1      34.956 -16.327 -21.413  0.00  0.00    +0.312 C 
ATOM     32  C   UNL     1      34.951 -17.187 -23.774  0.00  0.00    +0.116 C 
ATOM     33  C   UNL     1      36.241 -18.387 -22.043  0.00  0.00    +0.116 C 
ENDBRANCH  28  31
ENDBRANCH  22  25
ENDBRANCH   4  22
TORSDOF 4
ENDMDL
MODEL 3
REMARK VINA RESULT:      -9.6      2.372      9.358
REMARK  Name = 46916694
REMARK  4 active torsions:
REMARK  status: ('A' for Active; 'I' for Inactive)
REMARK    1  A    between atoms: C_4  and  O_22
REMARK    2  A    between atoms: C_5  and  C_15
REMARK    3  A    between atoms: O_22  and  C_25
REMARK    4  A    between atoms: C_28  and  C_31
REMARK                            x       y       z     vdW  Elec       q    Type
REMARK                         _______ _______ _______ _____ _____    ______ ____
ROOT
ATOM      1  O   UNL     1      32.307 -22.411 -18.205  0.00  0.00    -0.458 OA
ATOM      2  C   UNL     1      34.563 -22.316 -18.144  0.00  0.00    +0.072 C 
ATOM      3  C   UNL     1      33.412 -21.831 -18.755  0.00  0.00    +0.148 C 
ATOM      4  C   UNL     1      35.810 -21.832 -18.579  0.00  0.00    +0.148 C 
ATOM      5  C   UNL     1      34.659 -20.420 -20.198  0.00  0.00    +0.060 C 
ATOM      6  C   UNL     1      34.120 -23.245 -17.166  0.00  0.00    +0.039 C 
ATOM      7  C   UNL     1      33.410 -20.888 -19.780  0.00  0.00    +0.042 C 
ATOM      8  C   UNL     1      32.747 -23.265 -17.245  0.00  0.00    +0.123 C 
ATOM      9  C   UNL     1      35.839 -20.882 -19.610  0.00  0.00    +0.042 C 
ATOM     10  C   UNL     1      31.710 -24.007 -16.514  0.00  0.00    +0.072 C 
ENDROOT
BRANCH   5  15
ATOM     11  O   UNL     1      35.309 -19.735 -22.324  0.00  0.00    -0.270 OA
ATOM     12  N   UNL     1      34.146 -18.191 -20.992  0.00  0.00    -0.268 N 
ATOM     13  N   UNL     1      33.471 -15.932 -21.371  0.00  0.00    -0.252 NA
ATOM     14  N   UNL     1      34.643 -16.055 -23.917  0.00  0.00    -0.269 NA
ATOM     15  C   UNL     1      34.730 -19.435 -21.266  0.00  0.00    +0.251 C 
ATOM     16  C   UNL     1      34.084 -17.045 -21.821  0.00  0.00    +0.131 C 
ATOM     17  C   UNL     1      34.660 -17.105 -23.072  0.00  0.00    +0.185 C 
ATOM     18  C   UNL     1      34.029 -14.943 -23.466  0.00  0.00    +0.057 C 
ATOM     19  C   UNL     1      33.454 -14.882 -22.216  0.00  0.00    +0.167 C 
ATOM     20  C   UNL     1      33.992 -13.763 -24.374  0.00  0.00    +0.049 C 
ATOM     21  H   UNL     1      33.723 -18.103 -20.107  0.00  0.00    +0.156 HD
ENDBRANCH   5  15
BRANCH   4  22
ATOM     22  O   UNL     1      36.982 -22.267 -18.025  0.00  0.00    -0.454 OA
BRANCH  22  25
ATOM     23  N   UNL     1      36.124 -22.027 -14.466  0.00  0.00    -0.186 NA
ATOM     24  N   UNL     1      37.921 -23.609 -14.741  0.00  0.00    -0.208 NA
ATOM     25  C   UNL     1      36.998 -22.487 -16.660  0.00  0.00    +0.168 C 
ATOM     26  C   UNL     1      36.136 -21.837 -15.801  0.00  0.00    +0.145 C 
ATOM     27  C   UNL     1      37.877 -23.370 -16.068  0.00  0.00    +0.202 C 
ATOM     28  C   UNL     1      37.029 -22.913 -14.009  0.00  0.00    +0.087 C 
BRANCH  28  31
ATOM     29  O   UNL     1      38.000 -22.665 -11.941  0.00  0.00    -0.259 OA
ATOM     30  N   UNL     1      35.996 -23.868 -11.986  0.00  0.00    -0.265 N 
ATOM     31  C   UNL     1      37.048 -23.142 -12.578  0.00  0.00    +0.312 C 
ATOM     32  C   UNL     1      34.891 -24.416 -12.769  0.00  0.00    +0.116 C 
ATOM     33  C   UNL     1      35.941 -24.123 -10.553  0.00  0.00    +0.116 C 
ENDBRANCH  28  31
ENDBRANCH  22  25
ENDBRANCH   4  22
TORSDOF 4
ENDMDL
MODEL 4
REMARK VINA RESULT:      -9.4      2.071      8.225
REMARK  Name = 46916694
REMARK  4 active torsions:
REMARK  status: ('A' for Active; 'I' for Inactive)
REMARK    1  A    between atoms: C_4  and  O_22
REMARK    2  A    between atoms: C_5  and  C_15
REMARK    3  A    between atoms: O_22  and  C_25
REMARK    4  A    between atoms: C_28  and  C_31
REMARK                            x       y       z     vdW  Elec       q    Type
REMARK                         _______ _______ _______ _____ _____    ______ ____
ROOT
ATOM      1  O   UNL     1      29.807 -24.548 -16.055  0.00  0.00    -0.458 OA
ATOM      2  C   UNL     1      31.593 -24.149 -14.730  0.00  0.00    +0.072 C 
ATOM      3  C   UNL     1      31.067 -24.029 -16.012  0.00  0.00    +0.148 C 
ATOM      4  C   UNL     1      32.891 -23.666 -14.489  0.00  0.00    +0.148 C 
ATOM      5  C   UNL     1      33.036 -22.985 -16.824  0.00  0.00    +0.060 C 
ATOM      6  C   UNL     1      30.583 -24.778 -13.956  0.00  0.00    +0.039 C 
ATOM      7  C   UNL     1      31.747 -23.458 -17.085  0.00  0.00    +0.042 C 
ATOM      8  C   UNL     1      29.524 -24.999 -14.805  0.00  0.00    +0.123 C 
ATOM      9  C   UNL     1      33.600 -23.086 -15.550  0.00  0.00    +0.042 C 
ATOM     10  C   UNL     1      28.198 -25.606 -14.621  0.00  0.00    +0.072 C 
ENDROOT
BRANCH   5  15
ATOM     11  O   UNL     1      35.029 -22.581 -17.954  0.00  0.00    -0.270 OA
ATOM     12  N   UNL     1      33.081 -21.576 -18.792  0.00  0.00    -0.268 N 
ATOM     13  N   UNL     1      32.694 -20.127 -20.651  0.00  0.00    -0.252 NA
ATOM     14  N   UNL     1      35.433 -20.228 -21.244  0.00  0.00    -0.269 NA
ATOM     15  C   UNL     1      33.805 -22.378 -17.900  0.00  0.00    +0.251 C 
ATOM     16  C   UNL     1      33.558 -20.846 -19.908  0.00  0.00    +0.131 C 
ATOM     17  C   UNL     1      34.904 -20.895 -20.200  0.00  0.00    +0.185 C 
ATOM     18  C   UNL     1      34.568 -19.509 -21.986  0.00  0.00    +0.057 C 
ATOM     19  C   UNL     1      33.222 -19.459 -21.695  0.00  0.00    +0.167 C 
ATOM     20  C   UNL     1      35.118 -18.757 -23.148  0.00  0.00    +0.049 C 
ATOM     21  H   UNL     1      32.113 -21.511 -18.620  0.00  0.00    +0.156 HD
ENDBRANCH   5  15
BRANCH   4  22
ATOM     22  O   UNL     1      33.471 -23.754 -13.253  0.00  0.00    -0.454 OA
BRANCH  22  25
ATOM     23  N   UNL     1      36.951 -24.235 -12.195  0.00  0.00    -0.186 NA
ATOM     24  N   UNL     1      36.451 -25.764 -13.989  0.00  0.00    -0.208 NA
ATOM     25  C   UNL     1      34.759 -24.250 -13.188  0.00  0.00    +0.168 C 
ATOM     26  C   UNL     1      35.687 -23.773 -12.285  0.00  0.00    +0.145 C 
ATOM     27  C   UNL     1      35.202 -25.255 -14.024  0.00  0.00    +0.202 C 
ATOM     28  C   UNL     1      37.262 -25.215 -13.064  0.00  0.00    +0.087 C 
BRANCH  28  31
ATOM     29  O   UNL     1      38.910 -26.421 -12.008  0.00  0.00    -0.259 OA
ATOM     30  N   UNL     1      39.507 -25.455 -14.052  0.00  0.00    -0.265 N 
ATOM     31  C   UNL     1      38.614 -25.735 -12.999  0.00  0.00    +0.312 C 
ATOM     32  C   UNL     1      39.122 -24.643 -15.203  0.00  0.00    +0.116 C 
ATOM     33  C   UNL     1      40.874 -25.957 -14.061  0.00  0.00    +0.116 C 
ENDBRANCH  28  31
ENDBRANCH  22  25
ENDBRANCH   4  22
TORSDOF 4
ENDMDL
MODEL 5
REMARK VINA RESULT:      -9.0      8.955     13.539
REMARK  Name = 46916694
REMARK  4 active torsions:
REMARK  status: ('A' for Active; 'I' for Inactive)
REMARK    1  A    between atoms: C_4  and  O_22
REMARK    2  A    between atoms: C_5  and  C_15
REMARK    3  A    between atoms: O_22  and  C_25
REMARK    4  A    between atoms: C_28  and  C_31
REMARK                            x       y       z     vdW  Elec       q    Type
REMARK                         _______ _______ _______ _____ _____    ______ ____
ROOT
ATOM      1  O   UNL     1      31.393 -11.806 -20.506  0.00  0.00    -0.458 OA
ATOM      2  C   UNL     1      32.447 -10.729 -22.189  0.00  0.00    +0.072 C 
ATOM      3  C   UNL     1      32.061 -11.966 -21.683  0.00  0.00    +0.148 C 
ATOM      4  C   UNL     1      33.152 -10.690 -23.405  0.00  0.00    +0.148 C 
ATOM      5  C   UNL     1      33.031 -13.121 -23.514  0.00  0.00    +0.060 C 
ATOM      6  C   UNL     1      31.980  -9.767 -21.255  0.00  0.00    +0.039 C 
ATOM      7  C   UNL     1      32.329 -13.182 -22.307  0.00  0.00    +0.042 C 
ATOM      8  C   UNL     1      31.350 -10.471 -20.256  0.00  0.00    +0.123 C 
ATOM      9  C   UNL     1      33.437 -11.898 -24.055  0.00  0.00    +0.042 C 
ATOM     10  C   UNL     1      30.666 -10.067 -19.019  0.00  0.00    +0.072 C 
ENDROOT
BRANCH   5  15
ATOM     11  O   UNL     1      33.164 -14.411 -25.445  0.00  0.00    -0.270 OA
ATOM     12  N   UNL     1      33.819 -15.409 -23.425  0.00  0.00    -0.268 N 
ATOM     13  N   UNL     1      34.615 -17.598 -22.900  0.00  0.00    -0.252 NA
ATOM     14  N   UNL     1      34.391 -18.282 -25.611  0.00  0.00    -0.269 NA
ATOM     15  C   UNL     1      33.347 -14.354 -24.218  0.00  0.00    +0.251 C 
ATOM     16  C   UNL     1      34.179 -16.719 -23.823  0.00  0.00    +0.131 C 
ATOM     17  C   UNL     1      34.069 -17.056 -25.155  0.00  0.00    +0.185 C 
ATOM     18  C   UNL     1      34.828 -19.161 -24.687  0.00  0.00    +0.057 C 
ATOM     19  C   UNL     1      34.938 -18.825 -23.355  0.00  0.00    +0.167 C 
ATOM     20  C   UNL     1      35.193 -20.527 -25.154  0.00  0.00    +0.049 C 
ATOM     21  H   UNL     1      33.912 -15.213 -22.465  0.00  0.00    +0.156 HD
ENDBRANCH   5  15
BRANCH   4  22
ATOM     22  O   UNL     1      33.565  -9.508 -23.958  0.00  0.00    -0.454 OA
BRANCH  22  25
ATOM     23  N   UNL     1      30.895  -7.004 -23.718  0.00  0.00    -0.186 NA
ATOM     24  N   UNL     1      32.783  -6.275 -22.410  0.00  0.00    -0.208 NA
ATOM     25  C   UNL     1      32.876  -8.364 -23.601  0.00  0.00    +0.168 C 
ATOM     26  C   UNL     1      31.595  -8.108 -24.046  0.00  0.00    +0.145 C 
ATOM     27  C   UNL     1      33.425  -7.403 -22.778  0.00  0.00    +0.202 C 
ATOM     28  C   UNL     1      31.538  -6.141 -22.909  0.00  0.00    +0.087 C 
BRANCH  28  31
ATOM     29  O   UNL     1      30.062  -5.013 -21.555  0.00  0.00    -0.259 OA
ATOM     30  N   UNL     1      31.018  -3.762 -23.283  0.00  0.00    -0.265 N 
ATOM     31  C   UNL     1      30.818  -4.940 -22.536  0.00  0.00    +0.312 C 
ATOM     32  C   UNL     1      31.917  -3.713 -24.434  0.00  0.00    +0.116 C 
ATOM     33  C   UNL     1      30.340  -2.514 -22.958  0.00  0.00    +0.116 C 
ENDBRANCH  28  31
ENDBRANCH  22  25
ENDBRANCH   4  22
TORSDOF 4
ENDMDL
MODEL 6
REMARK VINA RESULT:      -8.8      7.471     12.320
REMARK  Name = 46916694
REMARK  4 active torsions:
REMARK  status: ('A' for Active; 'I' for Inactive)
REMARK    1  A    between atoms: C_4  and  O_22
REMARK    2  A    between atoms: C_5  and  C_15
REMARK    3  A    between atoms: O_22  and  C_25
REMARK    4  A    between atoms: C_28  and  C_31
REMARK                            x       y       z     vdW  Elec       q    Type
REMARK                         _______ _______ _______ _____ _____    ______ ____
ROOT
ATOM      1  O   UNL     1      34.566 -12.388 -24.859  0.00  0.00    -0.458 OA
ATOM      2  C   UNL     1      33.114 -11.794 -23.235  0.00  0.00    +0.072 C 
ATOM      3  C   UNL     1      33.834 -12.840 -23.802  0.00  0.00    +0.148 C 
ATOM      4  C   UNL     1      32.294 -12.066 -22.124  0.00  0.00    +0.148 C 
ATOM      5  C   UNL     1      32.976 -14.403 -22.236  0.00  0.00    +0.060 C 
ATOM      6  C   UNL     1      33.436 -10.643 -24.000  0.00  0.00    +0.039 C 
ATOM      7  C   UNL     1      33.797 -14.154 -23.339  0.00  0.00    +0.042 C 
ATOM      8  C   UNL     1      34.318 -11.057 -24.971  0.00  0.00    +0.123 C 
ATOM      9  C   UNL     1      32.237 -13.379 -21.638  0.00  0.00    +0.042 C 
ATOM     10  C   UNL     1      35.014 -10.359 -26.061  0.00  0.00    +0.072 C 
ENDROOT
BRANCH   5  15
ATOM     11  O   UNL     1      31.813 -16.142 -21.220  0.00  0.00    -0.270 OA
ATOM     12  N   UNL     1      34.067 -16.511 -21.759  0.00  0.00    -0.268 N 
ATOM     13  N   UNL     1      35.506 -18.391 -21.447  0.00  0.00    -0.252 NA
ATOM     14  N   UNL     1      33.375 -19.766 -20.248  0.00  0.00    -0.269 NA
ATOM     15  C   UNL     1      32.890 -15.753 -21.703  0.00  0.00    +0.251 C 
ATOM     16  C   UNL     1      34.289 -17.832 -21.300  0.00  0.00    +0.131 C 
ATOM     17  C   UNL     1      33.242 -18.508 -20.710  0.00  0.00    +0.185 C 
ATOM     18  C   UNL     1      34.593 -20.325 -20.396  0.00  0.00    +0.057 C 
ATOM     19  C   UNL     1      35.640 -19.650 -20.985  0.00  0.00    +0.167 C 
ATOM     20  C   UNL     1      34.777 -21.716 -19.895  0.00  0.00    +0.049 C 
ATOM     21  H   UNL     1      34.842 -16.066 -22.173  0.00  0.00    +0.156 HD
ENDBRANCH   5  15
BRANCH   4  22
ATOM     22  O   UNL     1      31.556 -11.086 -21.520  0.00  0.00    -0.454 OA
BRANCH  22  25
ATOM     23  N   UNL     1      31.004  -8.089 -23.564  0.00  0.00    -0.186 NA
ATOM     24  N   UNL     1      32.733  -7.636 -21.947  0.00  0.00    -0.208 NA
ATOM     25  C   UNL     1      31.680  -9.800 -22.013  0.00  0.00    +0.168 C 
ATOM     26  C   UNL     1      30.909  -9.336 -23.059  0.00  0.00    +0.145 C 
ATOM     27  C   UNL     1      32.585  -8.897 -21.491  0.00  0.00    +0.202 C 
ATOM     28  C   UNL     1      31.922  -7.303 -22.970  0.00  0.00    +0.087 C 
BRANCH  28  31
ATOM     29  O   UNL     1      32.831  -5.790 -24.441  0.00  0.00    -0.259 OA
ATOM     30  N   UNL     1      31.297  -4.920 -22.907  0.00  0.00    -0.265 N 
ATOM     31  C   UNL     1      32.055  -5.956 -23.489  0.00  0.00    +0.312 C 
ATOM     32  C   UNL     1      30.392  -5.154 -21.784  0.00  0.00    +0.116 C 
ATOM     33  C   UNL     1      31.368  -3.546 -23.386  0.00  0.00    +0.116 C 
ENDBRANCH  28  31
ENDBRANCH  22  25
ENDBRANCH   4  22
TORSDOF 4
ENDMDL
MODEL 7
REMARK VINA RESULT:      -8.6      5.760     10.588
REMARK  Name = 46916694
REMARK  4 active torsions:
REMARK  status: ('A' for Active; 'I' for Inactive)
REMARK    1  A    between atoms: C_4  and  O_22
REMARK    2  A    between atoms: C_5  and  C_15
REMARK    3  A    between atoms: O_22  and  C_25
REMARK    4  A    between atoms: C_28  and  C_31
REMARK                            x       y       z     vdW  Elec       q    Type
REMARK                         _______ _______ _______ _____ _____    ______ ____
ROOT
ATOM      1  O   UNL     1      33.969 -15.075 -26.105  0.00  0.00    -0.458 OA
ATOM      2  C   UNL     1      33.045 -14.310 -24.191  0.00  0.00    +0.072 C 
ATOM      3  C   UNL     1      33.820 -15.309 -24.770  0.00  0.00    +0.148 C 
ATOM      4  C   UNL     1      32.781 -14.379 -22.811  0.00  0.00    +0.148 C 
ATOM      5  C   UNL     1      34.083 -16.436 -22.700  0.00  0.00    +0.060 C 
ATOM      6  C   UNL     1      32.709 -13.421 -25.245  0.00  0.00    +0.039 C 
ATOM      7  C   UNL     1      34.358 -16.386 -24.069  0.00  0.00    +0.042 C 
ATOM      8  C   UNL     1      33.293 -13.930 -26.382  0.00  0.00    +0.123 C 
ATOM      9  C   UNL     1      33.308 -15.452 -22.080  0.00  0.00    +0.042 C 
ATOM     10  C   UNL     1      33.320 -13.485 -27.783  0.00  0.00    +0.072 C 
ENDROOT
BRANCH   5  15
ATOM     11  O   UNL     1      35.841 -17.635 -21.760  0.00  0.00    -0.270 OA
ATOM     12  N   UNL     1      33.663 -18.425 -21.384  0.00  0.00    -0.268 N 
ATOM     13  N   UNL     1      32.825 -20.318 -20.193  0.00  0.00    -0.252 NA
ATOM     14  N   UNL     1      35.463 -21.028 -19.554  0.00  0.00    -0.269 NA
ATOM     15  C   UNL     1      34.611 -17.535 -21.907  0.00  0.00    +0.251 C 
ATOM     16  C   UNL     1      33.880 -19.587 -20.605  0.00  0.00    +0.131 C 
ATOM     17  C   UNL     1      35.176 -19.937 -20.290  0.00  0.00    +0.185 C 
ATOM     18  C   UNL     1      34.407 -21.758 -19.143  0.00  0.00    +0.057 C 
ATOM     19  C   UNL     1      33.111 -21.410 -19.456  0.00  0.00    +0.167 C 
ATOM     20  C   UNL     1      34.686 -22.973 -18.327  0.00  0.00    +0.049 C 
ATOM     21  H   UNL     1      32.723 -18.214 -21.585  0.00  0.00    +0.156 HD
ENDBRANCH   5  15
BRANCH   4  22
ATOM     22  O   UNL     1      32.024 -13.433 -22.177  0.00  0.00    -0.454 OA
BRANCH  22  25
ATOM     23  N   UNL     1      33.678 -10.447 -23.521  0.00  0.00    -0.186 NA
ATOM     24  N   UNL     1      31.866  -9.768 -22.085  0.00  0.00    -0.208 NA
ATOM     25  C   UNL     1      32.322 -12.107 -22.427  0.00  0.00    +0.168 C 
ATOM     26  C   UNL     1      33.360 -11.730 -23.255  0.00  0.00    +0.145 C 
ATOM     27  C   UNL     1      31.602 -11.073 -21.864  0.00  0.00    +0.202 C 
ATOM     28  C   UNL     1      32.902  -9.530 -22.912  0.00  0.00    +0.087 C 
BRANCH  28  31
ATOM     29  O   UNL     1      34.351  -7.747 -22.858  0.00  0.00    -0.259 OA
ATOM     30  N   UNL     1      32.242  -7.317 -23.772  0.00  0.00    -0.265 N 
ATOM     31  C   UNL     1      33.216  -8.139 -23.172  0.00  0.00    +0.312 C 
ATOM     32  C   UNL     1      30.916  -7.814 -24.128  0.00  0.00    +0.116 C 
ATOM     33  C   UNL     1      32.493  -5.915 -24.076  0.00  0.00    +0.116 C 
ENDBRANCH  28  31
ENDBRANCH  22  25
ENDBRANCH   4  22
TORSDOF 4
ENDMDL
MODEL 8
REMARK VINA RESULT:      -8.4      8.787     15.672
REMARK  Name = 46916694
REMARK  4 active torsions:
REMARK  status: ('A' for Active; 'I' for Inactive)
REMARK    1  A    between atoms: C_4  and  O_22
REMARK    2  A    between atoms: C_5  and  C_15
REMARK    3  A    between atoms: O_22  and  C_25
REMARK    4  A    between atoms: C_28  and  C_31
REMARK                            x       y       z     vdW  Elec       q    Type
REMARK                         _______ _______ _______ _____ _____    ______ ____
ROOT
ATOM      1  O   UNL     1      31.723  -9.361 -19.163  0.00  0.00    -0.458 OA
ATOM      2  C   UNL     1      31.646 -10.555 -21.078  0.00  0.00    +0.072 C 
ATOM      3  C   UNL     1      31.756  -9.285 -20.524  0.00  0.00    +0.148 C 
ATOM      4  C   UNL     1      31.662 -10.681 -22.479  0.00  0.00    +0.148 C 
ATOM      5  C   UNL     1      31.895  -8.262 -22.659  0.00  0.00    +0.060 C 
ATOM      6  C   UNL     1      31.540 -11.449 -19.981  0.00  0.00    +0.039 C 
ATOM      7  C   UNL     1      31.883  -8.115 -21.270  0.00  0.00    +0.042 C 
ATOM      8  C   UNL     1      31.591 -10.675 -18.845  0.00  0.00    +0.123 C 
ATOM      9  C   UNL     1      31.787  -9.521 -23.256  0.00  0.00    +0.042 C 
ATOM     10  C   UNL     1      31.533 -10.991 -17.410  0.00  0.00    +0.072 C 
ENDROOT
BRANCH   5  15
ATOM     11  O   UNL     1      31.127  -6.220 -23.467  0.00  0.00    -0.270 OA
ATOM     12  N   UNL     1      33.162  -7.027 -24.313  0.00  0.00    -0.268 N 
ATOM     13  N   UNL     1      34.685  -6.158 -25.934  0.00  0.00    -0.252 NA
ATOM     14  N   UNL     1      32.994  -3.945 -26.271  0.00  0.00    -0.269 NA
ATOM     15  C   UNL     1      32.022  -7.081 -23.499  0.00  0.00    +0.251 C 
ATOM     16  C   UNL     1      33.537  -6.026 -25.241  0.00  0.00    +0.131 C 
ATOM     17  C   UNL     1      32.706  -4.938 -25.407  0.00  0.00    +0.185 C 
ATOM     18  C   UNL     1      34.143  -4.078 -26.964  0.00  0.00    +0.057 C 
ATOM     19  C   UNL     1      34.973  -5.165 -26.798  0.00  0.00    +0.167 C 
ATOM     20  C   UNL     1      34.492  -3.000 -27.929  0.00  0.00    +0.049 C 
ATOM     21  H   UNL     1      33.784  -7.786 -24.227  0.00  0.00    +0.156 HD
ENDBRANCH   5  15
BRANCH   4  22
ATOM     22  O   UNL     1      31.554 -11.899 -23.092  0.00  0.00    -0.454 OA
BRANCH  22  25
ATOM     23  N   UNL     1      32.644 -14.899 -21.282  0.00  0.00    -0.186 NA
ATOM     24  N   UNL     1      34.498 -14.021 -22.547  0.00  0.00    -0.208 NA
ATOM     25  C   UNL     1      32.358 -12.920 -22.622  0.00  0.00    +0.168 C 
ATOM     26  C   UNL     1      31.888 -13.889 -21.759  0.00  0.00    +0.145 C 
ATOM     27  C   UNL     1      33.685 -13.038 -22.986  0.00  0.00    +0.202 C 
ATOM     28  C   UNL     1      33.921 -14.905 -21.710  0.00  0.00    +0.087 C 
BRANCH  28  31
ATOM     29  O   UNL     1      35.133 -15.905 -20.033  0.00  0.00    -0.259 OA
ATOM     30  N   UNL     1      35.110 -17.031 -22.081  0.00  0.00    -0.265 N 
ATOM     31  C   UNL     1      34.765 -15.974 -21.215  0.00  0.00    +0.312 C 
ATOM     32  C   UNL     1      34.658 -17.079 -23.470  0.00  0.00    +0.116 C 
ATOM     33  C   UNL     1      35.941 -18.146 -21.649  0.00  0.00    +0.116 C 
ENDBRANCH  28  31
ENDBRANCH  22  25
ENDBRANCH   4  22
TORSDOF 4
ENDMDL
MODEL 9
REMARK VINA RESULT:      -8.4      4.784     12.428
REMARK  Name = 46916694
REMARK  4 active torsions:
REMARK  status: ('A' for Active; 'I' for Inactive)
REMARK    1  A    between atoms: C_4  and  O_22
REMARK    2  A    between atoms: C_5  and  C_15
REMARK    3  A    between atoms: O_22  and  C_25
REMARK    4  A    between atoms: C_28  and  C_31
REMARK                            x       y       z     vdW  Elec       q    Type
REMARK                         _______ _______ _______ _____ _____    ______ ____
ROOT
ATOM      1  O   UNL     1      34.057 -17.474 -25.778  0.00  0.00    -0.458 OA
ATOM      2  C   UNL     1      34.620 -17.000 -23.642  0.00  0.00    +0.072 C 
ATOM      3  C   UNL     1      34.143 -16.485 -24.843  0.00  0.00    +0.148 C 
ATOM      4  C   UNL     1      34.776 -16.126 -22.552  0.00  0.00    +0.148 C 
ATOM      5  C   UNL     1      33.969 -14.297 -23.945  0.00  0.00    +0.060 C 
ATOM      6  C   UNL     1      34.833 -18.384 -23.873  0.00  0.00    +0.039 C 
ATOM      7  C   UNL     1      33.806 -15.148 -25.041  0.00  0.00    +0.042 C 
ATOM      8  C   UNL     1      34.479 -18.619 -25.181  0.00  0.00    +0.123 C 
ATOM      9  C   UNL     1      34.445 -14.774 -22.721  0.00  0.00    +0.042 C 
ATOM     10  C   UNL     1      34.469 -19.827 -26.018  0.00  0.00    +0.072 C 
ENDROOT
BRANCH   5  15
ATOM     11  O   UNL     1      33.952 -12.294 -25.128  0.00  0.00    -0.270 OA
ATOM     12  N   UNL     1      33.000 -12.298 -22.983  0.00  0.00    -0.268 N 
ATOM     13  N   UNL     1      31.980 -10.578 -21.676  0.00  0.00    -0.252 NA
ATOM     14  N   UNL     1      32.450  -8.770 -23.768  0.00  0.00    -0.269 NA
ATOM     15  C   UNL     1      33.638 -12.887 -24.082  0.00  0.00    +0.251 C 
ATOM     16  C   UNL     1      32.584 -10.954 -22.820  0.00  0.00    +0.131 C 
ATOM     17  C   UNL     1      32.815 -10.064 -23.848  0.00  0.00    +0.185 C 
ATOM     18  C   UNL     1      31.845  -8.396 -22.623  0.00  0.00    +0.057 C 
ATOM     19  C   UNL     1      31.614  -9.284 -21.595  0.00  0.00    +0.167 C 
ATOM     20  C   UNL     1      31.429  -6.971 -22.499  0.00  0.00    +0.049 C 
ATOM     21  H   UNL     1      32.815 -12.897 -22.224  0.00  0.00    +0.156 HD
ENDBRANCH   5  15
BRANCH   4  22
ATOM     22  O   UNL     1      35.243 -16.564 -21.343  0.00  0.00    -0.454 OA
BRANCH  22  25
ATOM     23  N   UNL     1      35.428 -20.053 -20.227  0.00  0.00    -0.186 NA
ATOM     24  N   UNL     1      33.115 -19.397 -20.389  0.00  0.00    -0.208 NA
ATOM     25  C   UNL     1      34.856 -17.824 -20.930  0.00  0.00    +0.168 C 
ATOM     26  C   UNL     1      35.771 -18.814 -20.633  0.00  0.00    +0.145 C 
ATOM     27  C   UNL     1      33.529 -18.176 -20.789  0.00  0.00    +0.202 C 
ATOM     28  C   UNL     1      34.104 -20.274 -20.128  0.00  0.00    +0.087 C 
BRANCH  28  31
ATOM     29  O   UNL     1      32.643 -22.048 -20.172  0.00  0.00    -0.259 OA
ATOM     30  N   UNL     1      34.510 -22.302 -18.788  0.00  0.00    -0.265 N 
ATOM     31  C   UNL     1      33.697 -21.597 -19.697  0.00  0.00    +0.312 C 
ATOM     32  C   UNL     1      35.745 -21.738 -18.249  0.00  0.00    +0.116 C 
ATOM     33  C   UNL     1      34.173 -23.641 -18.324  0.00  0.00    +0.116 C 
ENDBRANCH  28  31
ENDBRANCH  22  25
ENDBRANCH   4  22
TORSDOF 4
ENDMDL
