MODEL 1
REMARK VINA RESULT:      -9.1      0.000      0.000
REMARK  Name = 71384
REMARK  3 active torsions:
REMARK  status: ('A' for Active; 'I' for Inactive)
REMARK    1  A    between atoms: C_1  and  N_5
REMARK    2  A    between atoms: C_1  and  C_13
REMARK    3  A    between atoms: C_13  and  N_16
REMARK                            x       y       z     vdW  Elec       q    Type
REMARK                         _______ _______ _______ _____ _____    ______ ____
ROOT
ATOM      1  C   UNL     1      34.828 -23.841 -14.339  0.00  0.00    -0.078 C 
ATOM      2  C   UNL     1      35.575 -25.008 -14.983  0.00  0.00    -0.025 C 
ENDROOT
BRANCH   1   5
ATOM      3  O   UNL     1      35.259 -24.669  -9.704  0.00  0.00    -0.277 OA
ATOM      4  O   UNL     1      38.522 -22.243 -11.858  0.00  0.00    -0.277 OA
ATOM      5  N   UNL     1      35.455 -23.539 -13.051  0.00  0.00    +0.399 N 
ATOM      6  N   UNL     1      36.874 -23.427 -10.772  0.00  0.00    -0.259 N 
ATOM      7  C   UNL     1      35.193 -24.618 -12.098  0.00  0.00    +0.011 C 
ATOM      8  C   UNL     1      36.896 -23.352 -13.221  0.00  0.00    +0.011 C 
ATOM      9  C   UNL     1      35.749 -24.235 -10.747  0.00  0.00    +0.207 C 
ATOM     10  C   UNL     1      37.503 -22.931 -11.905  0.00  0.00    +0.207 C 
ATOM     11  H   UNL     1      35.054 -22.676 -12.685  0.00  0.00    -0.078 HD
ATOM     12  H   UNL     1      37.265 -23.181  -9.903  0.00  0.00    +0.157 HD
ENDBRANCH   1   5
BRANCH   1  13
ATOM     13  C   UNL     1      33.338 -24.136 -14.105  0.00  0.00    -0.097 C 
BRANCH  13  16
ATOM     14  O   UNL     1      29.022 -22.826 -15.520  0.00  0.00    -0.277 OA
ATOM     15  O   UNL     1      32.574 -22.315 -18.400  0.00  0.00    -0.277 OA
ATOM     16  N   UNL     1      32.478 -23.405 -15.036  0.00  0.00    +0.397 N 
ATOM     17  N   UNL     1      30.802 -22.538 -16.949  0.00  0.00    -0.259 N 
ATOM     18  C   UNL     1      31.094 -23.859 -14.906  0.00  0.00    +0.011 C 
ATOM     19  C   UNL     1      32.946 -23.594 -16.409  0.00  0.00    +0.011 C 
ATOM     20  C   UNL     1      30.207 -23.016 -15.792  0.00  0.00    +0.207 C 
ATOM     21  C   UNL     1      32.116 -22.742 -17.340  0.00  0.00    +0.207 C 
ATOM     22  H   UNL     1      32.519 -22.411 -14.810  0.00  0.00    -0.078 HD
ATOM     23  H   UNL     1      30.237 -22.001 -17.550  0.00  0.00    +0.157 HD
ENDBRANCH  13  16
ENDBRANCH   1  13
TORSDOF 3
ENDMDL
MODEL 2
REMARK VINA RESULT:      -9.0      2.507      6.534
REMARK  Name = 71384
REMARK  3 active torsions:
REMARK  status: ('A' for Active; 'I' for Inactive)
REMARK    1  A    between atoms: C_1  and  N_5
REMARK    2  A    between atoms: C_1  and  C_13
REMARK    3  A    between atoms: C_13  and  N_16
REMARK                            x       y       z     vdW  Elec       q    Type
REMARK                         _______ _______ _______ _____ _____    ______ ____
ROOT
ATOM      1  C   UNL     1      34.135 -23.628 -15.898  0.00  0.00    -0.078 C 
ATOM      2  C   UNL     1      34.438 -22.864 -17.186  0.00  0.00    -0.025 C 
ENDROOT
BRANCH   1   5
ATOM      3  O   UNL     1      29.679 -22.397 -16.887  0.00  0.00    -0.277 OA
ATOM      4  O   UNL     1      30.708 -23.866 -12.650  0.00  0.00    -0.277 OA
ATOM      5  N   UNL     1      32.790 -23.269 -15.446  0.00  0.00    +0.399 N 
ATOM      6  N   UNL     1      30.198 -23.099 -14.759  0.00  0.00    -0.259 N 
ATOM      7  C   UNL     1      31.842 -23.372 -16.556  0.00  0.00    +0.011 C 
ATOM      8  C   UNL     1      32.378 -24.138 -14.345  0.00  0.00    +0.011 C 
ATOM      9  C   UNL     1      30.486 -22.888 -16.099  0.00  0.00    +0.207 C 
ATOM     10  C   UNL     1      31.039 -23.678 -13.821  0.00  0.00    +0.207 C 
ATOM     11  H   UNL     1      32.802 -22.304 -15.116  0.00  0.00    -0.078 HD
ATOM     12  H   UNL     1      29.312 -22.809 -14.444  0.00  0.00    +0.157 HD
ENDBRANCH   1   5
BRANCH   1  13
ATOM     13  C   UNL     1      35.132 -23.324 -14.769  0.00  0.00    -0.097 C 
BRANCH  13  16
ATOM     14  O   UNL     1      36.956 -27.477 -16.100  0.00  0.00    -0.277 OA
ATOM     15  O   UNL     1      37.674 -25.989 -11.805  0.00  0.00    -0.277 OA
ATOM     16  N   UNL     1      36.064 -24.430 -14.542  0.00  0.00    +0.397 N 
ATOM     17  N   UNL     1      37.345 -26.719 -13.962  0.00  0.00    -0.259 N 
ATOM     18  C   UNL     1      35.693 -25.578 -15.368  0.00  0.00    +0.011 C 
ATOM     19  C   UNL     1      36.067 -24.802 -13.128  0.00  0.00    +0.011 C 
ATOM     20  C   UNL     1      36.729 -26.666 -15.203  0.00  0.00    +0.207 C 
ATOM     21  C   UNL     1      37.115 -25.865 -12.895  0.00  0.00    +0.207 C 
ATOM     22  H   UNL     1      37.003 -24.128 -14.803  0.00  0.00    -0.078 HD
ATOM     23  H   UNL     1      38.011 -27.431 -13.827  0.00  0.00    +0.157 HD
ENDBRANCH  13  16
ENDBRANCH   1  13
TORSDOF 3
ENDMDL
MODEL 3
REMARK VINA RESULT:      -9.0      2.305      2.648
REMARK  Name = 71384
REMARK  3 active torsions:
REMARK  status: ('A' for Active; 'I' for Inactive)
REMARK    1  A    between atoms: C_1  and  N_5
REMARK    2  A    between atoms: C_1  and  C_13
REMARK    3  A    between atoms: C_13  and  N_16
REMARK                            x       y       z     vdW  Elec       q    Type
REMARK                         _______ _______ _______ _____ _____    ______ ____
ROOT
ATOM      1  C   UNL     1      35.869 -22.986 -15.231  0.00  0.00    -0.078 C 
ATOM      2  C   UNL     1      36.671 -22.282 -16.324  0.00  0.00    -0.025 C 
ENDROOT
BRANCH   1   5
ATOM      3  O   UNL     1      37.621 -24.292 -11.038  0.00  0.00    -0.277 OA
ATOM      4  O   UNL     1      38.369 -26.965 -14.708  0.00  0.00    -0.277 OA
ATOM      5  N   UNL     1      36.782 -23.815 -14.441  0.00  0.00    +0.399 N 
ATOM      6  N   UNL     1      38.025 -25.612 -12.878  0.00  0.00    -0.259 N 
ATOM      7  C   UNL     1      36.390 -23.794 -13.032  0.00  0.00    +0.011 C 
ATOM      8  C   UNL     1      36.781 -25.188 -14.946  0.00  0.00    +0.011 C 
ATOM      9  C   UNL     1      37.408 -24.559 -12.220  0.00  0.00    +0.207 C 
ATOM     10  C   UNL     1      37.810 -25.997 -14.193  0.00  0.00    +0.207 C 
ATOM     11  H   UNL     1      37.724 -23.436 -14.524  0.00  0.00    -0.078 HD
ATOM     12  H   UNL     1      38.678 -26.138 -12.362  0.00  0.00    +0.157 HD
ENDBRANCH   1   5
BRANCH   1  13
ATOM     13  C   UNL     1      34.749 -23.879 -15.787  0.00  0.00    -0.097 C 
BRANCH  13  16
ATOM     14  O   UNL     1      31.102 -23.559 -12.797  0.00  0.00    -0.277 OA
ATOM     15  O   UNL     1      30.515 -22.309 -17.185  0.00  0.00    -0.277 OA
ATOM     16  N   UNL     1      33.419 -23.362 -15.462  0.00  0.00    +0.397 N 
ATOM     17  N   UNL     1      30.815 -22.901 -14.983  0.00  0.00    -0.259 N 
ATOM     18  C   UNL     1      32.849 -24.108 -14.340  0.00  0.00    +0.011 C 
ATOM     19  C   UNL     1      32.543 -23.456 -16.629  0.00  0.00    +0.011 C 
ATOM     20  C   UNL     1      31.528 -23.488 -13.948  0.00  0.00    +0.207 C 
ATOM     21  C   UNL     1      31.213 -22.815 -16.308  0.00  0.00    +0.207 C 
ATOM     22  H   UNL     1      33.503 -22.381 -15.194  0.00  0.00    -0.078 HD
ATOM     23  H   UNL     1      29.943 -22.507 -14.754  0.00  0.00    +0.157 HD
ENDBRANCH  13  16
ENDBRANCH   1  13
TORSDOF 3
ENDMDL
MODEL 4
REMARK VINA RESULT:      -9.0      2.165      2.893
REMARK  Name = 71384
REMARK  3 active torsions:
REMARK  status: ('A' for Active; 'I' for Inactive)
REMARK    1  A    between atoms: C_1  and  N_5
REMARK    2  A    between atoms: C_1  and  C_13
REMARK    3  A    between atoms: C_13  and  N_16
REMARK                            x       y       z     vdW  Elec       q    Type
REMARK                         _______ _______ _______ _____ _____    ______ ____
ROOT
ATOM      1  C   UNL     1      35.326 -23.205 -15.170  0.00  0.00    -0.078 C 
ATOM      2  C   UNL     1      36.535 -22.632 -15.906  0.00  0.00    -0.025 C 
ENDROOT
BRANCH   1   5
ATOM      3  O   UNL     1      38.033 -27.053 -14.702  0.00  0.00    -0.277 OA
ATOM      4  O   UNL     1      35.998 -25.281 -10.975  0.00  0.00    -0.277 OA
ATOM      5  N   UNL     1      35.762 -24.360 -14.382  0.00  0.00    +0.399 N 
ATOM      6  N   UNL     1      36.989 -26.189 -12.844  0.00  0.00    -0.259 N 
ATOM      7  C   UNL     1      37.007 -24.900 -14.927  0.00  0.00    +0.011 C 
ATOM      8  C   UNL     1      35.946 -23.976 -12.983  0.00  0.00    +0.011 C 
ATOM      9  C   UNL     1      37.378 -26.155 -14.174  0.00  0.00    +0.207 C 
ATOM     10  C   UNL     1      36.284 -25.203 -12.170  0.00  0.00    +0.207 C 
ATOM     11  H   UNL     1      35.043 -25.082 -14.432  0.00  0.00    -0.078 HD
ATOM     12  H   UNL     1      37.237 -26.989 -12.328  0.00  0.00    +0.157 HD
ENDBRANCH   1   5
BRANCH   1  13
ATOM     13  C   UNL     1      34.201 -23.651 -16.117  0.00  0.00    -0.097 C 
BRANCH  13  16
ATOM     14  O   UNL     1      30.869 -23.691 -12.764  0.00  0.00    -0.277 OA
ATOM     15  O   UNL     1      29.752 -22.331 -17.015  0.00  0.00    -0.277 OA
ATOM     16  N   UNL     1      32.880 -23.240 -15.639  0.00  0.00    +0.397 N 
ATOM     17  N   UNL     1      30.316 -22.978 -14.881  0.00  0.00    -0.259 N 
ATOM     18  C   UNL     1      32.480 -24.062 -14.497  0.00  0.00    +0.011 C 
ATOM     19  C   UNL     1      31.897 -23.354 -16.715  0.00  0.00    +0.011 C 
ATOM     20  C   UNL     1      31.169 -23.550 -13.949  0.00  0.00    +0.207 C 
ATOM     21  C   UNL     1      30.569 -22.819 -16.234  0.00  0.00    +0.207 C 
ATOM     22  H   UNL     1      32.928 -22.266 -15.339  0.00  0.00    -0.078 HD
ATOM     23  H   UNL     1      29.448 -22.653 -14.549  0.00  0.00    +0.157 HD
ENDBRANCH  13  16
ENDBRANCH   1  13
TORSDOF 3
ENDMDL
MODEL 5
REMARK VINA RESULT:      -8.8      1.756      6.950
REMARK  Name = 71384
REMARK  3 active torsions:
REMARK  status: ('A' for Active; 'I' for Inactive)
REMARK    1  A    between atoms: C_1  and  N_5
REMARK    2  A    between atoms: C_1  and  C_13
REMARK    3  A    between atoms: C_13  and  N_16
REMARK                            x       y       z     vdW  Elec       q    Type
REMARK                         _______ _______ _______ _____ _____    ______ ____
ROOT
ATOM      1  C   UNL     1      33.989 -23.786 -14.309  0.00  0.00    -0.078 C 
ATOM      2  C   UNL     1      32.864 -24.492 -13.554  0.00  0.00    -0.025 C 
ENDROOT
BRANCH   1   5
ATOM      3  O   UNL     1      34.415 -22.670 -18.883  0.00  0.00    -0.277 OA
ATOM      4  O   UNL     1      30.249 -22.570 -16.932  0.00  0.00    -0.277 OA
ATOM      5  N   UNL     1      33.434 -23.188 -15.524  0.00  0.00    +0.399 N 
ATOM      6  N   UNL     1      32.336 -22.587 -17.901  0.00  0.00    -0.259 N 
ATOM      7  C   UNL     1      34.202 -23.617 -16.693  0.00  0.00    +0.011 C 
ATOM      8  C   UNL     1      32.029 -23.564 -15.676  0.00  0.00    +0.011 C 
ATOM      9  C   UNL     1      33.686 -22.900 -17.918  0.00  0.00    +0.207 C 
ATOM     10  C   UNL     1      31.447 -22.846 -16.870  0.00  0.00    +0.207 C 
ATOM     11  H   UNL     1      33.495 -22.173 -15.448  0.00  0.00    -0.078 HD
ATOM     12  H   UNL     1      31.974 -22.136 -18.698  0.00  0.00    +0.157 HD
ENDBRANCH   1   5
BRANCH   1  13
ATOM     13  C   UNL     1      35.134 -24.733 -14.704  0.00  0.00    -0.097 C 
BRANCH  13  16
ATOM     14  O   UNL     1      37.387 -22.663 -11.100  0.00  0.00    -0.277 OA
ATOM     15  O   UNL     1      39.481 -26.053 -13.400  0.00  0.00    -0.277 OA
ATOM     16  N   UNL     1      36.215 -24.734 -13.718  0.00  0.00    +0.397 N 
ATOM     17  N   UNL     1      38.422 -24.381 -12.227  0.00  0.00    -0.259 N 
ATOM     18  C   UNL     1      36.372 -23.398 -13.141  0.00  0.00    +0.011 C 
ATOM     19  C   UNL     1      37.465 -25.167 -14.341  0.00  0.00    +0.011 C 
ATOM     20  C   UNL     1      37.414 -23.446 -12.048  0.00  0.00    +0.207 C 
ATOM     21  C   UNL     1      38.539 -25.270 -13.284  0.00  0.00    +0.207 C 
ATOM     22  H   UNL     1      35.979 -25.387 -12.970  0.00  0.00    -0.078 HD
ATOM     23  H   UNL     1      39.122 -24.418 -11.536  0.00  0.00    +0.157 HD
ENDBRANCH  13  16
ENDBRANCH   1  13
TORSDOF 3
ENDMDL
MODEL 6
REMARK VINA RESULT:      -8.7      1.061      2.179
REMARK  Name = 71384
REMARK  3 active torsions:
REMARK  status: ('A' for Active; 'I' for Inactive)
REMARK    1  A    between atoms: C_1  and  N_5
REMARK    2  A    between atoms: C_1  and  C_13
REMARK    3  A    between atoms: C_13  and  N_16
REMARK                            x       y       z     vdW  Elec       q    Type
REMARK                         _______ _______ _______ _____ _____    ______ ____
ROOT
ATOM      1  C   UNL     1      35.482 -24.535 -14.633  0.00  0.00    -0.078 C 
ATOM      2  C   UNL     1      35.828 -25.924 -15.168  0.00  0.00    -0.025 C 
ENDROOT
BRANCH   1   5
ATOM      3  O   UNL     1      38.576 -22.354 -11.801  0.00  0.00    -0.277 OA
ATOM      4  O   UNL     1      35.236 -24.902  -9.926  0.00  0.00    -0.277 OA
ATOM      5  N   UNL     1      36.099 -24.375 -13.315  0.00  0.00    +0.399 N 
ATOM      6  N   UNL     1      36.928 -23.655 -10.863  0.00  0.00    -0.259 N 
ATOM      7  C   UNL     1      36.821 -23.104 -13.248  0.00  0.00    +0.011 C 
ATOM      8  C   UNL     1      35.078 -24.434 -12.269  0.00  0.00    +0.011 C 
ATOM      9  C   UNL     1      37.543 -23.011 -11.925  0.00  0.00    +0.207 C 
ATOM     10  C   UNL     1      35.747 -24.381 -10.916  0.00  0.00    +0.207 C 
ATOM     11  H   UNL     1      36.762 -25.136 -13.168  0.00  0.00    -0.078 HD
ATOM     12  H   UNL     1      37.371 -23.591  -9.986  0.00  0.00    +0.157 HD
ENDBRANCH   1   5
BRANCH   1  13
ATOM     13  C   UNL     1      33.969 -24.302 -14.500  0.00  0.00    -0.097 C 
BRANCH  13  16
ATOM     14  O   UNL     1      30.271 -22.507 -16.835  0.00  0.00    -0.277 OA
ATOM     15  O   UNL     1      34.385 -22.607 -18.893  0.00  0.00    -0.277 OA
ATOM     16  N   UNL     1      33.434 -23.510 -15.609  0.00  0.00    +0.397 N 
ATOM     17  N   UNL     1      32.334 -22.525 -17.854  0.00  0.00    -0.259 N 
ATOM     18  C   UNL     1      32.004 -23.772 -15.770  0.00  0.00    +0.011 C 
ATOM     19  C   UNL     1      34.149 -23.825 -16.844  0.00  0.00    +0.011 C 
ATOM     20  C   UNL     1      31.448 -22.864 -16.842  0.00  0.00    +0.207 C 
ATOM     21  C   UNL     1      33.660 -22.918 -17.949  0.00  0.00    +0.207 C 
ATOM     22  H   UNL     1      33.563 -22.520 -15.399  0.00  0.00    -0.078 HD
ATOM     23  H   UNL     1      31.988 -21.948 -18.573  0.00  0.00    +0.157 HD
ENDBRANCH  13  16
ENDBRANCH   1  13
TORSDOF 3
ENDMDL
MODEL 7
REMARK VINA RESULT:      -8.6      7.084     10.423
REMARK  Name = 71384
REMARK  3 active torsions:
REMARK  status: ('A' for Active; 'I' for Inactive)
REMARK    1  A    between atoms: C_1  and  N_5
REMARK    2  A    between atoms: C_1  and  C_13
REMARK    3  A    between atoms: C_13  and  N_16
REMARK                            x       y       z     vdW  Elec       q    Type
REMARK                         _______ _______ _______ _____ _____    ______ ____
ROOT
ATOM      1  C   UNL     1      34.636 -18.880 -22.303  0.00  0.00    -0.078 C 
ATOM      2  C   UNL     1      34.947 -19.324 -23.732  0.00  0.00    -0.025 C 
ENDROOT
BRANCH   1   5
ATOM      3  O   UNL     1      34.782 -14.622 -20.253  0.00  0.00    -0.277 OA
ATOM      4  O   UNL     1      33.690 -14.923 -24.712  0.00  0.00    -0.277 OA
ATOM      5  N   UNL     1      34.305 -17.454 -22.319  0.00  0.00    +0.399 N 
ATOM      6  N   UNL     1      34.203 -14.773 -22.474  0.00  0.00    -0.259 N 
ATOM      7  C   UNL     1      35.106 -16.740 -21.325  0.00  0.00    +0.011 C 
ATOM      8  C   UNL     1      34.536 -16.896 -23.651  0.00  0.00    +0.011 C 
ATOM      9  C   UNL     1      34.669 -15.295 -21.277  0.00  0.00    +0.207 C 
ATOM     10  C   UNL     1      34.082 -15.456 -23.675  0.00  0.00    +0.207 C 
ATOM     11  H   UNL     1      33.319 -17.343 -22.084  0.00  0.00    -0.078 HD
ATOM     12  H   UNL     1      33.930 -13.827 -22.471  0.00  0.00    +0.157 HD
ENDBRANCH   1   5
BRANCH   1  13
ATOM     13  C   UNL     1      35.808 -19.103 -21.335  0.00  0.00    -0.097 C 
BRANCH  13  16
ATOM     14  O   UNL     1      37.077 -22.039 -17.854  0.00  0.00    -0.277 OA
ATOM     15  O   UNL     1      32.684 -21.950 -19.219  0.00  0.00    -0.277 OA
ATOM     16  N   UNL     1      35.444 -19.977 -20.220  0.00  0.00    +0.397 N 
ATOM     17  N   UNL     1      34.873 -21.971 -18.512  0.00  0.00    -0.259 N 
ATOM     18  C   UNL     1      36.573 -20.836 -19.863  0.00  0.00    +0.011 C 
ATOM     19  C   UNL     1      34.282 -20.790 -20.576  0.00  0.00    +0.011 C 
ATOM     20  C   UNL     1      36.215 -21.648 -18.641  0.00  0.00    +0.207 C 
ATOM     21  C   UNL     1      33.853 -21.600 -19.374  0.00  0.00    +0.207 C 
ATOM     22  H   UNL     1      35.205 -19.399 -19.413  0.00  0.00    -0.078 HD
ATOM     23  H   UNL     1      34.619 -22.516 -17.732  0.00  0.00    +0.157 HD
ENDBRANCH  13  16
ENDBRANCH   1  13
TORSDOF 3
ENDMDL
MODEL 8
REMARK VINA RESULT:      -8.6      7.315      9.576
REMARK  Name = 71384
REMARK  3 active torsions:
REMARK  status: ('A' for Active; 'I' for Inactive)
REMARK    1  A    between atoms: C_1  and  N_5
REMARK    2  A    between atoms: C_1  and  C_13
REMARK    3  A    between atoms: C_13  and  N_16
REMARK                            x       y       z     vdW  Elec       q    Type
REMARK                         _______ _______ _______ _____ _____    ______ ____
ROOT
ATOM      1  C   UNL     1      35.902 -18.874 -21.182  0.00  0.00    -0.078 C 
ATOM      2  C   UNL     1      37.385 -19.077 -21.486  0.00  0.00    -0.025 C 
ENDROOT
BRANCH   1   5
ATOM      3  O   UNL     1      32.683 -21.857 -19.423  0.00  0.00    -0.277 OA
ATOM      4  O   UNL     1      37.037 -22.146 -17.963  0.00  0.00    -0.277 OA
ATOM      5  N   UNL     1      35.497 -19.844 -20.163  0.00  0.00    +0.399 N 
ATOM      6  N   UNL     1      34.852 -21.981 -18.667  0.00  0.00    -0.259 N 
ATOM      7  C   UNL     1      34.332 -20.601 -20.624  0.00  0.00    +0.011 C 
ATOM      8  C   UNL     1      36.603 -20.752 -19.861  0.00  0.00    +0.011 C 
ATOM      9  C   UNL     1      33.861 -21.513 -19.516  0.00  0.00    +0.207 C 
ATOM     10  C   UNL     1      36.201 -21.669 -18.731  0.00  0.00    +0.207 C 
ATOM     11  H   UNL     1      35.244 -19.342 -19.313  0.00  0.00    -0.078 HD
ATOM     12  H   UNL     1      34.570 -22.592 -17.949  0.00  0.00    +0.157 HD
ENDBRANCH   1   5
BRANCH   1  13
ATOM     13  C   UNL     1      35.005 -19.052 -22.417  0.00  0.00    -0.097 C 
BRANCH  13  16
ATOM     14  O   UNL     1      34.027 -16.260 -26.104  0.00  0.00    -0.277 OA
ATOM     15  O   UNL     1      34.406 -14.389 -21.918  0.00  0.00    -0.277 OA
ATOM     16  N   UNL     1      34.535 -17.771 -22.947  0.00  0.00    +0.397 N 
ATOM     17  N   UNL     1      34.183 -15.328 -24.007  0.00  0.00    -0.259 N 
ATOM     18  C   UNL     1      34.903 -17.643 -24.356  0.00  0.00    +0.011 C 
ATOM     19  C   UNL     1      35.102 -16.667 -22.173  0.00  0.00    +0.011 C 
ATOM     20  C   UNL     1      34.313 -16.369 -24.913  0.00  0.00    +0.207 C 
ATOM     21  C   UNL     1      34.516 -15.363 -22.662  0.00  0.00    +0.207 C 
ATOM     22  H   UNL     1      33.518 -17.736 -22.870  0.00  0.00    -0.078 HD
ATOM     23  H   UNL     1      33.817 -14.481 -24.352  0.00  0.00    +0.157 HD
ENDBRANCH  13  16
ENDBRANCH   1  13
TORSDOF 3
ENDMDL
MODEL 9
REMARK VINA RESULT:      -8.6      2.801      7.104
REMARK  Name = 71384
REMARK  3 active torsions:
REMARK  status: ('A' for Active; 'I' for Inactive)
REMARK    1  A    between atoms: C_1  and  N_5
REMARK    2  A    between atoms: C_1  and  C_13
REMARK    3  A    between atoms: C_13  and  N_16
REMARK                            x       y       z     vdW  Elec       q    Type
REMARK                         _______ _______ _______ _____ _____    ______ ____
ROOT
ATOM      1  C   UNL     1      36.232 -22.789 -16.482  0.00  0.00    -0.078 C 
ATOM      2  C   UNL     1      37.092 -21.608 -16.930  0.00  0.00    -0.025 C 
ENDROOT
BRANCH   1   5
ATOM      3  O   UNL     1      33.151 -21.565 -19.852  0.00  0.00    -0.277 OA
ATOM      4  O   UNL     1      31.605 -23.669 -16.064  0.00  0.00    -0.277 OA
ATOM      5  N   UNL     1      34.853 -22.554 -16.913  0.00  0.00    +0.399 N 
ATOM      6  N   UNL     1      32.372 -22.586 -17.944  0.00  0.00    -0.259 N 
ATOM      7  C   UNL     1      34.783 -22.507 -18.374  0.00  0.00    +0.011 C 
ATOM      8  C   UNL     1      33.976 -23.604 -16.397  0.00  0.00    +0.011 C 
ATOM      9  C   UNL     1      33.377 -22.150 -18.794  0.00  0.00    +0.207 C 
ATOM     10  C   UNL     1      32.545 -23.281 -16.758  0.00  0.00    +0.207 C 
ATOM     11  H   UNL     1      34.541 -21.656 -16.543  0.00  0.00    -0.078 HD
ATOM     12  H   UNL     1      31.446 -22.381 -18.209  0.00  0.00    +0.157 HD
ENDBRANCH   1   5
BRANCH   1  13
ATOM     13  C   UNL     1      36.243 -22.998 -14.959  0.00  0.00    -0.097 C 
BRANCH  13  16
ATOM     14  O   UNL     1      36.898 -26.477 -11.827  0.00  0.00    -0.277 OA
ATOM     15  O   UNL     1      39.885 -25.992 -15.292  0.00  0.00    -0.277 OA
ATOM     16  N   UNL     1      36.888 -24.255 -14.579  0.00  0.00    +0.397 N 
ATOM     17  N   UNL     1      38.374 -26.258 -13.578  0.00  0.00    -0.259 N 
ATOM     18  C   UNL     1      36.744 -24.481 -13.141  0.00  0.00    +0.011 C 
ATOM     19  C   UNL     1      38.302 -24.228 -14.948  0.00  0.00    +0.011 C 
ATOM     20  C   UNL     1      37.315 -25.834 -12.789  0.00  0.00    +0.207 C 
ATOM     21  C   UNL     1      38.921 -25.574 -14.652  0.00  0.00    +0.207 C 
ATOM     22  H   UNL     1      36.434 -25.022 -15.077  0.00  0.00    -0.078 HD
ATOM     23  H   UNL     1      38.774 -27.129 -13.355  0.00  0.00    +0.157 HD
ENDBRANCH  13  16
ENDBRANCH   1  13
TORSDOF 3
ENDMDL
