MODEL 1
REMARK VINA RESULT:      -5.2      0.000      0.000
REMARK  Name = 10972
REMARK  3 active torsions:
REMARK  status: ('A' for Active; 'I' for Inactive)
REMARK    1  A    between atoms: N_2  and  C_6
REMARK    2  A    between atoms: C_6  and  C_8
REMARK    3  A    between atoms: C_8  and  O_9
REMARK                            x       y       z     vdW  Elec       q    Type
REMARK                         _______ _______ _______ _____ _____    ______ ____
ROOT
ATOM      1  O   UNL     1      37.586 -23.143 -13.701  0.00  0.00    -0.275 OA
ATOM      2  N   UNL     1      37.803 -24.823 -15.297  0.00  0.00    -0.295 N 
ATOM      3  C   UNL     1      37.319 -23.625 -14.798  0.00  0.00    +0.223 C 
ATOM      4  C   UNL     1      36.415 -22.925 -15.776  0.00  0.00    +0.095 C 
ATOM      5  H   UNL     1      37.517 -25.107 -16.195  0.00  0.00    +0.150 HD
ENDROOT
BRANCH   2   6
ATOM      6  C   UNL     1      38.711 -25.676 -14.563  0.00  0.00    +0.200 C 
BRANCH   6   8
ATOM      7  O   UNL     1      40.910 -24.766 -14.201  0.00  0.00    -0.248 OA
ATOM      8  C   UNL     1      40.157 -25.428 -14.906  0.00  0.00    +0.334 C 
BRANCH   8   9
ATOM      9  O   UNL     1      40.543 -26.004 -16.067  0.00  0.00    -0.479 OA
ATOM     10  H   UNL     1      41.310 -25.698 -16.511  0.00  0.00    +0.295 HD
ENDBRANCH   8   9
ENDBRANCH   6   8
ENDBRANCH   2   6
TORSDOF 3
ENDMDL
MODEL 2
REMARK VINA RESULT:      -5.1      2.325      2.362
REMARK  Name = 10972
REMARK  3 active torsions:
REMARK  status: ('A' for Active; 'I' for Inactive)
REMARK    1  A    between atoms: N_2  and  C_6
REMARK    2  A    between atoms: C_6  and  C_8
REMARK    3  A    between atoms: C_8  and  O_9
REMARK                            x       y       z     vdW  Elec       q    Type
REMARK                         _______ _______ _______ _____ _____    ______ ____
ROOT
ATOM      1  O   UNL     1      37.017 -26.194 -12.017  0.00  0.00    -0.275 OA
ATOM      2  N   UNL     1      38.403 -24.823 -13.290  0.00  0.00    -0.295 N 
ATOM      3  C   UNL     1      37.468 -25.088 -12.303  0.00  0.00    +0.223 C 
ATOM      4  C   UNL     1      37.053 -23.845 -11.564  0.00  0.00    +0.095 C 
ATOM      5  H   UNL     1      38.689 -23.891 -13.426  0.00  0.00    +0.150 HD
ENDROOT
BRANCH   2   6
ATOM      6  C   UNL     1      38.980 -25.849 -14.127  0.00  0.00    +0.200 C 
BRANCH   6   8
ATOM      7  O   UNL     1      41.027 -24.600 -14.342  0.00  0.00    -0.248 OA
ATOM      8  C   UNL     1      40.235 -25.398 -14.829  0.00  0.00    +0.334 C 
BRANCH   8   9
ATOM      9  O   UNL     1      40.402 -25.957 -16.050  0.00  0.00    -0.479 OA
ATOM     10  H   UNL     1      39.836 -26.649 -16.330  0.00  0.00    +0.295 HD
ENDBRANCH   8   9
ENDBRANCH   6   8
ENDBRANCH   2   6
TORSDOF 3
ENDMDL
MODEL 3
REMARK VINA RESULT:      -4.8      2.185      2.502
REMARK  Name = 10972
REMARK  3 active torsions:
REMARK  status: ('A' for Active; 'I' for Inactive)
REMARK    1  A    between atoms: N_2  and  C_6
REMARK    2  A    between atoms: C_6  and  C_8
REMARK    3  A    between atoms: C_8  and  O_9
REMARK                            x       y       z     vdW  Elec       q    Type
REMARK                         _______ _______ _______ _____ _____    ______ ____
ROOT
ATOM      1  O   UNL     1      38.048 -23.319 -14.185  0.00  0.00    -0.275 OA
ATOM      2  N   UNL     1      36.514 -24.381 -15.577  0.00  0.00    -0.295 N 
ATOM      3  C   UNL     1      37.370 -23.357 -15.208  0.00  0.00    +0.223 C 
ATOM      4  C   UNL     1      37.416 -22.256 -16.234  0.00  0.00    +0.095 C 
ATOM      5  H   UNL     1      36.022 -24.298 -16.425  0.00  0.00    +0.150 HD
ENDROOT
BRANCH   2   6
ATOM      6  C   UNL     1      36.309 -25.566 -14.775  0.00  0.00    +0.200 C 
BRANCH   6   8
ATOM      7  O   UNL     1      38.156 -27.097 -14.580  0.00  0.00    -0.248 OA
ATOM      8  C   UNL     1      37.172 -26.723 -15.207  0.00  0.00    +0.334 C 
BRANCH   8   9
ATOM      9  O   UNL     1      36.757 -27.308 -16.354  0.00  0.00    -0.479 OA
ATOM     10  H   UNL     1      36.126 -26.879 -16.898  0.00  0.00    +0.295 HD
ENDBRANCH   8   9
ENDBRANCH   6   8
ENDBRANCH   2   6
TORSDOF 3
ENDMDL
MODEL 4
REMARK VINA RESULT:      -4.8      2.465      3.667
REMARK  Name = 10972
REMARK  3 active torsions:
REMARK  status: ('A' for Active; 'I' for Inactive)
REMARK    1  A    between atoms: N_2  and  C_6
REMARK    2  A    between atoms: C_6  and  C_8
REMARK    3  A    between atoms: C_8  and  O_9
REMARK                            x       y       z     vdW  Elec       q    Type
REMARK                         _______ _______ _______ _____ _____    ______ ____
ROOT
ATOM      1  O   UNL     1      38.660 -24.316 -13.811  0.00  0.00    -0.275 OA
ATOM      2  N   UNL     1      38.602 -26.604 -14.238  0.00  0.00    -0.295 N 
ATOM      3  C   UNL     1      39.222 -25.377 -14.070  0.00  0.00    +0.223 C 
ATOM      4  C   UNL     1      40.717 -25.470 -14.214  0.00  0.00    +0.095 C 
ATOM      5  H   UNL     1      39.161 -27.387 -14.444  0.00  0.00    +0.150 HD
ENDROOT
BRANCH   2   6
ATOM      6  C   UNL     1      37.173 -26.789 -14.126  0.00  0.00    +0.200 C 
BRANCH   6   8
ATOM      7  O   UNL     1      35.680 -25.531 -15.534  0.00  0.00    -0.248 OA
ATOM      8  C   UNL     1      36.439 -26.484 -15.407  0.00  0.00    +0.334 C 
BRANCH   8   9
ATOM      9  O   UNL     1      36.698 -27.364 -16.401  0.00  0.00    -0.479 OA
ATOM     10  H   UNL     1      37.211 -28.128 -16.228  0.00  0.00    +0.295 HD
ENDBRANCH   8   9
ENDBRANCH   6   8
ENDBRANCH   2   6
TORSDOF 3
ENDMDL
MODEL 5
REMARK VINA RESULT:      -4.7      2.195      2.205
REMARK  Name = 10972
REMARK  3 active torsions:
REMARK  status: ('A' for Active; 'I' for Inactive)
REMARK    1  A    between atoms: N_2  and  C_6
REMARK    2  A    between atoms: C_6  and  C_8
REMARK    3  A    between atoms: C_8  and  O_9
REMARK                            x       y       z     vdW  Elec       q    Type
REMARK                         _______ _______ _______ _____ _____    ______ ____
ROOT
ATOM      1  O   UNL     1      36.216 -26.726 -15.802  0.00  0.00    -0.275 OA
ATOM      2  N   UNL     1      37.408 -25.324 -14.377  0.00  0.00    -0.295 N 
ATOM      3  C   UNL     1      36.287 -25.739 -15.076  0.00  0.00    +0.223 C 
ATOM      4  C   UNL     1      35.103 -24.842 -14.836  0.00  0.00    +0.095 C 
ATOM      5  H   UNL     1      37.342 -24.512 -13.824  0.00  0.00    +0.150 HD
ENDROOT
BRANCH   2   6
ATOM      6  C   UNL     1      38.670 -26.027 -14.418  0.00  0.00    +0.200 C 
BRANCH   6   8
ATOM      7  O   UNL     1      40.971 -25.495 -14.886  0.00  0.00    -0.248 OA
ATOM      8  C   UNL     1      39.787 -25.196 -14.994  0.00  0.00    +0.334 C 
BRANCH   8   9
ATOM      9  O   UNL     1      39.359 -24.087 -15.638  0.00  0.00    -0.479 OA
ATOM     10  H   UNL     1      39.679 -23.244 -15.385  0.00  0.00    +0.295 HD
ENDBRANCH   8   9
ENDBRANCH   6   8
ENDBRANCH   2   6
TORSDOF 3
ENDMDL
MODEL 6
REMARK VINA RESULT:      -4.7      8.427     10.490
REMARK  Name = 10972
REMARK  3 active torsions:
REMARK  status: ('A' for Active; 'I' for Inactive)
REMARK    1  A    between atoms: N_2  and  C_6
REMARK    2  A    between atoms: C_6  and  C_8
REMARK    3  A    between atoms: C_8  and  O_9
REMARK                            x       y       z     vdW  Elec       q    Type
REMARK                         _______ _______ _______ _____ _____    ______ ____
ROOT
ATOM      1  O   UNL     1      30.859 -22.629 -16.907  0.00  0.00    -0.275 OA
ATOM      2  N   UNL     1      29.479 -23.541 -15.270  0.00  0.00    -0.295 N 
ATOM      3  C   UNL     1      30.655 -22.992 -15.752  0.00  0.00    +0.223 C 
ATOM      4  C   UNL     1      31.701 -22.852 -14.679  0.00  0.00    +0.095 C 
ATOM      5  H   UNL     1      29.436 -23.794 -14.319  0.00  0.00    +0.150 HD
ENDROOT
BRANCH   2   6
ATOM      6  C   UNL     1      28.312 -23.758 -16.094  0.00  0.00    +0.200 C 
BRANCH   6   8
ATOM      7  O   UNL     1      26.462 -22.353 -15.466  0.00  0.00    -0.248 OA
ATOM      8  C   UNL     1      27.429 -22.542 -16.194  0.00  0.00    +0.334 C 
BRANCH   8   9
ATOM      9  O   UNL     1      27.806 -21.680 -17.166  0.00  0.00    -0.479 OA
ATOM     10  H   UNL     1      27.630 -20.764 -17.074  0.00  0.00    +0.295 HD
ENDBRANCH   8   9
ENDBRANCH   6   8
ENDBRANCH   2   6
TORSDOF 3
ENDMDL
MODEL 7
REMARK VINA RESULT:      -4.7      3.075      4.623
REMARK  Name = 10972
REMARK  3 active torsions:
REMARK  status: ('A' for Active; 'I' for Inactive)
REMARK    1  A    between atoms: N_2  and  C_6
REMARK    2  A    between atoms: C_6  and  C_8
REMARK    3  A    between atoms: C_8  and  O_9
REMARK                            x       y       z     vdW  Elec       q    Type
REMARK                         _______ _______ _______ _____ _____    ______ ____
ROOT
ATOM      1  O   UNL     1      37.774 -24.648 -13.875  0.00  0.00    -0.275 OA
ATOM      2  N   UNL     1      35.542 -25.161 -13.455  0.00  0.00    -0.295 N 
ATOM      3  C   UNL     1      36.770 -25.328 -14.073  0.00  0.00    +0.223 C 
ATOM      4  C   UNL     1      36.771 -26.485 -15.035  0.00  0.00    +0.095 C 
ATOM      5  H   UNL     1      34.809 -25.771 -13.698  0.00  0.00    +0.150 HD
ENDROOT
BRANCH   2   6
ATOM      6  C   UNL     1      35.286 -24.134 -12.471  0.00  0.00    +0.200 C 
BRANCH   6   8
ATOM      7  O   UNL     1      35.218 -25.113 -10.273  0.00  0.00    -0.248 OA
ATOM      8  C   UNL     1      35.841 -24.473 -11.112  0.00  0.00    +0.334 C 
BRANCH   8   9
ATOM      9  O   UNL     1      37.092 -24.001 -10.906  0.00  0.00    -0.479 OA
ATOM     10  H   UNL     1      37.828 -24.447 -11.276  0.00  0.00    +0.295 HD
ENDBRANCH   8   9
ENDBRANCH   6   8
ENDBRANCH   2   6
TORSDOF 3
ENDMDL
MODEL 8
REMARK VINA RESULT:      -4.7      2.513      4.451
REMARK  Name = 10972
REMARK  3 active torsions:
REMARK  status: ('A' for Active; 'I' for Inactive)
REMARK    1  A    between atoms: N_2  and  C_6
REMARK    2  A    between atoms: C_6  and  C_8
REMARK    3  A    between atoms: C_8  and  O_9
REMARK                            x       y       z     vdW  Elec       q    Type
REMARK                         _______ _______ _______ _____ _____    ______ ____
ROOT
ATOM      1  O   UNL     1      38.349 -26.976 -14.679  0.00  0.00    -0.275 OA
ATOM      2  N   UNL     1      38.099 -24.958 -13.546  0.00  0.00    -0.295 N 
ATOM      3  C   UNL     1      38.814 -25.942 -14.208  0.00  0.00    +0.223 C 
ATOM      4  C   UNL     1      40.276 -25.603 -14.324  0.00  0.00    +0.095 C 
ATOM      5  H   UNL     1      38.586 -24.170 -13.211  0.00  0.00    +0.150 HD
ENDROOT
BRANCH   2   6
ATOM      6  C   UNL     1      36.673 -25.032 -13.324  0.00  0.00    +0.200 C 
BRANCH   6   8
ATOM      7  O   UNL     1      37.083 -24.409 -11.035  0.00  0.00    -0.248 OA
ATOM      8  C   UNL     1      36.289 -24.791 -11.887  0.00  0.00    +0.334 C 
BRANCH   8   9
ATOM      9  O   UNL     1      34.985 -25.037 -11.627  0.00  0.00    -0.479 OA
ATOM     10  H   UNL     1      34.333 -24.835 -12.269  0.00  0.00    +0.295 HD
ENDBRANCH   8   9
ENDBRANCH   6   8
ENDBRANCH   2   6
TORSDOF 3
ENDMDL
MODEL 9
REMARK VINA RESULT:      -4.7      9.971     10.717
REMARK  Name = 10972
REMARK  3 active torsions:
REMARK  status: ('A' for Active; 'I' for Inactive)
REMARK    1  A    between atoms: N_2  and  C_6
REMARK    2  A    between atoms: C_6  and  C_8
REMARK    3  A    between atoms: C_8  and  O_9
REMARK                            x       y       z     vdW  Elec       q    Type
REMARK                         _______ _______ _______ _____ _____    ______ ____
ROOT
ATOM      1  O   UNL     1      40.898 -14.497 -18.604  0.00  0.00    -0.275 OA
ATOM      2  N   UNL     1      42.239 -14.888 -16.742  0.00  0.00    -0.295 N 
ATOM      3  C   UNL     1      41.809 -15.098 -18.041  0.00  0.00    +0.223 C 
ATOM      4  C   UNL     1      42.610 -16.163 -18.741  0.00  0.00    +0.095 C 
ATOM      5  H   UNL     1      42.982 -15.435 -16.400  0.00  0.00    +0.150 HD
ENDROOT
BRANCH   2   6
ATOM      6  C   UNL     1      41.650 -13.902 -15.865  0.00  0.00    +0.200 C 
BRANCH   6   8
ATOM      7  O   UNL     1      40.814 -14.047 -13.612  0.00  0.00    -0.248 OA
ATOM      8  C   UNL     1      40.852 -14.516 -14.743  0.00  0.00    +0.334 C 
BRANCH   8   9
ATOM      9  O   UNL     1      40.185 -15.636 -15.104  0.00  0.00    -0.479 OA
ATOM     10  H   UNL     1      40.123 -15.874 -16.009  0.00  0.00    +0.295 HD
ENDBRANCH   8   9
ENDBRANCH   6   8
ENDBRANCH   2   6
TORSDOF 3
ENDMDL
