MODEL 1
REMARK VINA RESULT:     -10.7      0.000      0.000
REMARK  Name = 287180
REMARK  4 active torsions:
REMARK  status: ('A' for Active; 'I' for Inactive)
REMARK    1  A    between atoms: N_2  and  C_22
REMARK    2  A    between atoms: C_6  and  C_13
REMARK    3  A    between atoms: C_9  and  C_19
REMARK    4  A    between atoms: C_19  and  O_20
REMARK                            x       y       z     vdW  Elec       q    Type
REMARK                         _______ _______ _______ _____ _____    ______ ____
ROOT
ATOM      1  O   UNL     1      34.394 -16.439 -25.897  0.00  0.00    -0.286 OA
ATOM      2  N   UNL     1      33.476 -15.625 -22.007  0.00  0.00    -0.286 N 
ATOM      3  C   UNL     1      34.018 -16.895 -22.316  0.00  0.00    +0.055 C 
ATOM      4  C   UNL     1      34.346 -17.207 -23.656  0.00  0.00    +0.053 C 
ATOM      5  C   UNL     1      34.254 -17.889 -21.349  0.00  0.00    +0.015 C 
ATOM      6  C   UNL     1      34.793 -19.132 -21.700  0.00  0.00    +0.001 C 
ATOM      7  C   UNL     1      33.275 -14.709 -23.023  0.00  0.00    +0.075 C 
ATOM      8  C   UNL     1      34.120 -16.201 -24.728  0.00  0.00    +0.204 C 
ATOM      9  C   UNL     1      33.548 -14.895 -24.319  0.00  0.00    +0.129 C 
ATOM     10  C   UNL     1      34.884 -18.453 -24.006  0.00  0.00    +0.004 C 
ATOM     11  C   UNL     1      35.106 -19.413 -23.024  0.00  0.00    +0.000 C 
ENDROOT
BRANCH   6  13
ATOM     12  N   UNL     1      35.474 -22.057 -18.704  0.00  0.00    -0.242 NA
ATOM     13  C   UNL     1      35.025 -20.130 -20.677  0.00  0.00    +0.003 C 
ATOM     14  C   UNL     1      36.319 -20.400 -20.248  0.00  0.00    +0.021 C 
ATOM     15  C   UNL     1      33.955 -20.821 -20.121  0.00  0.00    +0.021 C 
ATOM     16  C   UNL     1      36.489 -21.365 -19.268  0.00  0.00    +0.099 C 
ATOM     17  C   UNL     1      34.230 -21.767 -19.146  0.00  0.00    +0.099 C 
ENDBRANCH   6  13
BRANCH   9  19
ATOM     18  O   UNL     1      33.711 -12.675 -25.154  0.00  0.00    -0.245 OA
ATOM     19  C   UNL     1      33.267 -13.805 -25.255  0.00  0.00    +0.342 C 
BRANCH  19  20
ATOM     20  O   UNL     1      32.449 -14.246 -26.234  0.00  0.00    -0.477 OA
ATOM     21  H   UNL     1      31.770 -14.860 -26.036  0.00  0.00    +0.295 HD
ENDBRANCH  19  20
ENDBRANCH   9  19
BRANCH   2  22
ATOM     22  C   UNL     1      33.141 -15.320 -20.619  0.00  0.00    +0.096 C 
ATOM     23  C   UNL     1      32.591 -13.911 -20.510  0.00  0.00    +0.024 C 
ENDBRANCH   2  22
TORSDOF 4
ENDMDL
MODEL 2
REMARK VINA RESULT:      -9.5      3.703      5.985
REMARK  Name = 287180
REMARK  4 active torsions:
REMARK  status: ('A' for Active; 'I' for Inactive)
REMARK    1  A    between atoms: N_2  and  C_22
REMARK    2  A    between atoms: C_6  and  C_13
REMARK    3  A    between atoms: C_9  and  C_19
REMARK    4  A    between atoms: C_19  and  O_20
REMARK                            x       y       z     vdW  Elec       q    Type
REMARK                         _______ _______ _______ _____ _____    ______ ____
ROOT
ATOM      1  O   UNL     1      31.020 -10.821 -21.041  0.00  0.00    -0.286 OA
ATOM      2  N   UNL     1      33.532 -11.126 -24.239  0.00  0.00    -0.286 N 
ATOM      3  C   UNL     1      33.275 -12.289 -23.476  0.00  0.00    +0.055 C 
ATOM      4  C   UNL     1      32.407 -12.215 -22.361  0.00  0.00    +0.053 C 
ATOM      5  C   UNL     1      33.843 -13.544 -23.765  0.00  0.00    +0.015 C 
ATOM      6  C   UNL     1      33.560 -14.668 -22.983  0.00  0.00    +0.001 C 
ATOM      7  C   UNL     1      32.932  -9.933 -23.881  0.00  0.00    +0.075 C 
ATOM      8  C   UNL     1      31.775 -10.919 -22.000  0.00  0.00    +0.204 C 
ATOM      9  C   UNL     1      32.098  -9.748 -22.851  0.00  0.00    +0.129 C 
ATOM     10  C   UNL     1      32.126 -13.342 -21.577  0.00  0.00    +0.004 C 
ATOM     11  C   UNL     1      32.704 -14.568 -21.892  0.00  0.00    +0.000 C 
ENDROOT
BRANCH   6  13
ATOM     12  N   UNL     1      35.320 -18.406 -23.947  0.00  0.00    -0.242 NA
ATOM     13  C   UNL     1      34.161 -15.944 -23.312  0.00  0.00    +0.003 C 
ATOM     14  C   UNL     1      34.183 -16.384 -24.630  0.00  0.00    +0.021 C 
ATOM     15  C   UNL     1      34.717 -16.732 -22.311  0.00  0.00    +0.021 C 
ATOM     16  C   UNL     1      34.769 -17.612 -24.893  0.00  0.00    +0.099 C 
ATOM     17  C   UNL     1      35.280 -17.944 -22.678  0.00  0.00    +0.099 C 
ENDBRANCH   6  13
BRANCH   9  19
ATOM     18  O   UNL     1      30.884  -7.788 -23.430  0.00  0.00    -0.245 OA
ATOM     19  C   UNL     1      31.556  -8.408 -22.625  0.00  0.00    +0.342 C 
BRANCH  19  20
ATOM     20  O   UNL     1      31.916  -7.973 -21.398  0.00  0.00    -0.477 OA
ATOM     21  H   UNL     1      31.522  -8.347 -20.634  0.00  0.00    +0.295 HD
ENDBRANCH  19  20
ENDBRANCH   9  19
BRANCH   2  22
ATOM     22  C   UNL     1      34.431 -11.220 -25.386  0.00  0.00    +0.096 C 
ATOM     23  C   UNL     1      35.422 -10.072 -25.370  0.00  0.00    +0.024 C 
ENDBRANCH   2  22
TORSDOF 4
ENDMDL
MODEL 3
REMARK VINA RESULT:      -9.5      7.002     10.687
REMARK  Name = 287180
REMARK  4 active torsions:
REMARK  status: ('A' for Active; 'I' for Inactive)
REMARK    1  A    between atoms: N_2  and  C_22
REMARK    2  A    between atoms: C_6  and  C_13
REMARK    3  A    between atoms: C_9  and  C_19
REMARK    4  A    between atoms: C_19  and  O_20
REMARK                            x       y       z     vdW  Elec       q    Type
REMARK                         _______ _______ _______ _____ _____    ______ ____
ROOT
ATOM      1  O   UNL     1      38.101 -23.899 -14.212  0.00  0.00    -0.286 OA
ATOM      2  N   UNL     1      34.119 -23.903 -15.091  0.00  0.00    -0.286 N 
ATOM      3  C   UNL     1      35.000 -23.233 -15.974  0.00  0.00    +0.055 C 
ATOM      4  C   UNL     1      36.386 -23.215 -15.696  0.00  0.00    +0.053 C 
ATOM      5  C   UNL     1      34.569 -22.570 -17.138  0.00  0.00    +0.015 C 
ATOM      6  C   UNL     1      35.475 -21.922 -17.983  0.00  0.00    +0.001 C 
ATOM      7  C   UNL     1      34.630 -24.527 -13.968  0.00  0.00    +0.075 C 
ATOM      8  C   UNL     1      36.907 -23.896 -14.481  0.00  0.00    +0.204 C 
ATOM      9  C   UNL     1      35.917 -24.573 -13.608  0.00  0.00    +0.129 C 
ATOM     10  C   UNL     1      37.293 -22.563 -16.542  0.00  0.00    +0.004 C 
ATOM     11  C   UNL     1      36.833 -21.918 -17.686  0.00  0.00    +0.000 C 
ENDROOT
BRANCH   6  13
ATOM     12  N   UNL     1      34.073 -19.956 -21.471  0.00  0.00    -0.242 NA
ATOM     13  C   UNL     1      34.997 -21.251 -19.173  0.00  0.00    +0.003 C 
ATOM     14  C   UNL     1      35.897 -20.642 -20.039  0.00  0.00    +0.021 C 
ATOM     15  C   UNL     1      33.636 -21.215 -19.454  0.00  0.00    +0.021 C 
ATOM     16  C   UNL     1      35.389 -20.012 -21.164  0.00  0.00    +0.099 C 
ATOM     17  C   UNL     1      33.229 -20.560 -20.606  0.00  0.00    +0.099 C 
ENDBRANCH   6  13
BRANCH   9  19
ATOM     18  O   UNL     1      36.026 -24.889 -11.254  0.00  0.00    -0.245 OA
ATOM     19  C   UNL     1      36.273 -25.285 -12.380  0.00  0.00    +0.342 C 
BRANCH  19  20
ATOM     20  O   UNL     1      36.910 -26.434 -12.690  0.00  0.00    -0.477 OA
ATOM     21  H   UNL     1      37.742 -26.408 -13.121  0.00  0.00    +0.295 HD
ENDBRANCH  19  20
ENDBRANCH   9  19
BRANCH   2  22
ATOM     22  C   UNL     1      32.690 -23.911 -15.393  0.00  0.00    +0.096 C 
ATOM     23  C   UNL     1      31.929 -23.122 -14.344  0.00  0.00    +0.024 C 
ENDBRANCH   2  22
TORSDOF 4
ENDMDL
MODEL 4
REMARK VINA RESULT:      -9.4      7.268     10.982
REMARK  Name = 287180
REMARK  4 active torsions:
REMARK  status: ('A' for Active; 'I' for Inactive)
REMARK    1  A    between atoms: N_2  and  C_22
REMARK    2  A    between atoms: C_6  and  C_13
REMARK    3  A    between atoms: C_9  and  C_19
REMARK    4  A    between atoms: C_19  and  O_20
REMARK                            x       y       z     vdW  Elec       q    Type
REMARK                         _______ _______ _______ _____ _____    ______ ____
ROOT
ATOM      1  O   UNL     1      38.062 -23.912 -13.587  0.00  0.00    -0.286 OA
ATOM      2  N   UNL     1      34.146 -23.855 -14.722  0.00  0.00    -0.286 N 
ATOM      3  C   UNL     1      35.101 -23.257 -15.579  0.00  0.00    +0.055 C 
ATOM      4  C   UNL     1      36.467 -23.262 -15.212  0.00  0.00    +0.053 C 
ATOM      5  C   UNL     1      34.765 -22.646 -16.801  0.00  0.00    +0.015 C 
ATOM      6  C   UNL     1      35.743 -22.069 -17.618  0.00  0.00    +0.001 C 
ATOM      7  C   UNL     1      34.565 -24.432 -13.538  0.00  0.00    +0.075 C 
ATOM      8  C   UNL     1      36.889 -23.891 -13.933  0.00  0.00    +0.204 C 
ATOM      9  C   UNL     1      35.825 -24.493 -13.093  0.00  0.00    +0.129 C 
ATOM     10  C   UNL     1      37.445 -22.682 -16.031  0.00  0.00    +0.004 C 
ATOM     11  C   UNL     1      37.079 -22.086 -17.234  0.00  0.00    +0.000 C 
ENDROOT
BRANCH   6  13
ATOM     12  N   UNL     1      34.625 -20.257 -21.287  0.00  0.00    -0.242 NA
ATOM     13  C   UNL     1      35.361 -21.450 -18.870  0.00  0.00    +0.003 C 
ATOM     14  C   UNL     1      34.030 -21.447 -19.268  0.00  0.00    +0.021 C 
ATOM     15  C   UNL     1      36.325 -20.857 -19.678  0.00  0.00    +0.021 C 
ATOM     16  C   UNL     1      33.716 -20.843 -20.475  0.00  0.00    +0.099 C 
ATOM     17  C   UNL     1      35.909 -20.279 -20.866  0.00  0.00    +0.099 C 
ENDBRANCH   6  13
BRANCH   9  19
ATOM     18  O   UNL     1      35.471 -24.914 -10.779  0.00  0.00    -0.245 OA
ATOM     19  C   UNL     1      36.080 -25.148 -11.809  0.00  0.00    +0.342 C 
BRANCH  19  20
ATOM     20  O   UNL     1      37.085 -26.039 -11.945  0.00  0.00    -0.477 OA
ATOM     21  H   UNL     1      37.972 -25.768 -11.815  0.00  0.00    +0.295 HD
ENDBRANCH  19  20
ENDBRANCH   9  19
BRANCH   2  22
ATOM     22  C   UNL     1      32.739 -23.840 -15.115  0.00  0.00    +0.096 C 
ATOM     23  C   UNL     1      31.917 -23.082 -14.090  0.00  0.00    +0.024 C 
ENDBRANCH   2  22
TORSDOF 4
ENDMDL
MODEL 5
REMARK VINA RESULT:      -9.2      5.309      7.886
REMARK  Name = 287180
REMARK  4 active torsions:
REMARK  status: ('A' for Active; 'I' for Inactive)
REMARK    1  A    between atoms: N_2  and  C_22
REMARK    2  A    between atoms: C_6  and  C_13
REMARK    3  A    between atoms: C_9  and  C_19
REMARK    4  A    between atoms: C_19  and  O_20
REMARK                            x       y       z     vdW  Elec       q    Type
REMARK                         _______ _______ _______ _____ _____    ______ ____
ROOT
ATOM      1  O   UNL     1      31.232  -9.723 -19.966  0.00  0.00    -0.286 OA
ATOM      2  N   UNL     1      33.607  -9.188 -23.238  0.00  0.00    -0.286 N 
ATOM      3  C   UNL     1      33.119 -10.489 -22.970  0.00  0.00    +0.055 C 
ATOM      4  C   UNL     1      32.292 -10.705 -21.842  0.00  0.00    +0.053 C 
ATOM      5  C   UNL     1      33.413 -11.604 -23.775  0.00  0.00    +0.015 C 
ATOM      6  C   UNL     1      32.907 -12.873 -23.473  0.00  0.00    +0.001 C 
ATOM      7  C   UNL     1      33.269  -8.149 -22.390  0.00  0.00    +0.075 C 
ATOM      8  C   UNL     1      31.945  -9.569 -20.949  0.00  0.00    +0.204 C 
ATOM      9  C   UNL     1      32.499  -8.239 -21.300  0.00  0.00    +0.129 C 
ATOM     10  C   UNL     1      31.788 -11.977 -21.540  0.00  0.00    +0.004 C 
ATOM     11  C   UNL     1      32.097 -13.059 -22.358  0.00  0.00    +0.000 C 
ENDROOT
BRANCH   6  13
ATOM     12  N   UNL     1      33.849 -16.170 -25.971  0.00  0.00    -0.242 NA
ATOM     13  C   UNL     1      33.228 -13.998 -24.325  0.00  0.00    +0.003 C 
ATOM     14  C   UNL     1      33.990 -15.051 -23.831  0.00  0.00    +0.021 C 
ATOM     15  C   UNL     1      32.776 -14.029 -25.640  0.00  0.00    +0.021 C 
ATOM     16  C   UNL     1      34.270 -16.104 -24.688  0.00  0.00    +0.099 C 
ATOM     17  C   UNL     1      33.111 -15.128 -26.414  0.00  0.00    +0.099 C 
ENDBRANCH   6  13
BRANCH   9  19
ATOM     18  O   UNL     1      31.515  -6.117 -20.872  0.00  0.00    -0.245 OA
ATOM     19  C   UNL     1      32.248  -7.025 -20.522  0.00  0.00    +0.342 C 
BRANCH  19  20
ATOM     20  O   UNL     1      32.950  -7.072 -19.369  0.00  0.00    -0.477 OA
ATOM     21  H   UNL     1      33.811  -6.705 -19.330  0.00  0.00    +0.295 HD
ENDBRANCH  19  20
ENDBRANCH   9  19
BRANCH   2  22
ATOM     22  C   UNL     1      34.460  -8.982 -24.405  0.00  0.00    +0.096 C 
ATOM     23  C   UNL     1      34.699  -7.500 -24.623  0.00  0.00    +0.024 C 
ENDBRANCH   2  22
TORSDOF 4
ENDMDL
MODEL 6
REMARK VINA RESULT:      -9.1      8.153     11.025
REMARK  Name = 287180
REMARK  4 active torsions:
REMARK  status: ('A' for Active; 'I' for Inactive)
REMARK    1  A    between atoms: N_2  and  C_22
REMARK    2  A    between atoms: C_6  and  C_13
REMARK    3  A    between atoms: C_9  and  C_19
REMARK    4  A    between atoms: C_19  and  O_20
REMARK                            x       y       z     vdW  Elec       q    Type
REMARK                         _______ _______ _______ _____ _____    ______ ____
ROOT
ATOM      1  O   UNL     1      34.610 -24.229 -13.038  0.00  0.00    -0.286 OA
ATOM      2  N   UNL     1      33.879 -23.158 -16.905  0.00  0.00    -0.286 N 
ATOM      3  C   UNL     1      32.783 -23.238 -16.013  0.00  0.00    +0.055 C 
ATOM      4  C   UNL     1      33.006 -23.606 -14.666  0.00  0.00    +0.053 C 
ATOM      5  C   UNL     1      31.457 -22.967 -16.395  0.00  0.00    +0.015 C 
ATOM      6  C   UNL     1      30.403 -23.058 -15.479  0.00  0.00    +0.001 C 
ATOM      7  C   UNL     1      35.151 -23.443 -16.444  0.00  0.00    +0.075 C 
ATOM      8  C   UNL     1      34.384 -23.907 -14.197  0.00  0.00    +0.204 C 
ATOM      9  C   UNL     1      35.476 -23.801 -15.196  0.00  0.00    +0.129 C 
ATOM     10  C   UNL     1      31.949 -23.698 -13.749  0.00  0.00    +0.004 C 
ATOM     11  C   UNL     1      30.649 -23.423 -14.160  0.00  0.00    +0.000 C 
ENDROOT
BRANCH   6  13
ATOM     12  N   UNL     1      26.440 -22.213 -16.732  0.00  0.00    -0.242 NA
ATOM     13  C   UNL     1      29.050 -22.769 -15.906  0.00  0.00    +0.003 C 
ATOM     14  C   UNL     1      28.664 -23.028 -17.216  0.00  0.00    +0.021 C 
ATOM     15  C   UNL     1      28.134 -22.234 -15.009  0.00  0.00    +0.021 C 
ATOM     16  C   UNL     1      27.359 -22.734 -17.576  0.00  0.00    +0.099 C 
ATOM     17  C   UNL     1      26.852 -21.976 -15.467  0.00  0.00    +0.099 C 
ENDBRANCH   6  13
BRANCH   9  19
ATOM     18  O   UNL     1      37.586 -23.351 -14.196  0.00  0.00    -0.245 OA
ATOM     19  C   UNL     1      36.882 -24.065 -14.890  0.00  0.00    +0.342 C 
BRANCH  19  20
ATOM     20  O   UNL     1      37.271 -25.209 -15.492  0.00  0.00    -0.477 OA
ATOM     21  H   UNL     1      37.944 -25.736 -15.108  0.00  0.00    +0.295 HD
ENDBRANCH  19  20
ENDBRANCH   9  19
BRANCH   2  22
ATOM     22  C   UNL     1      33.632 -22.777 -18.293  0.00  0.00    +0.096 C 
ATOM     23  C   UNL     1      34.843 -22.063 -18.863  0.00  0.00    +0.024 C 
ENDBRANCH   2  22
TORSDOF 4
ENDMDL
MODEL 7
REMARK VINA RESULT:      -9.1      5.451      7.965
REMARK  Name = 287180
REMARK  4 active torsions:
REMARK  status: ('A' for Active; 'I' for Inactive)
REMARK    1  A    between atoms: N_2  and  C_22
REMARK    2  A    between atoms: C_6  and  C_13
REMARK    3  A    between atoms: C_9  and  C_19
REMARK    4  A    between atoms: C_19  and  O_20
REMARK                            x       y       z     vdW  Elec       q    Type
REMARK                         _______ _______ _______ _____ _____    ______ ____
ROOT
ATOM      1  O   UNL     1      34.038  -7.202 -23.094  0.00  0.00    -0.286 OA
ATOM      2  N   UNL     1      31.942 -10.200 -21.291  0.00  0.00    -0.286 N 
ATOM      3  C   UNL     1      32.673 -10.505 -22.463  0.00  0.00    +0.055 C 
ATOM      4  C   UNL     1      33.411  -9.487 -23.111  0.00  0.00    +0.053 C 
ATOM      5  C   UNL     1      32.713 -11.790 -23.036  0.00  0.00    +0.015 C 
ATOM      6  C   UNL     1      33.451 -12.047 -24.196  0.00  0.00    +0.001 C 
ATOM      7  C   UNL     1      31.958  -8.908 -20.799  0.00  0.00    +0.075 C 
ATOM      8  C   UNL     1      33.411  -8.106 -22.558  0.00  0.00    +0.204 C 
ATOM      9  C   UNL     1      32.617  -7.871 -21.328  0.00  0.00    +0.129 C 
ATOM     10  C   UNL     1      34.149  -9.745 -24.274  0.00  0.00    +0.004 C 
ATOM     11  C   UNL     1      34.167 -11.027 -24.813  0.00  0.00    +0.000 C 
ENDROOT
BRANCH   6  13
ATOM     12  N   UNL     1      33.509 -15.958 -25.837  0.00  0.00    -0.242 NA
ATOM     13  C   UNL     1      33.471 -13.382 -24.756  0.00  0.00    +0.003 C 
ATOM     14  C   UNL     1      33.901 -14.455 -23.984  0.00  0.00    +0.021 C 
ATOM     15  C   UNL     1      33.059 -13.594 -26.067  0.00  0.00    +0.021 C 
ATOM     16  C   UNL     1      33.901 -15.712 -24.567  0.00  0.00    +0.099 C 
ATOM     17  C   UNL     1      33.097 -14.890 -26.555  0.00  0.00    +0.099 C 
ENDBRANCH   6  13
BRANCH   9  19
ATOM     18  O   UNL     1      32.798  -6.365 -19.496  0.00  0.00    -0.245 OA
ATOM     19  C   UNL     1      32.517  -6.570 -20.664  0.00  0.00    +0.342 C 
BRANCH  19  20
ATOM     20  O   UNL     1      32.069  -5.646 -21.541  0.00  0.00    -0.477 OA
ATOM     21  H   UNL     1      32.373  -4.762 -21.487  0.00  0.00    +0.295 HD
ENDBRANCH  19  20
ENDBRANCH   9  19
BRANCH   2  22
ATOM     22  C   UNL     1      31.185 -11.263 -20.636  0.00  0.00    +0.096 C 
ATOM     23  C   UNL     1      31.265 -11.110 -19.129  0.00  0.00    +0.024 C 
ENDBRANCH   2  22
TORSDOF 4
ENDMDL
MODEL 8
REMARK VINA RESULT:      -8.7      4.787      9.318
REMARK  Name = 287180
REMARK  4 active torsions:
REMARK  status: ('A' for Active; 'I' for Inactive)
REMARK    1  A    between atoms: N_2  and  C_22
REMARK    2  A    between atoms: C_6  and  C_13
REMARK    3  A    between atoms: C_9  and  C_19
REMARK    4  A    between atoms: C_19  and  O_20
REMARK                            x       y       z     vdW  Elec       q    Type
REMARK                         _______ _______ _______ _____ _____    ______ ____
ROOT
ATOM      1  O   UNL     1      32.262 -14.663 -21.914  0.00  0.00    -0.286 OA
ATOM      2  N   UNL     1      33.749 -12.040 -24.660  0.00  0.00    -0.286 N 
ATOM      3  C   UNL     1      32.992 -11.524 -23.581  0.00  0.00    +0.055 C 
ATOM      4  C   UNL     1      32.464 -12.409 -22.613  0.00  0.00    +0.053 C 
ATOM      5  C   UNL     1      32.728 -10.152 -23.411  0.00  0.00    +0.015 C 
ATOM      6  C   UNL     1      31.976  -9.686 -22.328  0.00  0.00    +0.001 C 
ATOM      7  C   UNL     1      33.958 -13.404 -24.750  0.00  0.00    +0.075 C 
ATOM      8  C   UNL     1      32.706 -13.871 -22.735  0.00  0.00    +0.204 C 
ATOM      9  C   UNL     1      33.507 -14.329 -23.895  0.00  0.00    +0.129 C 
ATOM     10  C   UNL     1      31.709 -11.940 -21.529  0.00  0.00    +0.004 C 
ATOM     11  C   UNL     1      31.467 -10.577 -21.390  0.00  0.00    +0.000 C 
ENDROOT
BRANCH   6  13
ATOM     12  N   UNL     1      31.242  -5.529 -21.902  0.00  0.00    -0.242 NA
ATOM     13  C   UNL     1      31.726  -8.267 -22.183  0.00  0.00    +0.003 C 
ATOM     14  C   UNL     1      32.113  -7.607 -21.023  0.00  0.00    +0.021 C 
ATOM     15  C   UNL     1      31.097  -7.562 -23.203  0.00  0.00    +0.021 C 
ATOM     16  C   UNL     1      31.851  -6.249 -20.933  0.00  0.00    +0.099 C 
ATOM     17  C   UNL     1      30.881  -6.206 -23.015  0.00  0.00    +0.099 C 
ENDBRANCH   6  13
BRANCH   9  19
ATOM     18  O   UNL     1      33.750 -16.273 -25.243  0.00  0.00    -0.245 OA
ATOM     19  C   UNL     1      33.830 -15.733 -24.154  0.00  0.00    +0.342 C 
BRANCH  19  20
ATOM     20  O   UNL     1      34.226 -16.326 -23.007  0.00  0.00    -0.477 OA
ATOM     21  H   UNL     1      33.837 -17.136 -22.740  0.00  0.00    +0.295 HD
ENDBRANCH  19  20
ENDBRANCH   9  19
BRANCH   2  22
ATOM     22  C   UNL     1      34.287 -11.113 -25.652  0.00  0.00    +0.096 C 
ATOM     23  C   UNL     1      35.418 -10.301 -25.051  0.00  0.00    +0.024 C 
ENDBRANCH   2  22
TORSDOF 4
ENDMDL
MODEL 9
REMARK VINA RESULT:      -8.6      3.327      7.654
REMARK  Name = 287180
REMARK  4 active torsions:
REMARK  status: ('A' for Active; 'I' for Inactive)
REMARK    1  A    between atoms: N_2  and  C_22
REMARK    2  A    between atoms: C_6  and  C_13
REMARK    3  A    between atoms: C_9  and  C_19
REMARK    4  A    between atoms: C_19  and  O_20
REMARK                            x       y       z     vdW  Elec       q    Type
REMARK                         _______ _______ _______ _____ _____    ______ ____
ROOT
ATOM      1  O   UNL     1      34.070 -16.170 -26.236  0.00  0.00    -0.286 OA
ATOM      2  N   UNL     1      34.214 -15.084 -22.307  0.00  0.00    -0.286 N 
ATOM      3  C   UNL     1      33.957 -14.080 -23.271  0.00  0.00    +0.055 C 
ATOM      4  C   UNL     1      33.900 -14.427 -24.641  0.00  0.00    +0.053 C 
ATOM      5  C   UNL     1      33.748 -12.729 -22.940  0.00  0.00    +0.015 C 
ATOM      6  C   UNL     1      33.495 -11.770 -23.926  0.00  0.00    +0.001 C 
ATOM      7  C   UNL     1      34.409 -16.388 -22.722  0.00  0.00    +0.075 C 
ATOM      8  C   UNL     1      34.113 -15.838 -25.058  0.00  0.00    +0.204 C 
ATOM      9  C   UNL     1      34.378 -16.827 -23.986  0.00  0.00    +0.129 C 
ATOM     10  C   UNL     1      33.648 -13.464 -25.628  0.00  0.00    +0.004 C 
ATOM     11  C   UNL     1      33.446 -12.136 -25.266  0.00  0.00    +0.000 C 
ENDROOT
BRANCH   6  13
ATOM     12  N   UNL     1      32.875  -7.721 -22.822  0.00  0.00    -0.242 NA
ATOM     13  C   UNL     1      33.283 -10.388 -23.549  0.00  0.00    +0.003 C 
ATOM     14  C   UNL     1      34.204  -9.416 -23.921  0.00  0.00    +0.021 C 
ATOM     15  C   UNL     1      32.158 -10.029 -22.815  0.00  0.00    +0.021 C 
ATOM     16  C   UNL     1      33.956  -8.108 -23.536  0.00  0.00    +0.099 C 
ATOM     17  C   UNL     1      32.002  -8.694 -22.480  0.00  0.00    +0.099 C 
ENDBRANCH   6  13
BRANCH   9  19
ATOM     18  O   UNL     1      35.404 -18.942 -23.624  0.00  0.00    -0.245 OA
ATOM     19  C   UNL     1      34.608 -18.251 -24.235  0.00  0.00    +0.342 C 
BRANCH  19  20
ATOM     20  O   UNL     1      33.808 -18.671 -25.239  0.00  0.00    -0.477 OA
ATOM     21  H   UNL     1      33.385 -18.046 -25.794  0.00  0.00    +0.295 HD
ENDBRANCH  19  20
ENDBRANCH   9  19
BRANCH   2  22
ATOM     22  C   UNL     1      34.270 -14.710 -20.897  0.00  0.00    +0.096 C 
ATOM     23  C   UNL     1      32.935 -14.979 -20.230  0.00  0.00    +0.024 C 
ENDBRANCH   2  22
TORSDOF 4
ENDMDL
