MODEL 1
REMARK VINA RESULT:      -4.7      0.000      0.000
REMARK  Name = 6950479
REMARK  3 active torsions:
REMARK  status: ('A' for Active; 'I' for Inactive)
REMARK    1  A    between atoms: C_1  and  C_4
REMARK    2  A    between atoms: C_1  and  C_7
REMARK    3  A    between atoms: C_4  and  O_5
REMARK                            x       y       z     vdW  Elec       q    Type
REMARK                         _______ _______ _______ _____ _____    ______ ____
ROOT
ATOM      1  C   UNL     1      41.165 -14.540 -16.710  0.00  0.00    +0.099 C 
ATOM      2  C   UNL     1      41.604 -14.896 -18.129  0.00  0.00    +0.012 C 
ENDROOT
BRANCH   1   4
ATOM      3  O   UNL     1      42.291 -16.466 -15.730  0.00  0.00    -0.250 OA
ATOM      4  C   UNL     1      41.281 -15.783 -15.843  0.00  0.00    +0.313 C 
BRANCH   4   5
ATOM      5  O   UNL     1      40.131 -16.049 -15.172  0.00  0.00    -0.480 OA
ATOM      6  H   UNL     1      39.380 -15.503 -15.294  0.00  0.00    +0.295 HD
ENDBRANCH   4   5
ENDBRANCH   1   4
BRANCH   1   7
ATOM      7  C   UNL     1      42.011 -13.379 -16.162  0.00  0.00    +0.011 C 
ATOM      8  C   UNL     1      42.356 -12.350 -17.230  0.00  0.00    +0.001 C 
ENDBRANCH   1   7
TORSDOF 3
ENDMDL
MODEL 2
REMARK VINA RESULT:      -4.7     14.371     15.638
REMARK  Name = 6950479
REMARK  3 active torsions:
REMARK  status: ('A' for Active; 'I' for Inactive)
REMARK    1  A    between atoms: C_1  and  C_4
REMARK    2  A    between atoms: C_1  and  C_7
REMARK    3  A    between atoms: C_4  and  O_5
REMARK                            x       y       z     vdW  Elec       q    Type
REMARK                         _______ _______ _______ _____ _____    ______ ____
ROOT
ATOM      1  C   UNL     1      29.144 -23.284 -15.720  0.00  0.00    +0.099 C 
ATOM      2  C   UNL     1      30.562 -23.011 -16.216  0.00  0.00    +0.012 C 
ENDROOT
BRANCH   1   4
ATOM      3  O   UNL     1      27.721 -23.929 -17.591  0.00  0.00    -0.250 OA
ATOM      4  C   UNL     1      28.177 -23.051 -16.870  0.00  0.00    +0.313 C 
BRANCH   4   5
ATOM      5  O   UNL     1      27.845 -21.741 -17.002  0.00  0.00    -0.480 OA
ATOM      6  H   UNL     1      26.988 -21.502 -17.295  0.00  0.00    +0.295 HD
ENDBRANCH   4   5
ENDBRANCH   1   4
BRANCH   1   7
ATOM      7  C   UNL     1      29.035 -24.713 -15.164  0.00  0.00    +0.011 C 
ATOM      8  C   UNL     1      30.336 -25.197 -14.535  0.00  0.00    +0.001 C 
ENDBRANCH   1   7
TORSDOF 3
ENDMDL
MODEL 3
REMARK VINA RESULT:      -4.6      8.791      9.737
REMARK  Name = 6950479
REMARK  3 active torsions:
REMARK  status: ('A' for Active; 'I' for Inactive)
REMARK    1  A    between atoms: C_1  and  C_4
REMARK    2  A    between atoms: C_1  and  C_7
REMARK    3  A    between atoms: C_4  and  O_5
REMARK                            x       y       z     vdW  Elec       q    Type
REMARK                         _______ _______ _______ _____ _____    ______ ____
ROOT
ATOM      1  C   UNL     1      34.736 -19.708 -21.671  0.00  0.00    +0.099 C 
ATOM      2  C   UNL     1      34.663 -19.042 -23.043  0.00  0.00    +0.012 C 
ENDROOT
BRANCH   1   4
ATOM      3  O   UNL     1      36.750 -19.459 -20.320  0.00  0.00    -0.250 OA
ATOM      4  C   UNL     1      35.753 -18.959 -20.825  0.00  0.00    +0.313 C 
BRANCH   4   5
ATOM      5  O   UNL     1      35.447 -17.641 -20.704  0.00  0.00    -0.480 OA
ATOM      6  H   UNL     1      34.858 -17.239 -21.311  0.00  0.00    +0.295 HD
ENDBRANCH   4   5
ENDBRANCH   1   4
BRANCH   1   7
ATOM      7  C   UNL     1      33.348 -19.730 -21.010  0.00  0.00    +0.011 C 
ATOM      8  C   UNL     1      33.240 -20.779 -19.911  0.00  0.00    +0.001 C 
ENDBRANCH   1   7
TORSDOF 3
ENDMDL
MODEL 4
REMARK VINA RESULT:      -4.6     10.099     10.841
REMARK  Name = 6950479
REMARK  3 active torsions:
REMARK  status: ('A' for Active; 'I' for Inactive)
REMARK    1  A    between atoms: C_1  and  C_4
REMARK    2  A    between atoms: C_1  and  C_7
REMARK    3  A    between atoms: C_4  and  O_5
REMARK                            x       y       z     vdW  Elec       q    Type
REMARK                         _______ _______ _______ _____ _____    ______ ____
ROOT
ATOM      1  C   UNL     1      34.102 -22.016 -19.484  0.00  0.00    +0.099 C 
ATOM      2  C   UNL     1      35.540 -21.592 -19.199  0.00  0.00    +0.012 C 
ENDROOT
BRANCH   1   4
ATOM      3  O   UNL     1      34.212 -23.418 -17.493  0.00  0.00    -0.250 OA
ATOM      4  C   UNL     1      33.553 -22.720 -18.253  0.00  0.00    +0.313 C 
BRANCH   4   5
ATOM      5  O   UNL     1      32.233 -22.468 -18.065  0.00  0.00    -0.480 OA
ATOM      6  H   UNL     1      31.947 -21.604 -17.841  0.00  0.00    +0.295 HD
ENDBRANCH   4   5
ENDBRANCH   1   4
BRANCH   1   7
ATOM      7  C   UNL     1      33.249 -20.796 -19.872  0.00  0.00    +0.011 C 
ATOM      8  C   UNL     1      33.992 -19.830 -20.786  0.00  0.00    +0.001 C 
ENDBRANCH   1   7
TORSDOF 3
ENDMDL
MODEL 5
REMARK VINA RESULT:      -4.5     14.006     15.214
REMARK  Name = 6950479
REMARK  3 active torsions:
REMARK  status: ('A' for Active; 'I' for Inactive)
REMARK    1  A    between atoms: C_1  and  C_4
REMARK    2  A    between atoms: C_1  and  C_7
REMARK    3  A    between atoms: C_4  and  O_5
REMARK                            x       y       z     vdW  Elec       q    Type
REMARK                         _______ _______ _______ _____ _____    ______ ____
ROOT
ATOM      1  C   UNL     1      29.577 -23.929 -15.985  0.00  0.00    +0.099 C 
ATOM      2  C   UNL     1      28.955 -24.909 -14.993  0.00  0.00    +0.012 C 
ENDROOT
BRANCH   1   4
ATOM      3  O   UNL     1      27.703 -24.007 -17.543  0.00  0.00    -0.250 OA
ATOM      4  C   UNL     1      28.469 -23.349 -16.850  0.00  0.00    +0.313 C 
BRANCH   4   5
ATOM      5  O   UNL     1      28.397 -21.997 -16.752  0.00  0.00    -0.480 OA
ATOM      6  H   UNL     1      28.792 -21.558 -16.025  0.00  0.00    +0.295 HD
ENDBRANCH   4   5
ENDBRANCH   1   4
BRANCH   1   7
ATOM      7  C   UNL     1      30.353 -22.831 -15.240  0.00  0.00    +0.011 C 
ATOM      8  C   UNL     1      31.851 -23.105 -15.188  0.00  0.00    +0.001 C 
ENDBRANCH   1   7
TORSDOF 3
ENDMDL
MODEL 6
REMARK VINA RESULT:      -4.5      0.994      1.897
REMARK  Name = 6950479
REMARK  3 active torsions:
REMARK  status: ('A' for Active; 'I' for Inactive)
REMARK    1  A    between atoms: C_1  and  C_4
REMARK    2  A    between atoms: C_1  and  C_7
REMARK    3  A    between atoms: C_4  and  O_5
REMARK                            x       y       z     vdW  Elec       q    Type
REMARK                         _______ _______ _______ _____ _____    ______ ____
ROOT
ATOM      1  C   UNL     1      41.643 -14.485 -15.912  0.00  0.00    +0.099 C 
ATOM      2  C   UNL     1      40.900 -13.737 -14.808  0.00  0.00    +0.012 C 
ENDROOT
BRANCH   1   4
ATOM      3  O   UNL     1      42.390 -16.791 -15.656  0.00  0.00    -0.250 OA
ATOM      4  C   UNL     1      41.475 -15.978 -15.681  0.00  0.00    +0.313 C 
BRANCH   4   5
ATOM      5  O   UNL     1      40.178 -16.321 -15.474  0.00  0.00    -0.480 OA
ATOM      6  H   UNL     1      39.590 -16.394 -16.200  0.00  0.00    +0.295 HD
ENDBRANCH   4   5
ENDBRANCH   1   4
BRANCH   1   7
ATOM      7  C   UNL     1      41.121 -14.059 -17.294  0.00  0.00    +0.011 C 
ATOM      8  C   UNL     1      41.671 -14.926 -18.420  0.00  0.00    +0.001 C 
ENDBRANCH   1   7
TORSDOF 3
ENDMDL
MODEL 7
REMARK VINA RESULT:      -4.5      9.888     10.504
REMARK  Name = 6950479
REMARK  3 active torsions:
REMARK  status: ('A' for Active; 'I' for Inactive)
REMARK    1  A    between atoms: C_1  and  C_4
REMARK    2  A    between atoms: C_1  and  C_7
REMARK    3  A    between atoms: C_4  and  O_5
REMARK                            x       y       z     vdW  Elec       q    Type
REMARK                         _______ _______ _______ _____ _____    ______ ____
ROOT
ATOM      1  C   UNL     1      34.053 -20.526 -19.923  0.00  0.00    +0.099 C 
ATOM      2  C   UNL     1      32.783 -20.181 -20.697  0.00  0.00    +0.012 C 
ENDROOT
BRANCH   1   4
ATOM      3  O   UNL     1      34.846 -22.788 -19.482  0.00  0.00    -0.250 OA
ATOM      4  C   UNL     1      33.945 -21.960 -19.432  0.00  0.00    +0.313 C 
BRANCH   4   5
ATOM      5  O   UNL     1      32.727 -22.228 -18.897  0.00  0.00    -0.480 OA
ATOM      6  H   UNL     1      32.660 -22.732 -18.110  0.00  0.00    +0.295 HD
ENDBRANCH   4   5
ENDBRANCH   1   4
BRANCH   1   7
ATOM      7  C   UNL     1      35.293 -20.317 -20.808  0.00  0.00    +0.011 C 
ATOM      8  C   UNL     1      35.006 -19.443 -22.022  0.00  0.00    +0.001 C 
ENDBRANCH   1   7
TORSDOF 3
ENDMDL
MODEL 8
REMARK VINA RESULT:      -4.4      8.837      9.853
REMARK  Name = 6950479
REMARK  3 active torsions:
REMARK  status: ('A' for Active; 'I' for Inactive)
REMARK    1  A    between atoms: C_1  and  C_4
REMARK    2  A    between atoms: C_1  and  C_7
REMARK    3  A    between atoms: C_4  and  O_5
REMARK                            x       y       z     vdW  Elec       q    Type
REMARK                         _______ _______ _______ _____ _____    ______ ____
ROOT
ATOM      1  C   UNL     1      34.964 -19.084 -21.882  0.00  0.00    +0.099 C 
ATOM      2  C   UNL     1      34.792 -19.275 -23.387  0.00  0.00    +0.012 C 
ENDROOT
BRANCH   1   4
ATOM      3  O   UNL     1      35.354 -17.096 -20.527  0.00  0.00    -0.250 OA
ATOM      4  C   UNL     1      35.372 -17.643 -21.622  0.00  0.00    +0.313 C 
BRANCH   4   5
ATOM      5  O   UNL     1      35.792 -17.017 -22.752  0.00  0.00    -0.480 OA
ATOM      6  H   UNL     1      35.939 -17.511 -23.534  0.00  0.00    +0.295 HD
ENDBRANCH   4   5
ENDBRANCH   1   4
BRANCH   1   7
ATOM      7  C   UNL     1      33.667 -19.452 -21.142  0.00  0.00    +0.011 C 
ATOM      8  C   UNL     1      33.863 -20.594 -20.152  0.00  0.00    +0.001 C 
ENDBRANCH   1   7
TORSDOF 3
ENDMDL
MODEL 9
REMARK VINA RESULT:      -4.4      8.677      9.684
REMARK  Name = 6950479
REMARK  3 active torsions:
REMARK  status: ('A' for Active; 'I' for Inactive)
REMARK    1  A    between atoms: C_1  and  C_4
REMARK    2  A    between atoms: C_1  and  C_7
REMARK    3  A    between atoms: C_4  and  O_5
REMARK                            x       y       z     vdW  Elec       q    Type
REMARK                         _______ _______ _______ _____ _____    ______ ____
ROOT
ATOM      1  C   UNL     1      34.272 -18.707 -21.803  0.00  0.00    +0.099 C 
ATOM      2  C   UNL     1      33.597 -19.792 -20.967  0.00  0.00    +0.012 C 
ENDROOT
BRANCH   1   4
ATOM      3  O   UNL     1      35.293 -16.869 -20.570  0.00  0.00    -0.250 OA
ATOM      4  C   UNL     1      35.334 -18.032 -20.951  0.00  0.00    +0.313 C 
BRANCH   4   5
ATOM      5  O   UNL     1      36.345 -18.879 -20.626  0.00  0.00    -0.480 OA
ATOM      6  H   UNL     1      36.386 -19.252 -19.768  0.00  0.00    +0.295 HD
ENDBRANCH   4   5
ENDBRANCH   1   4
BRANCH   1   7
ATOM      7  C   UNL     1      34.868 -19.311 -23.086  0.00  0.00    +0.011 C 
ATOM      8  C   UNL     1      34.736 -18.382 -24.286  0.00  0.00    +0.001 C 
ENDBRANCH   1   7
TORSDOF 3
ENDMDL
