MODEL 1
REMARK VINA RESULT:      -9.9      0.000      0.000
REMARK  Name = 66753191
REMARK  12 active torsions:
REMARK  status: ('A' for Active; 'I' for Inactive)
REMARK    1  A    between atoms: C_1  and  N_6
REMARK    2  A    between atoms: C_1  and  N_18
REMARK    3  A    between atoms: C_2  and  N_5
REMARK    4  A    between atoms: N_6  and  C_8
REMARK    5  A    between atoms: C_8  and  C_11
REMARK    6  A    between atoms: N_18  and  C_20
REMARK    7  A    between atoms: C_20  and  C_21
REMARK    8  A    between atoms: C_21  and  S_22
REMARK    9  A    between atoms: S_22  and  C_23
REMARK   10  A    between atoms: C_23  and  C_26
REMARK   11  A    between atoms: C_25  and  C_29
REMARK   12  A    between atoms: C_29  and  N_30
REMARK                            x       y       z     vdW  Elec       q    Type
REMARK                         _______ _______ _______ _____ _____    ______ ____
ROOT
ATOM      1  C   UNL     1      35.091 -24.555 -12.867  0.00  0.00    +0.118 C 
ATOM      2  C   UNL     1      35.491 -23.761 -11.850  0.00  0.00    +0.194 C 
ENDROOT
BRANCH   2   5
ATOM      3  O   UNL     1      37.376 -24.871 -11.230  0.00  0.00    -0.126 OA
ATOM      4  O   UNL     1      37.398 -22.669 -11.266  0.00  0.00    -0.126 OA
ATOM      5  N   UNL     1      36.844 -23.767 -11.421  0.00  0.00    +0.062 N 
ENDBRANCH   2   5
BRANCH   1   6
ATOM      6  N   UNL     1      33.747 -24.512 -13.252  0.00  0.00    -0.317 N 
ATOM      7  H   UNL     1      33.312 -25.385 -13.389  0.00  0.00    +0.148 HD
BRANCH   6   8
ATOM      8  C   UNL     1      32.913 -23.355 -13.474  0.00  0.00    +0.115 C 
BRANCH   8  11
ATOM      9  O   UNL     1      29.370 -22.405 -16.794  0.00  0.00    -0.435 OA
ATOM     10  O   UNL     1      28.411 -24.605 -16.576  0.00  0.00    -0.435 OA
ATOM     11  C   UNL     1      31.705 -23.724 -14.291  0.00  0.00    +0.001 C 
ATOM     12  C   UNL     1      30.043 -23.175 -15.896  0.00  0.00    +0.176 C 
ATOM     13  C   UNL     1      31.150 -22.790 -15.169  0.00  0.00    +0.038 C 
ATOM     14  C   UNL     1      29.495 -24.431 -15.772  0.00  0.00    +0.176 C 
ATOM     15  C   UNL     1      31.147 -25.007 -14.164  0.00  0.00    +0.001 C 
ATOM     16  C   UNL     1      30.025 -25.372 -14.912  0.00  0.00    +0.040 C 
ATOM     17  C   UNL     1      28.337 -23.317 -17.221  0.00  0.00    +0.429 C 
ENDBRANCH   8  11
ENDBRANCH   6   8
ENDBRANCH   1   6
BRANCH   1  18
ATOM     18  N   UNL     1      35.971 -25.407 -13.538  0.00  0.00    -0.319 N 
ATOM     19  H   UNL     1      36.327 -26.169 -13.027  0.00  0.00    +0.148 HD
BRANCH  18  20
ATOM     20  C   UNL     1      36.409 -25.285 -14.909  0.00  0.00    +0.100 C 
BRANCH  20  21
ATOM     21  C   UNL     1      37.447 -24.181 -15.065  0.00  0.00    +0.079 C 
BRANCH  21  22
ATOM     22  S   UNL     1      36.759 -22.695 -15.860  0.00  0.00    -0.130 S 
BRANCH  22  23
ATOM     23  C   UNL     1      35.152 -23.374 -16.330  0.00  0.00    +0.122 C 
BRANCH  23  26
ATOM     24  O   UNL     1      35.532 -22.116 -18.377  0.00  0.00    -0.463 OA
ATOM     25  C   UNL     1      34.853 -21.642 -19.455  0.00  0.00    +0.102 C 
ATOM     26  C   UNL     1      34.624 -22.759 -17.597  0.00  0.00    +0.133 C 
ATOM     27  C   UNL     1      33.520 -21.977 -19.371  0.00  0.00    +0.034 C 
ATOM     28  C   UNL     1      33.372 -22.702 -18.164  0.00  0.00    +0.037 C 
BRANCH  25  29
ATOM     29  C   UNL     1      35.642 -20.902 -20.448  0.00  0.00    -0.011 C 
BRANCH  29  30
ATOM     30  N   UNL     1      35.218 -19.515 -20.550  0.00  0.00    +0.389 N 
ATOM     31  C   UNL     1      33.977 -19.406 -21.322  0.00  0.00    -0.100 C 
ATOM     32  C   UNL     1      36.266 -18.694 -21.162  0.00  0.00    -0.100 C 
ATOM     33  H   UNL     1      35.044 -19.168 -19.606  0.00  0.00    -0.079 HD
ENDBRANCH  29  30
ENDBRANCH  25  29
ENDBRANCH  23  26
ENDBRANCH  22  23
ENDBRANCH  21  22
ENDBRANCH  20  21
ENDBRANCH  18  20
ENDBRANCH   1  18
TORSDOF 12
ENDMDL
MODEL 2
REMARK VINA RESULT:      -9.9      1.964      2.748
REMARK  Name = 66753191
REMARK  12 active torsions:
REMARK  status: ('A' for Active; 'I' for Inactive)
REMARK    1  A    between atoms: C_1  and  N_6
REMARK    2  A    between atoms: C_1  and  N_18
REMARK    3  A    between atoms: C_2  and  N_5
REMARK    4  A    between atoms: N_6  and  C_8
REMARK    5  A    between atoms: C_8  and  C_11
REMARK    6  A    between atoms: N_18  and  C_20
REMARK    7  A    between atoms: C_20  and  C_21
REMARK    8  A    between atoms: C_21  and  S_22
REMARK    9  A    between atoms: S_22  and  C_23
REMARK   10  A    between atoms: C_23  and  C_26
REMARK   11  A    between atoms: C_25  and  C_29
REMARK   12  A    between atoms: C_29  and  N_30
REMARK                            x       y       z     vdW  Elec       q    Type
REMARK                         _______ _______ _______ _____ _____    ______ ____
ROOT
ATOM      1  C   UNL     1      36.404 -24.959 -14.595  0.00  0.00    +0.118 C 
ATOM      2  C   UNL     1      37.210 -25.688 -13.792  0.00  0.00    +0.194 C 
ENDROOT
BRANCH   2   5
ATOM      3  O   UNL     1      39.111 -26.569 -14.673  0.00  0.00    -0.126 OA
ATOM      4  O   UNL     1      39.252 -24.757 -13.429  0.00  0.00    -0.126 OA
ATOM      5  N   UNL     1      38.616 -25.669 -13.977  0.00  0.00    +0.062 N 
ENDBRANCH   2   5
BRANCH   1   6
ATOM      6  N   UNL     1      35.024 -25.011 -14.370  0.00  0.00    -0.317 N 
ATOM      7  H   UNL     1      34.571 -25.831 -14.671  0.00  0.00    +0.148 HD
BRANCH   6   8
ATOM      8  C   UNL     1      34.176 -24.018 -13.754  0.00  0.00    +0.115 C 
BRANCH   8  11
ATOM      9  O   UNL     1      29.500 -22.765 -14.776  0.00  0.00    -0.435 OA
ATOM     10  O   UNL     1      29.953 -22.528 -17.131  0.00  0.00    -0.435 OA
ATOM     11  C   UNL     1      33.067 -23.619 -14.689  0.00  0.00    +0.001 C 
ATOM     12  C   UNL     1      30.800 -23.027 -15.081  0.00  0.00    +0.176 C 
ATOM     13  C   UNL     1      31.784 -23.389 -14.185  0.00  0.00    +0.038 C 
ATOM     14  C   UNL     1      31.059 -22.891 -16.426  0.00  0.00    +0.176 C 
ATOM     15  C   UNL     1      33.332 -23.480 -16.062  0.00  0.00    +0.001 C 
ATOM     16  C   UNL     1      32.317 -23.112 -16.949  0.00  0.00    +0.040 C 
ATOM     17  C   UNL     1      28.969 -22.449 -16.080  0.00  0.00    +0.429 C 
ENDBRANCH   8  11
ENDBRANCH   6   8
ENDBRANCH   1   6
BRANCH   1  18
ATOM     18  N   UNL     1      36.902 -24.164 -15.629  0.00  0.00    -0.319 N 
ATOM     19  H   UNL     1      37.071 -24.612 -16.489  0.00  0.00    +0.148 HD
BRANCH  18  20
ATOM     20  C   UNL     1      37.192 -22.751 -15.566  0.00  0.00    +0.100 C 
BRANCH  20  21
ATOM     21  C   UNL     1      36.181 -21.939 -16.366  0.00  0.00    +0.079 C 
BRANCH  21  22
ATOM     22  S   UNL     1      36.784 -21.538 -18.035  0.00  0.00    -0.130 S 
BRANCH  22  23
ATOM     23  C   UNL     1      35.366 -22.148 -18.975  0.00  0.00    +0.122 C 
BRANCH  23  26
ATOM     24  O   UNL     1      35.478 -20.085 -20.259  0.00  0.00    -0.463 OA
ATOM     25  C   UNL     1      34.663 -19.206 -20.900  0.00  0.00    +0.102 C 
ATOM     26  C   UNL     1      34.676 -21.051 -19.739  0.00  0.00    +0.133 C 
ATOM     27  C   UNL     1      33.349 -19.602 -20.795  0.00  0.00    +0.034 C 
ATOM     28  C   UNL     1      33.358 -20.800 -20.041  0.00  0.00    +0.037 C 
BRANCH  25  29
ATOM     29  C   UNL     1      35.319 -18.062 -21.547  0.00  0.00    -0.011 C 
BRANCH  29  30
ATOM     30  N   UNL     1      34.685 -17.719 -22.810  0.00  0.00    +0.389 N 
ATOM     31  C   UNL     1      35.159 -18.596 -23.884  0.00  0.00    -0.100 C 
ATOM     32  C   UNL     1      34.937 -16.318 -23.154  0.00  0.00    -0.100 C 
ATOM     33  H   UNL     1      33.679 -17.852 -22.703  0.00  0.00    -0.079 HD
ENDBRANCH  29  30
ENDBRANCH  25  29
ENDBRANCH  23  26
ENDBRANCH  22  23
ENDBRANCH  21  22
ENDBRANCH  20  21
ENDBRANCH  18  20
ENDBRANCH   1  18
TORSDOF 12
ENDMDL
MODEL 3
REMARK VINA RESULT:      -9.8      7.312     11.879
REMARK  Name = 66753191
REMARK  12 active torsions:
REMARK  status: ('A' for Active; 'I' for Inactive)
REMARK    1  A    between atoms: C_1  and  N_6
REMARK    2  A    between atoms: C_1  and  N_18
REMARK    3  A    between atoms: C_2  and  N_5
REMARK    4  A    between atoms: N_6  and  C_8
REMARK    5  A    between atoms: C_8  and  C_11
REMARK    6  A    between atoms: N_18  and  C_20
REMARK    7  A    between atoms: C_20  and  C_21
REMARK    8  A    between atoms: C_21  and  S_22
REMARK    9  A    between atoms: S_22  and  C_23
REMARK   10  A    between atoms: C_23  and  C_26
REMARK   11  A    between atoms: C_25  and  C_29
REMARK   12  A    between atoms: C_29  and  N_30
REMARK                            x       y       z     vdW  Elec       q    Type
REMARK                         _______ _______ _______ _____ _____    ______ ____
ROOT
ATOM      1  C   UNL     1      35.033 -17.559 -23.910  0.00  0.00    +0.118 C 
ATOM      2  C   UNL     1      34.446 -17.759 -25.111  0.00  0.00    +0.194 C 
ENDROOT
BRANCH   2   5
ATOM      3  O   UNL     1      32.772 -16.737 -26.261  0.00  0.00    -0.126 OA
ATOM      4  O   UNL     1      34.708 -15.707 -26.055  0.00  0.00    -0.126 OA
ATOM      5  N   UNL     1      33.943 -16.662 -25.857  0.00  0.00    +0.062 N 
ENDBRANCH   2   5
BRANCH   1   6
ATOM      6  N   UNL     1      35.514 -18.674 -23.215  0.00  0.00    -0.317 N 
ATOM      7  H   UNL     1      35.545 -19.515 -23.723  0.00  0.00    +0.148 HD
BRANCH   6   8
ATOM      8  C   UNL     1      35.972 -18.750 -21.847  0.00  0.00    +0.115 C 
BRANCH   8  11
ATOM      9  O   UNL     1      35.098 -22.493 -18.732  0.00  0.00    -0.435 OA
ATOM     10  O   UNL     1      32.715 -22.140 -18.788  0.00  0.00    -0.435 OA
ATOM     11  C   UNL     1      35.068 -19.640 -21.039  0.00  0.00    +0.001 C 
ATOM     12  C   UNL     1      34.749 -21.454 -19.539  0.00  0.00    +0.176 C 
ATOM     13  C   UNL     1      35.617 -20.663 -20.262  0.00  0.00    +0.038 C 
ATOM     14  C   UNL     1      33.388 -21.252 -19.571  0.00  0.00    +0.176 C 
ATOM     15  C   UNL     1      33.679 -19.434 -21.072  0.00  0.00    +0.001 C 
ATOM     16  C   UNL     1      32.820 -20.249 -20.329  0.00  0.00    +0.040 C 
ATOM     17  C   UNL     1      33.805 -22.922 -18.260  0.00  0.00    +0.429 C 
ENDBRANCH   8  11
ENDBRANCH   6   8
ENDBRANCH   1   6
BRANCH   1  18
ATOM     18  N   UNL     1      35.173 -16.287 -23.351  0.00  0.00    -0.319 N 
ATOM     19  H   UNL     1      35.970 -15.773 -23.615  0.00  0.00    +0.148 HD
BRANCH  18  20
ATOM     20  C   UNL     1      34.266 -15.650 -22.426  0.00  0.00    +0.100 C 
BRANCH  20  21
ATOM     21  C   UNL     1      34.331 -14.132 -22.540  0.00  0.00    +0.079 C 
BRANCH  21  22
ATOM     22  S   UNL     1      32.903 -13.445 -23.435  0.00  0.00    -0.130 S 
BRANCH  22  23
ATOM     23  C   UNL     1      33.805 -12.383 -24.585  0.00  0.00    +0.122 C 
BRANCH  23  26
ATOM     24  O   UNL     1      32.832 -10.570 -23.289  0.00  0.00    -0.463 OA
ATOM     25  C   UNL     1      33.034  -9.254 -23.015  0.00  0.00    +0.102 C 
ATOM     26  C   UNL     1      33.823 -10.947 -24.138  0.00  0.00    +0.133 C 
ATOM     27  C   UNL     1      34.146  -8.788 -23.680  0.00  0.00    +0.034 C 
ATOM     28  C   UNL     1      34.657  -9.888 -24.409  0.00  0.00    +0.037 C 
BRANCH  25  29
ATOM     29  C   UNL     1      32.070  -8.622 -22.105  0.00  0.00    -0.011 C 
BRANCH  29  30
ATOM     30  N   UNL     1      32.588  -8.527 -20.749  0.00  0.00    +0.389 N 
ATOM     31  C   UNL     1      31.986  -9.550 -19.890  0.00  0.00    -0.100 C 
ATOM     32  C   UNL     1      32.346  -7.195 -20.192  0.00  0.00    -0.100 C 
ATOM     33  H   UNL     1      33.596  -8.687 -20.786  0.00  0.00    -0.079 HD
ENDBRANCH  29  30
ENDBRANCH  25  29
ENDBRANCH  23  26
ENDBRANCH  22  23
ENDBRANCH  21  22
ENDBRANCH  20  21
ENDBRANCH  18  20
ENDBRANCH   1  18
TORSDOF 12
ENDMDL
MODEL 4
REMARK VINA RESULT:      -9.7      7.313     11.558
REMARK  Name = 66753191
REMARK  12 active torsions:
REMARK  status: ('A' for Active; 'I' for Inactive)
REMARK    1  A    between atoms: C_1  and  N_6
REMARK    2  A    between atoms: C_1  and  N_18
REMARK    3  A    between atoms: C_2  and  N_5
REMARK    4  A    between atoms: N_6  and  C_8
REMARK    5  A    between atoms: C_8  and  C_11
REMARK    6  A    between atoms: N_18  and  C_20
REMARK    7  A    between atoms: C_20  and  C_21
REMARK    8  A    between atoms: C_21  and  S_22
REMARK    9  A    between atoms: S_22  and  C_23
REMARK   10  A    between atoms: C_23  and  C_26
REMARK   11  A    between atoms: C_25  and  C_29
REMARK   12  A    between atoms: C_29  and  N_30
REMARK                            x       y       z     vdW  Elec       q    Type
REMARK                         _______ _______ _______ _____ _____    ______ ____
ROOT
ATOM      1  C   UNL     1      34.856 -16.526 -22.247  0.00  0.00    +0.118 C 
ATOM      2  C   UNL     1      34.688 -16.216 -20.942  0.00  0.00    +0.194 C 
ENDROOT
BRANCH   2   5
ATOM      3  O   UNL     1      35.219 -14.095 -20.319  0.00  0.00    -0.126 OA
ATOM      4  O   UNL     1      33.096 -14.658 -20.485  0.00  0.00    -0.126 OA
ATOM      5  N   UNL     1      34.309 -14.903 -20.558  0.00  0.00    +0.062 N 
ENDBRANCH   2   5
BRANCH   1   6
ATOM      6  N   UNL     1      35.230 -17.834 -22.573  0.00  0.00    -0.317 N 
ATOM      7  H   UNL     1      34.919 -18.162 -23.448  0.00  0.00    +0.148 HD
BRANCH   6   8
ATOM      8  C   UNL     1      36.011 -18.766 -21.795  0.00  0.00    +0.115 C 
BRANCH   8  11
ATOM      9  O   UNL     1      35.160 -22.413 -18.563  0.00  0.00    -0.435 OA
ATOM     10  O   UNL     1      32.770 -22.247 -18.823  0.00  0.00    -0.435 OA
ATOM     11  C   UNL     1      35.112 -19.683 -21.013  0.00  0.00    +0.001 C 
ATOM     12  C   UNL     1      34.803 -21.444 -19.448  0.00  0.00    +0.176 C 
ATOM     13  C   UNL     1      35.668 -20.624 -20.143  0.00  0.00    +0.038 C 
ATOM     14  C   UNL     1      33.438 -21.348 -19.597  0.00  0.00    +0.176 C 
ATOM     15  C   UNL     1      33.718 -19.585 -21.165  0.00  0.00    +0.001 C 
ATOM     16  C   UNL     1      32.864 -20.428 -20.450  0.00  0.00    +0.040 C 
ATOM     17  C   UNL     1      33.867 -22.918 -18.171  0.00  0.00    +0.429 C 
ENDBRANCH   8  11
ENDBRANCH   6   8
ENDBRANCH   1   6
BRANCH   1  18
ATOM     18  N   UNL     1      34.670 -15.590 -23.266  0.00  0.00    -0.319 N 
ATOM     19  H   UNL     1      35.129 -14.725 -23.162  0.00  0.00    +0.148 HD
BRANCH  18  20
ATOM     20  C   UNL     1      33.874 -15.762 -24.458  0.00  0.00    +0.100 C 
BRANCH  20  21
ATOM     21  C   UNL     1      33.356 -14.428 -24.979  0.00  0.00    +0.079 C 
BRANCH  21  22
ATOM     22  S   UNL     1      33.543 -13.091 -23.760  0.00  0.00    -0.130 S 
BRANCH  22  23
ATOM     23  C   UNL     1      34.064 -11.781 -24.891  0.00  0.00    +0.122 C 
BRANCH  23  26
ATOM     24  O   UNL     1      32.986 -10.176 -23.416  0.00  0.00    -0.463 OA
ATOM     25  C   UNL     1      33.155  -8.912 -22.943  0.00  0.00    +0.102 C 
ATOM     26  C   UNL     1      34.036 -10.425 -24.242  0.00  0.00    +0.133 C 
ATOM     27  C   UNL     1      34.302  -8.353 -23.458  0.00  0.00    +0.034 C 
ATOM     28  C   UNL     1      34.873  -9.336 -24.302  0.00  0.00    +0.037 C 
BRANCH  25  29
ATOM     29  C   UNL     1      32.124  -8.421 -22.018  0.00  0.00    -0.011 C 
BRANCH  29  30
ATOM     30  N   UNL     1      32.606  -8.378 -20.646  0.00  0.00    +0.389 N 
ATOM     31  C   UNL     1      31.931  -9.388 -19.827  0.00  0.00    -0.100 C 
ATOM     32  C   UNL     1      32.410  -7.047 -20.068  0.00  0.00    -0.100 C 
ATOM     33  H   UNL     1      33.606  -8.584 -20.657  0.00  0.00    -0.079 HD
ENDBRANCH  29  30
ENDBRANCH  25  29
ENDBRANCH  23  26
ENDBRANCH  22  23
ENDBRANCH  21  22
ENDBRANCH  20  21
ENDBRANCH  18  20
ENDBRANCH   1  18
TORSDOF 12
ENDMDL
MODEL 5
REMARK VINA RESULT:      -9.6      7.261     11.471
REMARK  Name = 66753191
REMARK  12 active torsions:
REMARK  status: ('A' for Active; 'I' for Inactive)
REMARK    1  A    between atoms: C_1  and  N_6
REMARK    2  A    between atoms: C_1  and  N_18
REMARK    3  A    between atoms: C_2  and  N_5
REMARK    4  A    between atoms: N_6  and  C_8
REMARK    5  A    between atoms: C_8  and  C_11
REMARK    6  A    between atoms: N_18  and  C_20
REMARK    7  A    between atoms: C_20  and  C_21
REMARK    8  A    between atoms: C_21  and  S_22
REMARK    9  A    between atoms: S_22  and  C_23
REMARK   10  A    between atoms: C_23  and  C_26
REMARK   11  A    between atoms: C_25  and  C_29
REMARK   12  A    between atoms: C_29  and  N_30
REMARK                            x       y       z     vdW  Elec       q    Type
REMARK                         _______ _______ _______ _____ _____    ______ ____
ROOT
ATOM      1  C   UNL     1      34.983 -17.335 -22.837  0.00  0.00    +0.118 C 
ATOM      2  C   UNL     1      35.326 -17.883 -24.024  0.00  0.00    +0.194 C 
ENDROOT
BRANCH   2   5
ATOM      3  O   UNL     1      33.673 -18.180 -25.557  0.00  0.00    -0.126 OA
ATOM      4  O   UNL     1      35.093 -16.518 -25.828  0.00  0.00    -0.126 OA
ATOM      5  N   UNL     1      34.653 -17.501 -25.214  0.00  0.00    +0.062 N 
ENDBRANCH   2   5
BRANCH   1   6
ATOM      6  N   UNL     1      35.678 -17.745 -21.694  0.00  0.00    -0.317 N 
ATOM      7  H   UNL     1      35.798 -17.060 -20.998  0.00  0.00    +0.148 HD
BRANCH   6   8
ATOM      8  C   UNL     1      36.240 -19.042 -21.402  0.00  0.00    +0.115 C 
BRANCH   8  11
ATOM      9  O   UNL     1      34.970 -22.723 -18.349  0.00  0.00    -0.435 OA
ATOM     10  O   UNL     1      32.614 -22.309 -18.637  0.00  0.00    -0.435 OA
ATOM     11  C   UNL     1      35.239 -19.899 -20.675  0.00  0.00    +0.001 C 
ATOM     12  C   UNL     1      34.728 -21.686 -19.196  0.00  0.00    +0.176 C 
ATOM     13  C   UNL     1      35.683 -20.927 -19.839  0.00  0.00    +0.038 C 
ATOM     14  C   UNL     1      33.383 -21.448 -19.360  0.00  0.00    +0.176 C 
ATOM     15  C   UNL     1      33.865 -19.656 -20.843  0.00  0.00    +0.001 C 
ATOM     16  C   UNL     1      32.918 -20.439 -20.179  0.00  0.00    +0.040 C 
ATOM     17  C   UNL     1      33.626 -23.113 -17.999  0.00  0.00    +0.429 C 
ENDBRANCH   8  11
ENDBRANCH   6   8
ENDBRANCH   1   6
BRANCH   1  18
ATOM     18  N   UNL     1      33.969 -16.383 -22.720  0.00  0.00    -0.319 N 
ATOM     19  H   UNL     1      33.046 -16.722 -22.682  0.00  0.00    +0.148 HD
BRANCH  18  20
ATOM     20  C   UNL     1      34.137 -14.950 -22.648  0.00  0.00    +0.100 C 
BRANCH  20  21
ATOM     21  C   UNL     1      33.398 -14.246 -23.779  0.00  0.00    +0.079 C 
BRANCH  21  22
ATOM     22  S   UNL     1      32.998 -12.518 -23.371  0.00  0.00    -0.130 S 
BRANCH  22  23
ATOM     23  C   UNL     1      31.953 -12.829 -21.930  0.00  0.00    +0.122 C 
BRANCH  23  26
ATOM     24  O   UNL     1      32.023 -10.415 -21.641  0.00  0.00    -0.463 OA
ATOM     25  C   UNL     1      31.874  -9.473 -20.672  0.00  0.00    +0.102 C 
ATOM     26  C   UNL     1      31.835 -11.620 -21.042  0.00  0.00    +0.133 C 
ATOM     27  C   UNL     1      31.591 -10.065 -19.462  0.00  0.00    +0.034 C 
ATOM     28  C   UNL     1      31.566 -11.459 -19.703  0.00  0.00    +0.037 C 
BRANCH  25  29
ATOM     29  C   UNL     1      32.036  -8.075 -21.094  0.00  0.00    -0.011 C 
BRANCH  29  30
ATOM     30  N   UNL     1      32.317  -7.968 -22.516  0.00  0.00    +0.389 N 
ATOM     31  C   UNL     1      33.679  -7.478 -22.741  0.00  0.00    -0.100 C 
ATOM     32  C   UNL     1      31.349  -7.087 -23.173  0.00  0.00    -0.100 C 
ATOM     33  H   UNL     1      32.237  -8.901 -22.924  0.00  0.00    -0.079 HD
ENDBRANCH  29  30
ENDBRANCH  25  29
ENDBRANCH  23  26
ENDBRANCH  22  23
ENDBRANCH  21  22
ENDBRANCH  20  21
ENDBRANCH  18  20
ENDBRANCH   1  18
TORSDOF 12
ENDMDL
MODEL 6
REMARK VINA RESULT:      -9.3      3.305      6.999
REMARK  Name = 66753191
REMARK  12 active torsions:
REMARK  status: ('A' for Active; 'I' for Inactive)
REMARK    1  A    between atoms: C_1  and  N_6
REMARK    2  A    between atoms: C_1  and  N_18
REMARK    3  A    between atoms: C_2  and  N_5
REMARK    4  A    between atoms: N_6  and  C_8
REMARK    5  A    between atoms: C_8  and  C_11
REMARK    6  A    between atoms: N_18  and  C_20
REMARK    7  A    between atoms: C_20  and  C_21
REMARK    8  A    between atoms: C_21  and  S_22
REMARK    9  A    between atoms: S_22  and  C_23
REMARK   10  A    between atoms: C_23  and  C_26
REMARK   11  A    between atoms: C_25  and  C_29
REMARK   12  A    between atoms: C_29  and  N_30
REMARK                            x       y       z     vdW  Elec       q    Type
REMARK                         _______ _______ _______ _____ _____    ______ ____
ROOT
ATOM      1  C   UNL     1      33.215 -23.140 -16.940  0.00  0.00    +0.118 C 
ATOM      2  C   UNL     1      32.265 -23.409 -16.018  0.00  0.00    +0.194 C 
ENDROOT
BRANCH   2   5
ATOM      3  O   UNL     1      30.254 -24.470 -16.042  0.00  0.00    -0.126 OA
ATOM      4  O   UNL     1      30.440 -22.515 -17.038  0.00  0.00    -0.126 OA
ATOM      5  N   UNL     1      30.897 -23.468 -16.390  0.00  0.00    +0.062 N 
ENDBRANCH   2   5
BRANCH   1   6
ATOM      6  N   UNL     1      34.549 -23.094 -16.523  0.00  0.00    -0.317 N 
ATOM      7  H   UNL     1      35.221 -23.050 -17.241  0.00  0.00    +0.148 HD
BRANCH   6   8
ATOM      8  C   UNL     1      35.069 -23.100 -15.176  0.00  0.00    +0.115 C 
BRANCH   8  11
ATOM      9  O   UNL     1      39.787 -24.497 -14.653  0.00  0.00    -0.435 OA
ATOM     10  O   UNL     1      39.218 -26.839 -14.652  0.00  0.00    -0.435 OA
ATOM     11  C   UNL     1      36.157 -24.131 -15.037  0.00  0.00    +0.001 C 
ATOM     12  C   UNL     1      38.448 -24.703 -14.786  0.00  0.00    +0.176 C 
ATOM     13  C   UNL     1      37.487 -23.722 -14.909  0.00  0.00    +0.038 C 
ATOM     14  C   UNL     1      38.123 -26.040 -14.785  0.00  0.00    +0.176 C 
ATOM     15  C   UNL     1      35.824 -25.496 -15.036  0.00  0.00    +0.001 C 
ATOM     16  C   UNL     1      36.817 -26.470 -14.909  0.00  0.00    +0.040 C 
ATOM     17  C   UNL     1      40.268 -25.854 -14.569  0.00  0.00    +0.429 C 
ENDBRANCH   8  11
ENDBRANCH   6   8
ENDBRANCH   1   6
BRANCH   1  18
ATOM     18  N   UNL     1      32.907 -22.910 -18.283  0.00  0.00    -0.319 N 
ATOM     19  H   UNL     1      32.309 -23.560 -18.718  0.00  0.00    +0.148 HD
BRANCH  18  20
ATOM     20  C   UNL     1      33.375 -21.813 -19.098  0.00  0.00    +0.100 C 
BRANCH  20  21
ATOM     21  C   UNL     1      34.697 -22.149 -19.777  0.00  0.00    +0.079 C 
BRANCH  21  22
ATOM     22  S   UNL     1      35.627 -20.660 -20.252  0.00  0.00    -0.130 S 
BRANCH  22  23
ATOM     23  C   UNL     1      34.231 -19.642 -20.781  0.00  0.00    +0.122 C 
BRANCH  23  26
ATOM     24  O   UNL     1      34.422 -17.525 -21.964  0.00  0.00    -0.463 OA
ATOM     25  C   UNL     1      34.730 -17.039 -23.196  0.00  0.00    +0.102 C 
ATOM     26  C   UNL     1      34.530 -18.877 -22.042  0.00  0.00    +0.133 C 
ATOM     27  C   UNL     1      35.035 -18.068 -24.058  0.00  0.00    +0.034 C 
ATOM     28  C   UNL     1      34.905 -19.261 -23.308  0.00  0.00    +0.037 C 
BRANCH  25  29
ATOM     29  C   UNL     1      34.679 -15.579 -23.351  0.00  0.00    -0.011 C 
BRANCH  29  30
ATOM     30  N   UNL     1      33.366 -15.128 -23.785  0.00  0.00    +0.389 N 
ATOM     31  C   UNL     1      33.355 -14.876 -25.229  0.00  0.00    -0.100 C 
ATOM     32  C   UNL     1      32.966 -13.921 -23.060  0.00  0.00    -0.100 C 
ATOM     33  H   UNL     1      32.695 -15.869 -23.580  0.00  0.00    -0.079 HD
ENDBRANCH  29  30
ENDBRANCH  25  29
ENDBRANCH  23  26
ENDBRANCH  22  23
ENDBRANCH  21  22
ENDBRANCH  20  21
ENDBRANCH  18  20
ENDBRANCH   1  18
TORSDOF 12
ENDMDL
MODEL 7
REMARK VINA RESULT:      -9.2      2.957      6.515
REMARK  Name = 66753191
REMARK  12 active torsions:
REMARK  status: ('A' for Active; 'I' for Inactive)
REMARK    1  A    between atoms: C_1  and  N_6
REMARK    2  A    between atoms: C_1  and  N_18
REMARK    3  A    between atoms: C_2  and  N_5
REMARK    4  A    between atoms: N_6  and  C_8
REMARK    5  A    between atoms: C_8  and  C_11
REMARK    6  A    between atoms: N_18  and  C_20
REMARK    7  A    between atoms: C_20  and  C_21
REMARK    8  A    between atoms: C_21  and  S_22
REMARK    9  A    between atoms: S_22  and  C_23
REMARK   10  A    between atoms: C_23  and  C_26
REMARK   11  A    between atoms: C_25  and  C_29
REMARK   12  A    between atoms: C_29  and  N_30
REMARK                            x       y       z     vdW  Elec       q    Type
REMARK                         _______ _______ _______ _____ _____    ______ ____
ROOT
ATOM      1  C   UNL     1      34.404 -23.059 -15.896  0.00  0.00    +0.118 C 
ATOM      2  C   UNL     1      33.190 -23.227 -16.467  0.00  0.00    +0.194 C 
ENDROOT
BRANCH   2   5
ATOM      3  O   UNL     1      32.343 -22.284 -18.354  0.00  0.00    -0.126 OA
ATOM      4  O   UNL     1      33.634 -24.060 -18.536  0.00  0.00    -0.126 OA
ATOM      5  N   UNL     1      33.047 -23.188 -17.878  0.00  0.00    +0.062 N 
ENDBRANCH   2   5
BRANCH   1   6
ATOM      6  N   UNL     1      34.492 -23.107 -14.501  0.00  0.00    -0.317 N 
ATOM      7  H   UNL     1      34.393 -22.246 -14.035  0.00  0.00    +0.148 HD
BRANCH   6   8
ATOM      8  C   UNL     1      34.708 -24.256 -13.654  0.00  0.00    +0.115 C 
BRANCH   8  11
ATOM      9  O   UNL     1      39.638 -24.660 -13.547  0.00  0.00    -0.435 OA
ATOM     10  O   UNL     1      39.621 -26.667 -14.881  0.00  0.00    -0.435 OA
ATOM     11  C   UNL     1      36.008 -24.929 -14.001  0.00  0.00    +0.001 C 
ATOM     12  C   UNL     1      38.378 -25.039 -13.894  0.00  0.00    +0.176 C 
ATOM     13  C   UNL     1      37.213 -24.387 -13.549  0.00  0.00    +0.038 C 
ATOM     14  C   UNL     1      38.368 -26.185 -14.655  0.00  0.00    +0.176 C 
ATOM     15  C   UNL     1      35.997 -26.100 -14.779  0.00  0.00    +0.001 C 
ATOM     16  C   UNL     1      37.192 -26.742 -15.115  0.00  0.00    +0.040 C 
ATOM     17  C   UNL     1      40.420 -25.696 -14.175  0.00  0.00    +0.429 C 
ENDBRANCH   8  11
ENDBRANCH   6   8
ENDBRANCH   1   6
BRANCH   1  18
ATOM     18  N   UNL     1      35.559 -22.841 -16.650  0.00  0.00    -0.319 N 
ATOM     19  H   UNL     1      35.717 -23.453 -17.404  0.00  0.00    +0.148 HD
BRANCH  18  20
ATOM     20  C   UNL     1      36.543 -21.806 -16.437  0.00  0.00    +0.100 C 
BRANCH  20  21
ATOM     21  C   UNL     1      37.190 -21.375 -17.747  0.00  0.00    +0.079 C 
BRANCH  21  22
ATOM     22  S   UNL     1      36.025 -21.428 -19.143  0.00  0.00    -0.130 S 
BRANCH  22  23
ATOM     23  C   UNL     1      36.837 -20.210 -20.203  0.00  0.00    +0.122 C 
BRANCH  23  26
ATOM     24  O   UNL     1      35.751 -18.063 -20.560  0.00  0.00    -0.463 OA
ATOM     25  C   UNL     1      34.815 -17.484 -21.358  0.00  0.00    +0.102 C 
ATOM     26  C   UNL     1      35.849 -19.361 -20.954  0.00  0.00    +0.133 C 
ATOM     27  C   UNL     1      34.315 -18.399 -22.257  0.00  0.00    +0.034 C 
ATOM     28  C   UNL     1      34.986 -19.616 -21.994  0.00  0.00    +0.037 C 
BRANCH  25  29
ATOM     29  C   UNL     1      34.539 -16.063 -21.111  0.00  0.00    -0.011 C 
BRANCH  29  30
ATOM     30  N   UNL     1      33.641 -15.505 -22.110  0.00  0.00    +0.389 N 
ATOM     31  C   UNL     1      34.380 -14.681 -23.070  0.00  0.00    -0.100 C 
ATOM     32  C   UNL     1      32.584 -14.715 -21.476  0.00  0.00    -0.100 C 
ATOM     33  H   UNL     1      33.210 -16.281 -22.613  0.00  0.00    -0.079 HD
ENDBRANCH  29  30
ENDBRANCH  25  29
ENDBRANCH  23  26
ENDBRANCH  22  23
ENDBRANCH  21  22
ENDBRANCH  20  21
ENDBRANCH  18  20
ENDBRANCH   1  18
TORSDOF 12
ENDMDL
MODEL 8
REMARK VINA RESULT:      -9.1      2.177      6.004
REMARK  Name = 66753191
REMARK  12 active torsions:
REMARK  status: ('A' for Active; 'I' for Inactive)
REMARK    1  A    between atoms: C_1  and  N_6
REMARK    2  A    between atoms: C_1  and  N_18
REMARK    3  A    between atoms: C_2  and  N_5
REMARK    4  A    between atoms: N_6  and  C_8
REMARK    5  A    between atoms: C_8  and  C_11
REMARK    6  A    between atoms: N_18  and  C_20
REMARK    7  A    between atoms: C_20  and  C_21
REMARK    8  A    between atoms: C_21  and  S_22
REMARK    9  A    between atoms: S_22  and  C_23
REMARK   10  A    between atoms: C_23  and  C_26
REMARK   11  A    between atoms: C_25  and  C_29
REMARK   12  A    between atoms: C_29  and  N_30
REMARK                            x       y       z     vdW  Elec       q    Type
REMARK                         _______ _______ _______ _____ _____    ______ ____
ROOT
ATOM      1  C   UNL     1      32.787 -24.109 -14.428  0.00  0.00    +0.118 C 
ATOM      2  C   UNL     1      31.488 -24.445 -14.265  0.00  0.00    +0.194 C 
ENDROOT
BRANCH   2   5
ATOM      3  O   UNL     1      30.082 -24.476 -16.051  0.00  0.00    -0.126 OA
ATOM      4  O   UNL     1      30.077 -22.721 -14.720  0.00  0.00    -0.126 OA
ATOM      5  N   UNL     1      30.483 -23.842 -15.064  0.00  0.00    +0.062 N 
ENDBRANCH   2   5
BRANCH   1   6
ATOM      6  N   UNL     1      33.740 -24.733 -13.616  0.00  0.00    -0.317 N 
ATOM      7  H   UNL     1      33.582 -25.685 -13.425  0.00  0.00    +0.148 HD
BRANCH   6   8
ATOM      8  C   UNL     1      34.926 -24.163 -13.022  0.00  0.00    +0.115 C 
BRANCH   8  11
ATOM      9  O   UNL     1      39.825 -24.682 -13.477  0.00  0.00    -0.435 OA
ATOM     10  O   UNL     1      39.606 -26.536 -15.001  0.00  0.00    -0.435 OA
ATOM     11  C   UNL     1      36.160 -24.824 -13.572  0.00  0.00    +0.001 C 
ATOM     12  C   UNL     1      38.524 -24.995 -13.727  0.00  0.00    +0.176 C 
ATOM     13  C   UNL     1      37.422 -24.358 -13.195  0.00  0.00    +0.038 C 
ATOM     14  C   UNL     1      38.399 -26.054 -14.596  0.00  0.00    +0.176 C 
ATOM     15  C   UNL     1      36.032 -25.905 -14.460  0.00  0.00    +0.001 C 
ATOM     16  C   UNL     1      37.164 -26.534 -14.984  0.00  0.00    +0.040 C 
ATOM     17  C   UNL     1      40.505 -25.663 -14.288  0.00  0.00    +0.429 C 
ENDBRANCH   8  11
ENDBRANCH   6   8
ENDBRANCH   1   6
BRANCH   1  18
ATOM     18  N   UNL     1      33.200 -23.168 -15.374  0.00  0.00    -0.319 N 
ATOM     19  H   UNL     1      32.909 -22.239 -15.230  0.00  0.00    +0.148 HD
BRANCH  18  20
ATOM     20  C   UNL     1      34.014 -23.420 -16.540  0.00  0.00    +0.100 C 
BRANCH  20  21
ATOM     21  C   UNL     1      35.392 -22.784 -16.404  0.00  0.00    +0.079 C 
BRANCH  21  22
ATOM     22  S   UNL     1      35.964 -22.036 -17.962  0.00  0.00    -0.130 S 
BRANCH  22  23
ATOM     23  C   UNL     1      34.513 -22.407 -18.973  0.00  0.00    +0.122 C 
BRANCH  23  26
ATOM     24  O   UNL     1      35.086 -20.580 -20.473  0.00  0.00    -0.463 OA
ATOM     25  C   UNL     1      34.495 -19.569 -21.164  0.00  0.00    +0.102 C 
ATOM     26  C   UNL     1      34.093 -21.235 -19.816  0.00  0.00    +0.133 C 
ATOM     27  C   UNL     1      33.134 -19.574 -20.956  0.00  0.00    +0.034 C 
ATOM     28  C   UNL     1      32.874 -20.655 -20.081  0.00  0.00    +0.037 C 
BRANCH  25  29
ATOM     29  C   UNL     1      35.387 -18.715 -21.959  0.00  0.00    -0.011 C 
BRANCH  29  30
ATOM     30  N   UNL     1      34.644 -17.779 -22.786  0.00  0.00    +0.389 N 
ATOM     31  C   UNL     1      34.943 -17.988 -24.205  0.00  0.00    -0.100 C 
ATOM     32  C   UNL     1      34.944 -16.397 -22.406  0.00  0.00    -0.100 C 
ATOM     33  H   UNL     1      33.648 -17.948 -22.636  0.00  0.00    -0.079 HD
ENDBRANCH  29  30
ENDBRANCH  25  29
ENDBRANCH  23  26
ENDBRANCH  22  23
ENDBRANCH  21  22
ENDBRANCH  20  21
ENDBRANCH  18  20
ENDBRANCH   1  18
TORSDOF 12
ENDMDL
MODEL 9
REMARK VINA RESULT:      -9.1      3.637      6.063
REMARK  Name = 66753191
REMARK  12 active torsions:
REMARK  status: ('A' for Active; 'I' for Inactive)
REMARK    1  A    between atoms: C_1  and  N_6
REMARK    2  A    between atoms: C_1  and  N_18
REMARK    3  A    between atoms: C_2  and  N_5
REMARK    4  A    between atoms: N_6  and  C_8
REMARK    5  A    between atoms: C_8  and  C_11
REMARK    6  A    between atoms: N_18  and  C_20
REMARK    7  A    between atoms: C_20  and  C_21
REMARK    8  A    between atoms: C_21  and  S_22
REMARK    9  A    between atoms: S_22  and  C_23
REMARK   10  A    between atoms: C_23  and  C_26
REMARK   11  A    between atoms: C_25  and  C_29
REMARK   12  A    between atoms: C_29  and  N_30
REMARK                            x       y       z     vdW  Elec       q    Type
REMARK                         _______ _______ _______ _____ _____    ______ ____
ROOT
ATOM      1  C   UNL     1      34.433 -22.176 -18.586  0.00  0.00    +0.118 C 
ATOM      2  C   UNL     1      35.655 -22.129 -18.013  0.00  0.00    +0.194 C 
ENDROOT
BRANCH   2   5
ATOM      3  O   UNL     1      37.170 -20.441 -17.847  0.00  0.00    -0.126 OA
ATOM      4  O   UNL     1      37.014 -21.553 -19.742  0.00  0.00    -0.126 OA
ATOM      5  N   UNL     1      36.681 -21.322 -18.571  0.00  0.00    +0.062 N 
ENDBRANCH   2   5
BRANCH   1   6
ATOM      6  N   UNL     1      33.456 -22.986 -17.997  0.00  0.00    -0.317 N 
ATOM      7  H   UNL     1      32.764 -23.333 -18.605  0.00  0.00    +0.148 HD
BRANCH   6   8
ATOM      8  C   UNL     1      33.330 -23.380 -16.614  0.00  0.00    +0.115 C 
BRANCH   8  11
ATOM      9  O   UNL     1      28.593 -22.035 -17.094  0.00  0.00    -0.435 OA
ATOM     10  O   UNL     1      27.914 -23.305 -15.162  0.00  0.00    -0.435 OA
ATOM     11  C   UNL     1      31.885 -23.383 -16.196  0.00  0.00    +0.001 C 
ATOM     12  C   UNL     1      29.637 -22.683 -16.508  0.00  0.00    +0.176 C 
ATOM     13  C   UNL     1      30.950 -22.651 -16.931  0.00  0.00    +0.038 C 
ATOM     14  C   UNL     1      29.249 -23.409 -15.405  0.00  0.00    +0.176 C 
ATOM     15  C   UNL     1      31.490 -24.124 -15.069  0.00  0.00    +0.001 C 
ATOM     16  C   UNL     1      30.153 -24.140 -14.662  0.00  0.00    +0.040 C 
ATOM     17  C   UNL     1      27.505 -22.434 -16.236  0.00  0.00    +0.429 C 
ENDBRANCH   8  11
ENDBRANCH   6   8
ENDBRANCH   1   6
BRANCH   1  18
ATOM     18  N   UNL     1      34.119 -21.447 -19.735  0.00  0.00    -0.319 N 
ATOM     19  H   UNL     1      34.817 -21.388 -20.426  0.00  0.00    +0.148 HD
BRANCH  18  20
ATOM     20  C   UNL     1      32.873 -20.772 -20.013  0.00  0.00    +0.100 C 
BRANCH  20  21
ATOM     21  C   UNL     1      33.095 -19.510 -20.836  0.00  0.00    +0.079 C 
BRANCH  21  22
ATOM     22  S   UNL     1      34.861 -19.164 -21.108  0.00  0.00    -0.130 S 
BRANCH  22  23
ATOM     23  C   UNL     1      34.904 -19.435 -22.894  0.00  0.00    +0.122 C 
BRANCH  23  26
ATOM     24  O   UNL     1      34.706 -17.011 -22.944  0.00  0.00    -0.463 OA
ATOM     25  C   UNL     1      34.505 -15.996 -23.825  0.00  0.00    +0.102 C 
ATOM     26  C   UNL     1      34.698 -18.162 -23.667  0.00  0.00    +0.133 C 
ATOM     27  C   UNL     1      34.369 -16.487 -25.104  0.00  0.00    +0.034 C 
ATOM     28  C   UNL     1      34.493 -17.893 -25.000  0.00  0.00    +0.037 C 
BRANCH  25  29
ATOM     29  C   UNL     1      34.476 -14.640 -23.261  0.00  0.00    -0.011 C 
BRANCH  29  30
ATOM     30  N   UNL     1      33.304 -13.898 -23.698  0.00  0.00    +0.389 N 
ATOM     31  C   UNL     1      33.689 -12.595 -24.246  0.00  0.00    -0.100 C 
ATOM     32  C   UNL     1      32.359 -13.721 -22.594  0.00  0.00    -0.100 C 
ATOM     33  H   UNL     1      32.847 -14.437 -24.434  0.00  0.00    -0.079 HD
ENDBRANCH  29  30
ENDBRANCH  25  29
ENDBRANCH  23  26
ENDBRANCH  22  23
ENDBRANCH  21  22
ENDBRANCH  20  21
ENDBRANCH  18  20
ENDBRANCH   1  18
TORSDOF 12
ENDMDL
