MODEL 1
REMARK VINA RESULT:     -10.2      0.000      0.000
REMARK  Name = 219095
REMARK  7 active torsions:
REMARK  status: ('A' for Active; 'I' for Inactive)
REMARK    1  A    between atoms: C_7  and  C_29
REMARK    2  A    between atoms: C_8  and  O_21
REMARK    3  A    between atoms: C_9  and  C_16
REMARK    4  A    between atoms: C_16  and  O_17
REMARK    5  A    between atoms: O_17  and  C_18
REMARK    6  A    between atoms: O_21  and  C_23
REMARK    7  A    between atoms: C_29  and  O_30
REMARK                            x       y       z     vdW  Elec       q    Type
REMARK                         _______ _______ _______ _____ _____    ______ ____
ROOT
ATOM      1  N   UNL     1      32.479 -23.912 -13.474  0.00  0.00    -0.355 N 
ATOM      2  N   UNL     1      35.891 -24.113 -12.089  0.00  0.00    -0.261 NA
ATOM      3  C   UNL     1      34.469 -23.634 -14.443  0.00  0.00    +0.003 A 
ATOM      4  C   UNL     1      33.449 -23.448 -15.429  0.00  0.00    +0.048 A 
ATOM      5  C   UNL     1      33.831 -23.922 -13.236  0.00  0.00    +0.055 A 
ATOM      6  C   UNL     1      32.218 -23.627 -14.794  0.00  0.00    +0.059 A 
ATOM      7  C   UNL     1      35.871 -23.587 -14.463  0.00  0.00    +0.099 C 
ATOM      8  C   UNL     1      33.458 -23.142 -16.806  0.00  0.00    +0.146 C 
ATOM      9  C   UNL     1      36.513 -23.835 -13.257  0.00  0.00    +0.136 C 
ATOM     10  C   UNL     1      34.539 -24.160 -12.065  0.00  0.00    +0.168 C 
ATOM     11  C   UNL     1      30.996 -23.515 -15.467  0.00  0.00    +0.017 C 
ATOM     12  C   UNL     1      32.244 -23.028 -17.492  0.00  0.00    +0.038 C 
ATOM     13  C   UNL     1      31.032 -23.212 -16.831  0.00  0.00    +0.005 C 
ATOM     14  H   UNL     1      31.789 -24.085 -12.792  0.00  0.00    +0.166 HD
ENDROOT
BRANCH   9  16
ATOM     15  O   UNL     1      38.597 -23.279 -12.242  0.00  0.00    -0.244 OA
ATOM     16  C   UNL     1      37.967 -23.812 -13.162  0.00  0.00    +0.355 C 
BRANCH  16  17
ATOM     17  O   UNL     1      38.548 -24.457 -14.219  0.00  0.00    -0.448 OA
BRANCH  17  18
ATOM     18  C   UNL     1      38.918 -25.826 -14.013  0.00  0.00    +0.169 C 
ATOM     19  C   UNL     1      40.347 -26.036 -14.489  0.00  0.00    +0.047 C 
ATOM     20  C   UNL     1      37.936 -26.725 -14.748  0.00  0.00    +0.047 C 
ENDBRANCH  17  18
ENDBRANCH  16  17
ENDBRANCH   9  16
BRANCH   8  21
ATOM     21  O   UNL     1      34.615 -22.950 -17.517  0.00  0.00    -0.453 OA
BRANCH  21  23
ATOM     22 CL   UNL     1      34.423 -19.190 -22.022  0.00  0.00    -0.082 Cl
ATOM     23  C   UNL     1      34.569 -22.065 -18.574  0.00  0.00    +0.145 C 
ATOM     24  C   UNL     1      33.340 -21.624 -19.037  0.00  0.00    +0.038 C 
ATOM     25  C   UNL     1      35.754 -21.638 -19.152  0.00  0.00    +0.038 C 
ATOM     26  C   UNL     1      33.295 -20.730 -20.108  0.00  0.00    +0.015 C 
ATOM     27  C   UNL     1      35.708 -20.745 -20.223  0.00  0.00    +0.015 C 
ATOM     28  C   UNL     1      34.479 -20.291 -20.700  0.00  0.00    +0.058 C 
ENDBRANCH  21  23
ENDBRANCH   8  21
BRANCH   7  29
ATOM     29  C   UNL     1      36.689 -23.292 -15.678  0.00  0.00    +0.153 C 
BRANCH  29  30
ATOM     30  O   UNL     1      36.768 -21.878 -15.798  0.00  0.00    -0.350 OA
ATOM     31  C   UNL     1      37.895 -21.483 -16.567  0.00  0.00    +0.174 C 
ENDBRANCH  29  30
ENDBRANCH   7  29
TORSDOF 7
ENDMDL
MODEL 2
REMARK VINA RESULT:     -10.1     12.315     16.267
REMARK  Name = 219095
REMARK  7 active torsions:
REMARK  status: ('A' for Active; 'I' for Inactive)
REMARK    1  A    between atoms: C_7  and  C_29
REMARK    2  A    between atoms: C_8  and  O_21
REMARK    3  A    between atoms: C_9  and  C_16
REMARK    4  A    between atoms: C_16  and  O_17
REMARK    5  A    between atoms: O_17  and  C_18
REMARK    6  A    between atoms: O_21  and  C_23
REMARK    7  A    between atoms: C_29  and  O_30
REMARK                            x       y       z     vdW  Elec       q    Type
REMARK                         _______ _______ _______ _____ _____    ______ ____
ROOT
ATOM      1  N   UNL     1      31.751  -9.289 -20.038  0.00  0.00    -0.355 N 
ATOM      2  N   UNL     1      32.693  -6.529 -22.296  0.00  0.00    -0.261 NA
ATOM      3  C   UNL     1      32.546  -9.311 -22.122  0.00  0.00    +0.003 A 
ATOM      4  C   UNL     1      32.344 -10.661 -21.693  0.00  0.00    +0.048 A 
ATOM      5  C   UNL     1      32.167  -8.480 -21.067  0.00  0.00    +0.055 A 
ATOM      6  C   UNL     1      31.847 -10.614 -20.389  0.00  0.00    +0.059 A 
ATOM      7  C   UNL     1      33.016  -8.718 -23.303  0.00  0.00    +0.099 C 
ATOM      8  C   UNL     1      32.538 -11.922 -22.296  0.00  0.00    +0.146 C 
ATOM      9  C   UNL     1      33.063  -7.331 -23.320  0.00  0.00    +0.136 C 
ATOM     10  C   UNL     1      32.241  -7.096 -21.154  0.00  0.00    +0.168 C 
ATOM     11  C   UNL     1      31.534 -11.766 -19.657  0.00  0.00    +0.017 C 
ATOM     12  C   UNL     1      32.230 -13.081 -21.576  0.00  0.00    +0.038 C 
ATOM     13  C   UNL     1      31.735 -13.003 -20.276  0.00  0.00    +0.005 C 
ATOM     14  H   UNL     1      31.427  -8.962 -19.166  0.00  0.00    +0.166 HD
ENDROOT
BRANCH   9  16
ATOM     15  O   UNL     1      34.725  -6.471 -24.797  0.00  0.00    -0.244 OA
ATOM     16  C   UNL     1      33.534  -6.610 -24.495  0.00  0.00    +0.355 C 
BRANCH  16  17
ATOM     17  O   UNL     1      32.493  -6.108 -25.226  0.00  0.00    -0.448 OA
BRANCH  17  18
ATOM     18  C   UNL     1      32.432  -4.684 -25.366  0.00  0.00    +0.169 C 
ATOM     19  C   UNL     1      31.053  -4.197 -24.948  0.00  0.00    +0.047 C 
ATOM     20  C   UNL     1      32.755  -4.309 -26.804  0.00  0.00    +0.047 C 
ENDBRANCH  17  18
ENDBRANCH  16  17
ENDBRANCH   9  16
BRANCH   8  21
ATOM     21  O   UNL     1      33.022 -12.071 -23.569  0.00  0.00    -0.453 OA
BRANCH  21  23
ATOM     22 CL   UNL     1      34.612 -17.473 -25.229  0.00  0.00    -0.082 Cl
ATOM     23  C   UNL     1      33.397 -13.340 -23.961  0.00  0.00    +0.145 C 
ATOM     24  C   UNL     1      32.904 -13.857 -25.147  0.00  0.00    +0.038 C 
ATOM     25  C   UNL     1      34.257 -14.071 -23.157  0.00  0.00    +0.038 C 
ATOM     26  C   UNL     1      33.282 -15.141 -25.542  0.00  0.00    +0.015 C 
ATOM     27  C   UNL     1      34.635 -15.355 -23.551  0.00  0.00    +0.015 C 
ATOM     28  C   UNL     1      34.148 -15.889 -24.743  0.00  0.00    +0.058 C 
ENDBRANCH  21  23
ENDBRANCH   8  21
BRANCH   7  29
ATOM     29  C   UNL     1      33.456  -9.477 -24.513  0.00  0.00    +0.153 C 
BRANCH  29  30
ATOM     30  O   UNL     1      34.851  -9.712 -24.377  0.00  0.00    -0.350 OA
ATOM     31  C   UNL     1      35.404 -10.269 -25.561  0.00  0.00    +0.174 C 
ENDBRANCH  29  30
ENDBRANCH   7  29
TORSDOF 7
ENDMDL
MODEL 3
REMARK VINA RESULT:     -10.0     11.950     15.340
REMARK  Name = 219095
REMARK  7 active torsions:
REMARK  status: ('A' for Active; 'I' for Inactive)
REMARK    1  A    between atoms: C_7  and  C_29
REMARK    2  A    between atoms: C_8  and  O_21
REMARK    3  A    between atoms: C_9  and  C_16
REMARK    4  A    between atoms: C_16  and  O_17
REMARK    5  A    between atoms: O_17  and  C_18
REMARK    6  A    between atoms: O_21  and  C_23
REMARK    7  A    between atoms: C_29  and  O_30
REMARK                            x       y       z     vdW  Elec       q    Type
REMARK                         _______ _______ _______ _____ _____    ______ ____
ROOT
ATOM      1  N   UNL     1      31.664 -11.109 -19.916  0.00  0.00    -0.355 N 
ATOM      2  N   UNL     1      32.291 -13.930 -22.207  0.00  0.00    -0.261 NA
ATOM      3  C   UNL     1      32.431 -11.149 -22.011  0.00  0.00    +0.003 A 
ATOM      4  C   UNL     1      32.371  -9.789 -21.569  0.00  0.00    +0.048 A 
ATOM      5  C   UNL     1      31.983 -11.946 -20.957  0.00  0.00    +0.055 A 
ATOM      6  C   UNL     1      31.890  -9.797 -20.259  0.00  0.00    +0.059 A 
ATOM      7  C   UNL     1      32.820 -11.776 -23.204  0.00  0.00    +0.099 C 
ATOM      8  C   UNL     1      32.684  -8.549 -22.166  0.00  0.00    +0.146 C 
ATOM      9  C   UNL     1      32.725 -13.161 -23.232  0.00  0.00    +0.136 C 
ATOM     10  C   UNL     1      31.914 -13.330 -21.056  0.00  0.00    +0.168 C 
ATOM     11  C   UNL     1      31.706  -8.626 -19.514  0.00  0.00    +0.017 C 
ATOM     12  C   UNL     1      32.505  -7.371 -21.433  0.00  0.00    +0.038 C 
ATOM     13  C   UNL     1      32.022  -7.411 -20.127  0.00  0.00    +0.005 C 
ATOM     14  H   UNL     1      31.321 -11.408 -19.043  0.00  0.00    +0.166 HD
ENDROOT
BRANCH   9  16
ATOM     15  O   UNL     1      32.435 -13.958 -25.460  0.00  0.00    -0.244 OA
ATOM     16  C   UNL     1      33.102 -13.916 -24.419  0.00  0.00    +0.355 C 
BRANCH  16  17
ATOM     17  O   UNL     1      34.290 -14.569 -24.241  0.00  0.00    -0.448 OA
BRANCH  17  18
ATOM     18  C   UNL     1      34.220 -15.981 -24.010  0.00  0.00    +0.169 C 
ATOM     19  C   UNL     1      35.036 -16.329 -22.775  0.00  0.00    +0.047 C 
ATOM     20  C   UNL     1      34.719 -16.715 -25.246  0.00  0.00    +0.047 C 
ENDBRANCH  17  18
ENDBRANCH  16  17
ENDBRANCH   9  16
BRANCH   8  21
ATOM     21  O   UNL     1      33.161  -8.440 -23.446  0.00  0.00    -0.453 OA
BRANCH  21  23
ATOM     22 CL   UNL     1      31.911  -3.511 -26.382  0.00  0.00    -0.082 Cl
ATOM     23  C   UNL     1      32.867  -7.280 -24.135  0.00  0.00    +0.145 C 
ATOM     24  C   UNL     1      31.566  -6.805 -24.139  0.00  0.00    +0.038 C 
ATOM     25  C   UNL     1      33.880  -6.617 -24.809  0.00  0.00    +0.038 C 
ATOM     26  C   UNL     1      31.269  -5.634 -24.837  0.00  0.00    +0.015 C 
ATOM     27  C   UNL     1      33.583  -5.446 -25.507  0.00  0.00    +0.015 C 
ATOM     28  C   UNL     1      32.277  -4.955 -25.520  0.00  0.00    +0.058 C 
ENDBRANCH  21  23
ENDBRANCH   8  21
BRANCH   7  29
ATOM     29  C   UNL     1      33.319 -11.055 -24.414  0.00  0.00    +0.153 C 
BRANCH  29  30
ATOM     30  O   UNL     1      34.726 -10.916 -24.269  0.00  0.00    -0.350 OA
ATOM     31  C   UNL     1      35.321 -10.389 -25.446  0.00  0.00    +0.174 C 
ENDBRANCH  29  30
ENDBRANCH   7  29
TORSDOF 7
ENDMDL
MODEL 4
REMARK VINA RESULT:      -9.9     10.952     14.370
REMARK  Name = 219095
REMARK  7 active torsions:
REMARK  status: ('A' for Active; 'I' for Inactive)
REMARK    1  A    between atoms: C_7  and  C_29
REMARK    2  A    between atoms: C_8  and  O_21
REMARK    3  A    between atoms: C_9  and  C_16
REMARK    4  A    between atoms: C_16  and  O_17
REMARK    5  A    between atoms: O_17  and  C_18
REMARK    6  A    between atoms: O_21  and  C_23
REMARK    7  A    between atoms: C_29  and  O_30
REMARK                            x       y       z     vdW  Elec       q    Type
REMARK                         _______ _______ _______ _____ _____    ______ ____
ROOT
ATOM      1  N   UNL     1      31.924 -12.645 -19.797  0.00  0.00    -0.355 N 
ATOM      2  N   UNL     1      32.868 -15.214 -22.269  0.00  0.00    -0.261 NA
ATOM      3  C   UNL     1      32.489 -12.468 -21.948  0.00  0.00    +0.003 A 
ATOM      4  C   UNL     1      32.211 -11.160 -21.436  0.00  0.00    +0.048 A 
ATOM      5  C   UNL     1      32.301 -13.370 -20.901  0.00  0.00    +0.055 A 
ATOM      6  C   UNL     1      31.862 -11.304 -20.092  0.00  0.00    +0.059 A 
ATOM      7  C   UNL     1      32.880 -12.968 -23.198  0.00  0.00    +0.099 C 
ATOM      8  C   UNL     1      32.224  -9.864 -21.995  0.00  0.00    +0.146 C 
ATOM      9  C   UNL     1      33.050 -14.343 -23.287  0.00  0.00    +0.136 C 
ATOM     10  C   UNL     1      32.489 -14.737 -21.061  0.00  0.00    +0.168 C 
ATOM     11  C   UNL     1      31.526 -10.216 -19.278  0.00  0.00    +0.017 C 
ATOM     12  C   UNL     1      31.890  -8.768 -21.193  0.00  0.00    +0.038 C 
ATOM     13  C   UNL     1      31.546  -8.943 -19.855  0.00  0.00    +0.005 C 
ATOM     14  H   UNL     1      31.726 -13.034 -18.913  0.00  0.00    +0.166 HD
ENDROOT
BRANCH   9  16
ATOM     15  O   UNL     1      32.830 -14.873 -25.600  0.00  0.00    -0.244 OA
ATOM     16  C   UNL     1      33.454 -14.971 -24.537  0.00  0.00    +0.355 C 
BRANCH  16  17
ATOM     17  O   UNL     1      34.614 -15.680 -24.390  0.00  0.00    -0.448 OA
BRANCH  17  18
ATOM     18  C   UNL     1      34.484 -17.053 -24.003  0.00  0.00    +0.169 C 
ATOM     19  C   UNL     1      35.563 -17.391 -22.986  0.00  0.00    +0.047 C 
ATOM     20  C   UNL     1      34.576 -17.932 -25.241  0.00  0.00    +0.047 C 
ENDBRANCH  17  18
ENDBRANCH  16  17
ENDBRANCH   9  16
BRANCH   8  21
ATOM     21  O   UNL     1      32.551  -9.623 -23.304  0.00  0.00    -0.453 OA
BRANCH  21  23
ATOM     22 CL   UNL     1      32.153  -4.078 -25.194  0.00  0.00    -0.082 Cl
ATOM     23  C   UNL     1      32.458  -8.320 -23.750  0.00  0.00    +0.145 C 
ATOM     24  C   UNL     1      33.618  -7.605 -24.004  0.00  0.00    +0.038 C 
ATOM     25  C   UNL     1      31.207  -7.754 -23.932  0.00  0.00    +0.038 C 
ATOM     26  C   UNL     1      33.523  -6.288 -24.453  0.00  0.00    +0.015 C 
ATOM     27  C   UNL     1      31.112  -6.436 -24.381  0.00  0.00    +0.015 C 
ATOM     28  C   UNL     1      32.270  -5.704 -24.642  0.00  0.00    +0.058 C 
ENDBRANCH  21  23
ENDBRANCH   8  21
BRANCH   7  29
ATOM     29  C   UNL     1      33.118 -12.125 -24.409  0.00  0.00    +0.153 C 
BRANCH  29  30
ATOM     30  O   UNL     1      34.477 -11.712 -24.372  0.00  0.00    -0.350 OA
ATOM     31  C   UNL     1      34.814 -10.924 -25.506  0.00  0.00    +0.174 C 
ENDBRANCH  29  30
ENDBRANCH   7  29
TORSDOF 7
ENDMDL
MODEL 5
REMARK VINA RESULT:      -9.8      8.550     12.258
REMARK  Name = 219095
REMARK  7 active torsions:
REMARK  status: ('A' for Active; 'I' for Inactive)
REMARK    1  A    between atoms: C_7  and  C_29
REMARK    2  A    between atoms: C_8  and  O_21
REMARK    3  A    between atoms: C_9  and  C_16
REMARK    4  A    between atoms: C_16  and  O_17
REMARK    5  A    between atoms: O_17  and  C_18
REMARK    6  A    between atoms: O_21  and  C_23
REMARK    7  A    between atoms: C_29  and  O_30
REMARK                            x       y       z     vdW  Elec       q    Type
REMARK                         _______ _______ _______ _____ _____    ______ ____
ROOT
ATOM      1  N   UNL     1      33.797 -16.094 -26.429  0.00  0.00    -0.355 N 
ATOM      2  N   UNL     1      34.514 -18.178 -23.472  0.00  0.00    -0.261 NA
ATOM      3  C   UNL     1      33.987 -15.556 -24.272  0.00  0.00    +0.003 A 
ATOM      4  C   UNL     1      33.700 -14.369 -25.017  0.00  0.00    +0.048 A 
ATOM      5  C   UNL     1      34.041 -16.613 -25.181  0.00  0.00    +0.055 A 
ATOM      6  C   UNL     1      33.586 -14.737 -26.359  0.00  0.00    +0.059 A 
ATOM      7  C   UNL     1      34.208 -15.831 -22.914  0.00  0.00    +0.099 C 
ATOM      8  C   UNL     1      33.525 -13.012 -24.673  0.00  0.00    +0.146 C 
ATOM      9  C   UNL     1      34.464 -17.156 -22.587  0.00  0.00    +0.136 C 
ATOM     10  C   UNL     1      34.303 -17.917 -24.782  0.00  0.00    +0.168 C 
ATOM     11  C   UNL     1      33.306 -13.815 -27.375  0.00  0.00    +0.017 C 
ATOM     12  C   UNL     1      33.245 -12.080 -25.678  0.00  0.00    +0.038 C 
ATOM     13  C   UNL     1      33.138 -12.477 -27.008  0.00  0.00    +0.005 C 
ATOM     14  H   UNL     1      33.775 -16.622 -27.260  0.00  0.00    +0.166 HD
ENDROOT
BRANCH   9  16
ATOM     15  O   UNL     1      35.674 -17.181 -20.534  0.00  0.00    -0.244 OA
ATOM     16  C   UNL     1      34.708 -17.556 -21.208  0.00  0.00    +0.355 C 
BRANCH  16  17
ATOM     17  O   UNL     1      33.730 -18.395 -20.749  0.00  0.00    -0.448 OA
BRANCH  17  18
ATOM     18  C   UNL     1      33.943 -19.798 -20.943  0.00  0.00    +0.169 C 
ATOM     19  C   UNL     1      32.913 -20.577 -20.140  0.00  0.00    +0.047 C 
ATOM     20  C   UNL     1      35.366 -20.149 -20.534  0.00  0.00    +0.047 C 
ENDBRANCH  17  18
ENDBRANCH  16  17
ENDBRANCH   9  16
BRANCH   8  21
ATOM     21  O   UNL     1      33.619 -12.554 -23.384  0.00  0.00    -0.453 OA
BRANCH  21  23
ATOM     22 CL   UNL     1      31.453  -7.213 -22.265  0.00  0.00    -0.082 Cl
ATOM     23  C   UNL     1      33.110 -11.298 -23.119  0.00  0.00    +0.145 C 
ATOM     24  C   UNL     1      31.920 -11.183 -22.420  0.00  0.00    +0.038 C 
ATOM     25  C   UNL     1      33.800 -10.181 -23.561  0.00  0.00    +0.038 C 
ATOM     26  C   UNL     1      31.405  -9.913 -22.154  0.00  0.00    +0.015 C 
ATOM     27  C   UNL     1      33.286  -8.912 -23.295  0.00  0.00    +0.015 C 
ATOM     28  C   UNL     1      32.089  -8.778 -22.591  0.00  0.00    +0.058 C 
ENDBRANCH  21  23
ENDBRANCH   8  21
BRANCH   7  29
ATOM     29  C   UNL     1      34.182 -14.805 -21.829  0.00  0.00    +0.153 C 
BRANCH  29  30
ATOM     30  O   UNL     1      32.819 -14.595 -21.481  0.00  0.00    -0.350 OA
ATOM     31  C   UNL     1      32.567 -14.947 -20.128  0.00  0.00    +0.174 C 
ENDBRANCH  29  30
ENDBRANCH   7  29
TORSDOF 7
ENDMDL
MODEL 6
REMARK VINA RESULT:      -9.6      3.441      6.381
REMARK  Name = 219095
REMARK  7 active torsions:
REMARK  status: ('A' for Active; 'I' for Inactive)
REMARK    1  A    between atoms: C_7  and  C_29
REMARK    2  A    between atoms: C_8  and  O_21
REMARK    3  A    between atoms: C_9  and  C_16
REMARK    4  A    between atoms: C_16  and  O_17
REMARK    5  A    between atoms: O_17  and  C_18
REMARK    6  A    between atoms: O_21  and  C_23
REMARK    7  A    between atoms: C_29  and  O_30
REMARK                            x       y       z     vdW  Elec       q    Type
REMARK                         _______ _______ _______ _____ _____    ______ ____
ROOT
ATOM      1  N   UNL     1      36.426 -22.843 -14.398  0.00  0.00    -0.355 N 
ATOM      2  N   UNL     1      37.141 -21.415 -17.722  0.00  0.00    -0.261 NA
ATOM      3  C   UNL     1      35.198 -22.785 -16.259  0.00  0.00    +0.003 A 
ATOM      4  C   UNL     1      34.456 -23.462 -15.240  0.00  0.00    +0.048 A 
ATOM      5  C   UNL     1      36.422 -22.412 -15.702  0.00  0.00    +0.055 A 
ATOM      6  C   UNL     1      35.248 -23.481 -14.091  0.00  0.00    +0.059 A 
ATOM      7  C   UNL     1      34.948 -22.457 -17.600  0.00  0.00    +0.099 C 
ATOM      8  C   UNL     1      33.179 -24.060 -15.189  0.00  0.00    +0.146 C 
ATOM      9  C   UNL     1      35.957 -21.776 -18.267  0.00  0.00    +0.136 C 
ATOM     10  C   UNL     1      37.388 -21.731 -16.430  0.00  0.00    +0.168 C 
ATOM     11  C   UNL     1      34.827 -24.069 -12.892  0.00  0.00    +0.017 C 
ATOM     12  C   UNL     1      32.746 -24.652 -13.998  0.00  0.00    +0.038 C 
ATOM     13  C   UNL     1      33.559 -24.656 -12.868  0.00  0.00    +0.005 C 
ATOM     14  H   UNL     1      37.172 -22.711 -13.768  0.00  0.00    +0.166 HD
ENDROOT
BRANCH   9  16
ATOM     15  O   UNL     1      36.259 -22.023 -20.619  0.00  0.00    -0.244 OA
ATOM     16  C   UNL     1      35.804 -21.385 -19.662  0.00  0.00    +0.355 C 
BRANCH  16  17
ATOM     17  O   UNL     1      35.091 -20.225 -19.782  0.00  0.00    -0.448 OA
BRANCH  17  18
ATOM     18  C   UNL     1      34.295 -20.077 -20.963  0.00  0.00    +0.169 C 
ATOM     19  C   UNL     1      34.742 -18.835 -21.718  0.00  0.00    +0.047 C 
ATOM     20  C   UNL     1      32.827 -20.005 -20.571  0.00  0.00    +0.047 C 
ENDBRANCH  17  18
ENDBRANCH  16  17
ENDBRANCH   9  16
BRANCH   8  21
ATOM     21  O   UNL     1      32.330 -24.093 -16.265  0.00  0.00    -0.453 OA
BRANCH  21  23
ATOM     22 CL   UNL     1      26.817 -22.262 -15.413  0.00  0.00    -0.082 Cl
ATOM     23  C   UNL     1      31.034 -23.664 -16.063  0.00  0.00    +0.145 C 
ATOM     24  C   UNL     1      29.983 -24.499 -16.403  0.00  0.00    +0.038 C 
ATOM     25  C   UNL     1      30.813 -22.406 -15.528  0.00  0.00    +0.038 C 
ATOM     26  C   UNL     1      28.672 -24.064 -16.201  0.00  0.00    +0.015 C 
ATOM     27  C   UNL     1      29.503 -21.970 -15.325  0.00  0.00    +0.015 C 
ATOM     28  C   UNL     1      28.433 -22.800 -15.661  0.00  0.00    +0.058 C 
ENDBRANCH  21  23
ENDBRANCH   8  21
BRANCH   7  29
ATOM     29  C   UNL     1      33.687 -22.790 -18.330  0.00  0.00    +0.153 C 
BRANCH  29  30
ATOM     30  O   UNL     1      33.738 -24.175 -18.645  0.00  0.00    -0.350 OA
ATOM     31  C   UNL     1      33.975 -24.385 -20.030  0.00  0.00    +0.174 C 
ENDBRANCH  29  30
ENDBRANCH   7  29
TORSDOF 7
ENDMDL
MODEL 7
REMARK VINA RESULT:      -9.5      7.420     11.886
REMARK  Name = 219095
REMARK  7 active torsions:
REMARK  status: ('A' for Active; 'I' for Inactive)
REMARK    1  A    between atoms: C_7  and  C_29
REMARK    2  A    between atoms: C_8  and  O_21
REMARK    3  A    between atoms: C_9  and  C_16
REMARK    4  A    between atoms: C_16  and  O_17
REMARK    5  A    between atoms: O_17  and  C_18
REMARK    6  A    between atoms: O_21  and  C_23
REMARK    7  A    between atoms: C_29  and  O_30
REMARK                            x       y       z     vdW  Elec       q    Type
REMARK                         _______ _______ _______ _____ _____    ______ ____
ROOT
ATOM      1  N   UNL     1      33.971 -15.686 -25.485  0.00  0.00    -0.355 N 
ATOM      2  N   UNL     1      32.551 -12.895 -23.536  0.00  0.00    -0.261 NA
ATOM      3  C   UNL     1      33.477 -15.519 -23.316  0.00  0.00    +0.003 A 
ATOM      4  C   UNL     1      34.009 -16.823 -23.567  0.00  0.00    +0.048 A 
ATOM      5  C   UNL     1      33.467 -14.835 -24.532  0.00  0.00    +0.055 A 
ATOM      6  C   UNL     1      34.308 -16.897 -24.928  0.00  0.00    +0.059 A 
ATOM      7  C   UNL     1      33.003 -14.857 -22.174  0.00  0.00    +0.099 C 
ATOM      8  C   UNL     1      34.264 -17.952 -22.758  0.00  0.00    +0.146 C 
ATOM      9  C   UNL     1      32.558 -13.554 -22.356  0.00  0.00    +0.136 C 
ATOM     10  C   UNL     1      33.006 -13.530 -24.641  0.00  0.00    +0.168 C 
ATOM     11  C   UNL     1      34.850 -18.042 -25.523  0.00  0.00    +0.017 C 
ATOM     12  C   UNL     1      34.806 -19.103 -23.340  0.00  0.00    +0.038 C 
ATOM     13  C   UNL     1      35.093 -19.146 -24.702  0.00  0.00    +0.005 C 
ATOM     14  H   UNL     1      34.077 -15.458 -26.438  0.00  0.00    +0.166 HD
ENDROOT
BRANCH   9  16
ATOM     15  O   UNL     1      32.253 -13.038 -20.049  0.00  0.00    -0.244 OA
ATOM     16  C   UNL     1      32.045 -12.773 -21.239  0.00  0.00    +0.355 C 
BRANCH  16  17
ATOM     17  O   UNL     1      31.307 -11.707 -21.671  0.00  0.00    -0.448 OA
BRANCH  17  18
ATOM     18  C   UNL     1      31.903 -10.412 -21.533  0.00  0.00    +0.169 C 
ATOM     19  C   UNL     1      31.560  -9.844 -20.165  0.00  0.00    +0.047 C 
ATOM     20  C   UNL     1      31.415  -9.514 -22.660  0.00  0.00    +0.047 C 
ENDBRANCH  17  18
ENDBRANCH  16  17
ENDBRANCH   9  16
BRANCH   8  21
ATOM     21  O   UNL     1      34.003 -17.977 -21.413  0.00  0.00    -0.453 OA
BRANCH  21  23
ATOM     22 CL   UNL     1      33.969 -23.215 -18.763  0.00  0.00    -0.082 Cl
ATOM     23  C   UNL     1      33.994 -19.209 -20.792  0.00  0.00    +0.145 C 
ATOM     24  C   UNL     1      32.783 -19.814 -20.501  0.00  0.00    +0.038 C 
ATOM     25  C   UNL     1      35.199 -19.814 -20.470  0.00  0.00    +0.038 C 
ATOM     26  C   UNL     1      32.775 -21.059 -19.871  0.00  0.00    +0.015 C 
ATOM     27  C   UNL     1      35.191 -21.058 -19.840  0.00  0.00    +0.015 C 
ATOM     28  C   UNL     1      33.979 -21.681 -19.541  0.00  0.00    +0.058 C 
ENDBRANCH  21  23
ENDBRANCH   8  21
BRANCH   7  29
ATOM     29  C   UNL     1      32.953 -15.460 -20.807  0.00  0.00    +0.153 C 
BRANCH  29  30
ATOM     30  O   UNL     1      34.289 -15.520 -20.326  0.00  0.00    -0.350 OA
ATOM     31  C   UNL     1      35.075 -14.451 -20.834  0.00  0.00    +0.174 C 
ENDBRANCH  29  30
ENDBRANCH   7  29
TORSDOF 7
ENDMDL
MODEL 8
REMARK VINA RESULT:      -9.3      7.155     10.900
REMARK  Name = 219095
REMARK  7 active torsions:
REMARK  status: ('A' for Active; 'I' for Inactive)
REMARK    1  A    between atoms: C_7  and  C_29
REMARK    2  A    between atoms: C_8  and  O_21
REMARK    3  A    between atoms: C_9  and  C_16
REMARK    4  A    between atoms: C_16  and  O_17
REMARK    5  A    between atoms: O_17  and  C_18
REMARK    6  A    between atoms: O_21  and  C_23
REMARK    7  A    between atoms: C_29  and  O_30
REMARK                            x       y       z     vdW  Elec       q    Type
REMARK                         _______ _______ _______ _____ _____    ______ ____
ROOT
ATOM      1  N   UNL     1      33.742 -17.229 -26.014  0.00  0.00    -0.355 N 
ATOM      2  N   UNL     1      35.196 -19.425 -23.432  0.00  0.00    -0.261 NA
ATOM      3  C   UNL     1      34.400 -16.795 -23.927  0.00  0.00    +0.003 A 
ATOM      4  C   UNL     1      33.904 -15.587 -24.512  0.00  0.00    +0.048 A 
ATOM      5  C   UNL     1      34.285 -17.799 -24.889  0.00  0.00    +0.055 A 
ATOM      6  C   UNL     1      33.501 -15.890 -25.814  0.00  0.00    +0.059 A 
ATOM      7  C   UNL     1      34.936 -17.129 -22.674  0.00  0.00    +0.099 C 
ATOM      8  C   UNL     1      33.761 -14.261 -24.053  0.00  0.00    +0.146 C 
ATOM      9  C   UNL     1      35.311 -18.454 -22.497  0.00  0.00    +0.136 C 
ATOM     10  C   UNL     1      34.681 -19.107 -24.642  0.00  0.00    +0.168 C 
ATOM     11  C   UNL     1      32.960 -14.932 -26.680  0.00  0.00    +0.017 C 
ATOM     12  C   UNL     1      33.223 -13.293 -24.908  0.00  0.00    +0.038 C 
ATOM     13  C   UNL     1      32.830 -13.625 -26.202  0.00  0.00    +0.005 C 
ATOM     14  H   UNL     1      33.550 -17.713 -26.850  0.00  0.00    +0.166 HD
ENDROOT
BRANCH   9  16
ATOM     15  O   UNL     1      37.091 -18.977 -21.000  0.00  0.00    -0.244 OA
ATOM     16  C   UNL     1      35.879 -18.912 -21.237  0.00  0.00    +0.355 C 
BRANCH  16  17
ATOM     17  O   UNL     1      34.903 -19.259 -20.344  0.00  0.00    -0.448 OA
BRANCH  17  18
ATOM     18  C   UNL     1      34.414 -20.603 -20.413  0.00  0.00    +0.169 C 
ATOM     19  C   UNL     1      32.922 -20.610 -20.124  0.00  0.00    +0.047 C 
ATOM     20  C   UNL     1      35.188 -21.467 -19.428  0.00  0.00    +0.047 C 
ENDBRANCH  17  18
ENDBRANCH  16  17
ENDBRANCH   9  16
BRANCH   8  21
ATOM     21  O   UNL     1      34.130 -13.866 -22.793  0.00  0.00    -0.453 OA
BRANCH  21  23
ATOM     22 CL   UNL     1      30.340 -10.544 -19.782  0.00  0.00    -0.082 Cl
ATOM     23  C   UNL     1      33.238 -13.086 -22.086  0.00  0.00    +0.145 C 
ATOM     24  C   UNL     1      32.735 -11.934 -22.669  0.00  0.00    +0.038 C 
ATOM     25  C   UNL     1      32.866 -13.471 -20.808  0.00  0.00    +0.038 C 
ATOM     26  C   UNL     1      31.835 -11.144 -21.953  0.00  0.00    +0.015 C 
ATOM     27  C   UNL     1      31.965 -12.682 -20.093  0.00  0.00    +0.015 C 
ATOM     28  C   UNL     1      31.450 -11.519 -20.665  0.00  0.00    +0.058 C 
ENDBRANCH  21  23
ENDBRANCH   8  21
BRANCH   7  29
ATOM     29  C   UNL     1      35.120 -16.163 -21.549  0.00  0.00    +0.153 C 
BRANCH  29  30
ATOM     30  O   UNL     1      34.226 -16.549 -20.514  0.00  0.00    -0.350 OA
ATOM     31  C   UNL     1      32.879 -16.559 -20.966  0.00  0.00    +0.174 C 
ENDBRANCH  29  30
ENDBRANCH   7  29
TORSDOF 7
ENDMDL
MODEL 9
REMARK VINA RESULT:      -9.0      1.502      2.030
REMARK  Name = 219095
REMARK  7 active torsions:
REMARK  status: ('A' for Active; 'I' for Inactive)
REMARK    1  A    between atoms: C_7  and  C_29
REMARK    2  A    between atoms: C_8  and  O_21
REMARK    3  A    between atoms: C_9  and  C_16
REMARK    4  A    between atoms: C_16  and  O_17
REMARK    5  A    between atoms: O_17  and  C_18
REMARK    6  A    between atoms: O_21  and  C_23
REMARK    7  A    between atoms: C_29  and  O_30
REMARK                            x       y       z     vdW  Elec       q    Type
REMARK                         _______ _______ _______ _____ _____    ______ ____
ROOT
ATOM      1  N   UNL     1      32.466 -23.234 -12.786  0.00  0.00    -0.355 N 
ATOM      2  N   UNL     1      35.707 -24.640 -11.727  0.00  0.00    -0.261 NA
ATOM      3  C   UNL     1      34.190 -23.997 -13.980  0.00  0.00    +0.003 A 
ATOM      4  C   UNL     1      33.167 -23.558 -14.879  0.00  0.00    +0.048 A 
ATOM      5  C   UNL     1      33.722 -23.781 -12.683  0.00  0.00    +0.055 A 
ATOM      6  C   UNL     1      32.105 -23.087 -14.105  0.00  0.00    +0.059 A 
ATOM      7  C   UNL     1      35.465 -24.556 -14.145  0.00  0.00    +0.099 C 
ATOM      8  C   UNL     1      33.046 -23.518 -16.284  0.00  0.00    +0.146 C 
ATOM      9  C   UNL     1      36.164 -24.851 -12.982  0.00  0.00    +0.136 C 
ATOM     10  C   UNL     1      34.477 -24.101 -11.563  0.00  0.00    +0.168 C 
ATOM     11  C   UNL     1      30.928 -22.577 -14.665  0.00  0.00    +0.017 C 
ATOM     12  C   UNL     1      31.875 -23.011 -16.858  0.00  0.00    +0.038 C 
ATOM     13  C   UNL     1      30.832 -22.549 -16.059  0.00  0.00    +0.005 C 
ATOM     14  H   UNL     1      31.902 -22.980 -12.019  0.00  0.00    +0.166 HD
ENDROOT
BRANCH   9  16
ATOM     15  O   UNL     1      37.774 -26.579 -12.653  0.00  0.00    -0.244 OA
ATOM     16  C   UNL     1      37.497 -25.436 -13.035  0.00  0.00    +0.355 C 
BRANCH  16  17
ATOM     17  O   UNL     1      38.406 -24.562 -13.564  0.00  0.00    -0.448 OA
BRANCH  17  18
ATOM     18  C   UNL     1      39.237 -25.057 -14.620  0.00  0.00    +0.169 C 
ATOM     19  C   UNL     1      40.582 -25.475 -14.047  0.00  0.00    +0.047 C 
ATOM     20  C   UNL     1      39.383 -23.983 -15.687  0.00  0.00    +0.047 C 
ENDBRANCH  17  18
ENDBRANCH  16  17
ENDBRANCH   9  16
BRANCH   8  21
ATOM     21  O   UNL     1      34.033 -23.958 -17.128  0.00  0.00    -0.453 OA
BRANCH  21  23
ATOM     22 CL   UNL     1      36.853 -19.925 -20.329  0.00  0.00    -0.082 Cl
ATOM     23  C   UNL     1      34.694 -23.008 -17.880  0.00  0.00    +0.145 C 
ATOM     24  C   UNL     1      34.183 -22.645 -19.115  0.00  0.00    +0.038 C 
ATOM     25  C   UNL     1      35.857 -22.441 -17.384  0.00  0.00    +0.038 C 
ATOM     26  C   UNL     1      34.853 -21.686 -19.876  0.00  0.00    +0.015 C 
ATOM     27  C   UNL     1      36.528 -21.483 -18.145  0.00  0.00    +0.015 C 
ATOM     28  C   UNL     1      36.025 -21.105 -19.390  0.00  0.00    +0.058 C 
ENDBRANCH  21  23
ENDBRANCH   8  21
BRANCH   7  29
ATOM     29  C   UNL     1      36.098 -24.844 -15.468  0.00  0.00    +0.153 C 
BRANCH  29  30
ATOM     30  O   UNL     1      35.656 -26.133 -15.873  0.00  0.00    -0.350 OA
ATOM     31  C   UNL     1      36.722 -27.072 -15.875  0.00  0.00    +0.174 C 
ENDBRANCH  29  30
ENDBRANCH   7  29
TORSDOF 7
ENDMDL
