MODEL 1
REMARK VINA RESULT:     -10.0      0.000      0.000
REMARK  Name = 2429
REMARK  6 active torsions:
REMARK  status: ('A' for Active; 'I' for Inactive)
REMARK    1  A    between atoms: N_1  and  O_15
REMARK    2  A    between atoms: O_15  and  C_16
REMARK    3  A    between atoms: C_16  and  C_17
REMARK    4  A    between atoms: C_17  and  C_18
REMARK    5  A    between atoms: C_18  and  O_19
REMARK    6  A    between atoms: O_19  and  C_21
REMARK                            x       y       z     vdW  Elec       q    Type
REMARK                         _______ _______ _______ _____ _____    ______ ____
ROOT
ATOM      1  N   UNL     1      36.646 -25.106 -14.334  0.00  0.00    -0.181 N 
ATOM      2  N   UNL     1      39.005 -24.525 -14.023  0.00  0.00    -0.178 NA
ATOM      3  N   UNL     1      38.316 -26.710 -14.667  0.00  0.00    -0.304 NA
ATOM      4  N   UNL     1      36.063 -27.268 -14.979  0.00  0.00    -0.317 N 
ATOM      5  N   UNL     1      40.583 -26.181 -14.332  0.00  0.00    -0.293 N 
ATOM      6  C   UNL     1      37.603 -24.070 -14.023  0.00  0.00    +0.188 C 
ATOM      7  C   UNL     1      37.318 -23.518 -12.621  0.00  0.00    +0.051 C 
ATOM      8  C   UNL     1      37.505 -22.948 -15.064  0.00  0.00    +0.051 C 
ATOM      9  C   UNL     1      37.051 -26.373 -14.662  0.00  0.00    +0.280 C 
ATOM     10  C   UNL     1      39.273 -25.762 -14.331  0.00  0.00    +0.142 C 
ATOM     11  H   UNL     1      35.119 -26.985 -14.967  0.00  0.00    +0.146 HD
ATOM     12  H   UNL     1      36.296 -28.194 -15.222  0.00  0.00    +0.146 HD
ATOM     13  H   UNL     1      41.302 -25.549 -14.102  0.00  0.00    +0.155 HD
ATOM     14  H   UNL     1      40.802 -27.112 -14.564  0.00  0.00    +0.155 HD
ENDROOT
BRANCH   1  15
ATOM     15  O   UNL     1      35.303 -24.787 -14.370  0.00  0.00    -0.252 OA
BRANCH  15  16
ATOM     16  C   UNL     1      35.048 -24.281 -15.675  0.00  0.00    +0.178 C 
BRANCH  16  17
ATOM     17  C   UNL     1      33.769 -23.460 -15.669  0.00  0.00    +0.082 C 
BRANCH  17  18
ATOM     18  C   UNL     1      33.270 -23.173 -17.075  0.00  0.00    +0.208 C 
BRANCH  18  19
ATOM     19  O   UNL     1      34.376 -23.193 -17.967  0.00  0.00    -0.475 OA
BRANCH  19  21
ATOM     20 BR   UNL     1      34.756 -18.646 -21.928  0.00  0.00    -0.049 Br
ATOM     21  C   UNL     1      34.463 -22.162 -18.867  0.00  0.00    +0.139 C 
ATOM     22  C   UNL     1      35.711 -21.701 -19.268  0.00  0.00    +0.037 C 
ATOM     23  C   UNL     1      33.300 -21.587 -19.367  0.00  0.00    +0.037 C 
ATOM     24  C   UNL     1      35.799 -20.651 -20.182  0.00  0.00    +0.010 C 
ATOM     25  C   UNL     1      33.387 -20.537 -20.282  0.00  0.00    +0.010 C 
ATOM     26  C   UNL     1      34.637 -20.069 -20.689  0.00  0.00    +0.035 C 
ENDBRANCH  19  21
ENDBRANCH  18  19
ENDBRANCH  17  18
ENDBRANCH  16  17
ENDBRANCH  15  16
ENDBRANCH   1  15
TORSDOF 6
ENDMDL
MODEL 2
REMARK VINA RESULT:      -9.5      1.287      1.973
REMARK  Name = 2429
REMARK  6 active torsions:
REMARK  status: ('A' for Active; 'I' for Inactive)
REMARK    1  A    between atoms: N_1  and  O_15
REMARK    2  A    between atoms: O_15  and  C_16
REMARK    3  A    between atoms: C_16  and  C_17
REMARK    4  A    between atoms: C_17  and  C_18
REMARK    5  A    between atoms: C_18  and  O_19
REMARK    6  A    between atoms: O_19  and  C_21
REMARK                            x       y       z     vdW  Elec       q    Type
REMARK                         _______ _______ _______ _____ _____    ______ ____
ROOT
ATOM      1  N   UNL     1      37.259 -23.980 -14.051  0.00  0.00    -0.181 N 
ATOM      2  N   UNL     1      38.859 -25.470 -12.947  0.00  0.00    -0.178 NA
ATOM      3  N   UNL     1      39.211 -24.650 -15.153  0.00  0.00    -0.304 NA
ATOM      4  N   UNL     1      37.691 -23.214 -16.209  0.00  0.00    -0.317 N 
ATOM      5  N   UNL     1      40.738 -26.113 -14.124  0.00  0.00    -0.293 N 
ATOM      6  C   UNL     1      37.601 -24.708 -12.852  0.00  0.00    +0.188 C 
ATOM      7  C   UNL     1      36.494 -25.722 -12.537  0.00  0.00    +0.051 C 
ATOM      8  C   UNL     1      37.769 -23.728 -11.683  0.00  0.00    +0.051 C 
ATOM      9  C   UNL     1      38.092 -23.970 -15.138  0.00  0.00    +0.280 C 
ATOM     10  C   UNL     1      39.563 -25.402 -14.041  0.00  0.00    +0.142 C 
ATOM     11  H   UNL     1      36.844 -22.712 -16.168  0.00  0.00    +0.146 HD
ATOM     12  H   UNL     1      38.250 -23.170 -17.018  0.00  0.00    +0.146 HD
ATOM     13  H   UNL     1      41.035 -26.663 -13.363  0.00  0.00    +0.155 HD
ATOM     14  H   UNL     1      41.281 -26.071 -14.943  0.00  0.00    +0.155 HD
ENDROOT
BRANCH   1  15
ATOM     15  O   UNL     1      36.103 -23.226 -14.068  0.00  0.00    -0.252 OA
BRANCH  15  16
ATOM     16  C   UNL     1      35.170 -23.944 -14.867  0.00  0.00    +0.178 C 
BRANCH  16  17
ATOM     17  C   UNL     1      34.043 -23.020 -15.300  0.00  0.00    +0.082 C 
BRANCH  17  18
ATOM     18  C   UNL     1      33.670 -23.223 -16.760  0.00  0.00    +0.208 C 
BRANCH  18  19
ATOM     19  O   UNL     1      34.837 -23.072 -17.556  0.00  0.00    -0.475 OA
BRANCH  19  21
ATOM     20 BR   UNL     1      34.576 -19.039 -22.046  0.00  0.00    -0.049 Br
ATOM     21  C   UNL     1      34.777 -22.156 -18.574  0.00  0.00    +0.139 C 
ATOM     22  C   UNL     1      33.541 -21.737 -19.052  0.00  0.00    +0.037 C 
ATOM     23  C   UNL     1      35.954 -21.657 -19.119  0.00  0.00    +0.037 C 
ATOM     24  C   UNL     1      33.481 -20.807 -20.089  0.00  0.00    +0.010 C 
ATOM     25  C   UNL     1      35.894 -20.725 -20.156  0.00  0.00    +0.010 C 
ATOM     26  C   UNL     1      34.657 -20.300 -20.641  0.00  0.00    +0.035 C 
ENDBRANCH  19  21
ENDBRANCH  18  19
ENDBRANCH  17  18
ENDBRANCH  16  17
ENDBRANCH  15  16
ENDBRANCH   1  15
TORSDOF 6
ENDMDL
MODEL 3
REMARK VINA RESULT:      -9.3      1.771      2.476
REMARK  Name = 2429
REMARK  6 active torsions:
REMARK  status: ('A' for Active; 'I' for Inactive)
REMARK    1  A    between atoms: N_1  and  O_15
REMARK    2  A    between atoms: O_15  and  C_16
REMARK    3  A    between atoms: C_16  and  C_17
REMARK    4  A    between atoms: C_17  and  C_18
REMARK    5  A    between atoms: C_18  and  O_19
REMARK    6  A    between atoms: O_19  and  C_21
REMARK                            x       y       z     vdW  Elec       q    Type
REMARK                         _______ _______ _______ _____ _____    ______ ____
ROOT
ATOM      1  N   UNL     1      35.651 -24.115 -14.508  0.00  0.00    -0.181 N 
ATOM      2  N   UNL     1      37.539 -23.407 -13.117  0.00  0.00    -0.178 NA
ATOM      3  N   UNL     1      35.403 -23.900 -12.192  0.00  0.00    -0.304 NA
ATOM      4  N   UNL     1      33.597 -24.590 -13.515  0.00  0.00    -0.317 N 
ATOM      5  N   UNL     1      37.193 -23.181 -10.846  0.00  0.00    -0.293 N 
ATOM      6  C   UNL     1      37.047 -23.748 -14.464  0.00  0.00    +0.188 C 
ATOM      7  C   UNL     1      37.278 -22.513 -15.343  0.00  0.00    +0.051 C 
ATOM      8  C   UNL     1      37.905 -24.920 -14.961  0.00  0.00    +0.051 C 
ATOM      9  C   UNL     1      34.901 -24.193 -13.364  0.00  0.00    +0.280 C 
ATOM     10  C   UNL     1      36.728 -23.498 -12.101  0.00  0.00    +0.142 C 
ATOM     11  H   UNL     1      33.248 -24.805 -14.411  0.00  0.00    +0.146 HD
ATOM     12  H   UNL     1      33.011 -24.663 -12.727  0.00  0.00    +0.146 HD
ATOM     13  H   UNL     1      38.126 -22.891 -10.725  0.00  0.00    +0.155 HD
ATOM     14  H   UNL     1      36.593 -23.246 -10.069  0.00  0.00    +0.155 HD
ENDROOT
BRANCH   1  15
ATOM     15  O   UNL     1      35.089 -24.461 -15.720  0.00  0.00    -0.252 OA
BRANCH  15  16
ATOM     16  C   UNL     1      34.603 -23.253 -16.293  0.00  0.00    +0.178 C 
BRANCH  16  17
ATOM     17  C   UNL     1      33.281 -23.511 -16.998  0.00  0.00    +0.082 C 
BRANCH  17  18
ATOM     18  C   UNL     1      33.110 -22.632 -18.226  0.00  0.00    +0.208 C 
BRANCH  18  19
ATOM     19  O   UNL     1      34.355 -22.543 -18.904  0.00  0.00    -0.475 OA
BRANCH  19  21
ATOM     20 BR   UNL     1      35.307 -17.571 -22.201  0.00  0.00    -0.049 Br
ATOM     21  C   UNL     1      34.572 -21.416 -19.654  0.00  0.00    +0.139 C 
ATOM     22  C   UNL     1      35.873 -21.009 -19.925  0.00  0.00    +0.037 C 
ATOM     23  C   UNL     1      33.487 -20.690 -20.132  0.00  0.00    +0.037 C 
ATOM     24  C   UNL     1      36.093 -19.861 -20.686  0.00  0.00    +0.010 C 
ATOM     25  C   UNL     1      33.707 -19.542 -20.894  0.00  0.00    +0.010 C 
ATOM     26  C   UNL     1      35.010 -19.128 -21.171  0.00  0.00    +0.035 C 
ENDBRANCH  19  21
ENDBRANCH  18  19
ENDBRANCH  17  18
ENDBRANCH  16  17
ENDBRANCH  15  16
ENDBRANCH   1  15
TORSDOF 6
ENDMDL
MODEL 4
REMARK VINA RESULT:      -9.2     12.005     15.168
REMARK  Name = 2429
REMARK  6 active torsions:
REMARK  status: ('A' for Active; 'I' for Inactive)
REMARK    1  A    between atoms: N_1  and  O_15
REMARK    2  A    between atoms: O_15  and  C_16
REMARK    3  A    between atoms: C_16  and  C_17
REMARK    4  A    between atoms: C_17  and  C_18
REMARK    5  A    between atoms: C_18  and  O_19
REMARK    6  A    between atoms: O_19  and  C_21
REMARK                            x       y       z     vdW  Elec       q    Type
REMARK                         _______ _______ _______ _____ _____    ______ ____
ROOT
ATOM      1  N   UNL     1      32.717  -9.278 -23.070  0.00  0.00    -0.181 N 
ATOM      2  N   UNL     1      33.120  -7.276 -21.718  0.00  0.00    -0.178 NA
ATOM      3  N   UNL     1      32.216  -9.269 -20.785  0.00  0.00    -0.304 NA
ATOM      4  N   UNL     1      31.840 -11.191 -22.070  0.00  0.00    -0.317 N 
ATOM      5  N   UNL     1      32.557  -7.343 -19.480  0.00  0.00    -0.293 N 
ATOM      6  C   UNL     1      33.220  -7.924 -23.038  0.00  0.00    +0.188 C 
ATOM      7  C   UNL     1      32.418  -7.058 -24.017  0.00  0.00    +0.051 C 
ATOM      8  C   UNL     1      34.706  -7.917 -23.419  0.00  0.00    +0.051 C 
ATOM      9  C   UNL     1      32.257  -9.892 -21.935  0.00  0.00    +0.280 C 
ATOM     10  C   UNL     1      32.646  -7.952 -20.710  0.00  0.00    +0.142 C 
ATOM     11  H   UNL     1      31.883 -11.635 -22.949  0.00  0.00    +0.146 HD
ATOM     12  H   UNL     1      31.499 -11.683 -21.288  0.00  0.00    +0.146 HD
ATOM     13  H   UNL     1      32.850  -6.408 -19.371  0.00  0.00    +0.155 HD
ATOM     14  H   UNL     1      32.203  -7.840 -18.709  0.00  0.00    +0.155 HD
ENDROOT
BRANCH   1  15
ATOM     15  O   UNL     1      32.769  -9.982 -24.256  0.00  0.00    -0.252 OA
BRANCH  15  16
ATOM     16  C   UNL     1      33.954 -10.769 -24.200  0.00  0.00    +0.178 C 
BRANCH  16  17
ATOM     17  C   UNL     1      33.895 -11.866 -25.251  0.00  0.00    +0.082 C 
BRANCH  17  18
ATOM     18  C   UNL     1      33.486 -13.203 -24.654  0.00  0.00    +0.208 C 
BRANCH  18  19
ATOM     19  O   UNL     1      33.915 -13.252 -23.301  0.00  0.00    -0.475 OA
BRANCH  19  21
ATOM     20 BR   UNL     1      35.576 -18.653 -21.163  0.00  0.00    -0.049 Br
ATOM     21  C   UNL     1      34.293 -14.478 -22.816  0.00  0.00    +0.139 C 
ATOM     22  C   UNL     1      34.657 -15.486 -23.701  0.00  0.00    +0.037 C 
ATOM     23  C   UNL     1      34.307 -14.699 -21.444  0.00  0.00    +0.037 C 
ATOM     24  C   UNL     1      35.040 -16.733 -23.208  0.00  0.00    +0.010 C 
ATOM     25  C   UNL     1      34.690 -15.947 -20.950  0.00  0.00    +0.010 C 
ATOM     26  C   UNL     1      35.057 -16.963 -21.832  0.00  0.00    +0.035 C 
ENDBRANCH  19  21
ENDBRANCH  18  19
ENDBRANCH  17  18
ENDBRANCH  16  17
ENDBRANCH  15  16
ENDBRANCH   1  15
TORSDOF 6
ENDMDL
MODEL 5
REMARK VINA RESULT:      -9.1      8.535     11.454
REMARK  Name = 2429
REMARK  6 active torsions:
REMARK  status: ('A' for Active; 'I' for Inactive)
REMARK    1  A    between atoms: N_1  and  O_15
REMARK    2  A    between atoms: O_15  and  C_16
REMARK    3  A    between atoms: C_16  and  C_17
REMARK    4  A    between atoms: C_17  and  C_18
REMARK    5  A    between atoms: C_18  and  O_19
REMARK    6  A    between atoms: O_19  and  C_21
REMARK                            x       y       z     vdW  Elec       q    Type
REMARK                         _______ _______ _______ _____ _____    ______ ____
ROOT
ATOM      1  N   UNL     1      33.963 -14.408 -22.752  0.00  0.00    -0.181 N 
ATOM      2  N   UNL     1      32.472 -13.699 -20.943  0.00  0.00    -0.178 NA
ATOM      3  N   UNL     1      32.500 -12.609 -23.059  0.00  0.00    -0.304 NA
ATOM      4  N   UNL     1      33.915 -13.291 -24.797  0.00  0.00    -0.317 N 
ATOM      5  N   UNL     1      31.091 -11.888 -21.319  0.00  0.00    -0.293 N 
ATOM      6  C   UNL     1      33.496 -14.652 -21.407  0.00  0.00    +0.188 C 
ATOM      7  C   UNL     1      34.673 -14.544 -20.431  0.00  0.00    +0.051 C 
ATOM      8  C   UNL     1      32.866 -16.049 -21.325  0.00  0.00    +0.051 C 
ATOM      9  C   UNL     1      33.427 -13.410 -23.521  0.00  0.00    +0.280 C 
ATOM     10  C   UNL     1      32.048 -12.773 -21.756  0.00  0.00    +0.142 C 
ATOM     11  H   UNL     1      34.612 -13.909 -25.117  0.00  0.00    +0.146 HD
ATOM     12  H   UNL     1      33.566 -12.590 -25.394  0.00  0.00    +0.146 HD
ATOM     13  H   UNL     1      30.735 -11.960 -20.404  0.00  0.00    +0.155 HD
ATOM     14  H   UNL     1      30.760 -11.184 -21.922  0.00  0.00    +0.155 HD
ENDROOT
BRANCH   1  15
ATOM     15  O   UNL     1      34.918 -15.248 -23.290  0.00  0.00    -0.252 OA
BRANCH  15  16
ATOM     16  C   UNL     1      34.227 -16.126 -24.171  0.00  0.00    +0.178 C 
BRANCH  16  17
ATOM     17  C   UNL     1      35.045 -17.389 -24.387  0.00  0.00    +0.082 C 
BRANCH  17  18
ATOM     18  C   UNL     1      34.544 -18.543 -23.534  0.00  0.00    +0.208 C 
BRANCH  18  19
ATOM     19  O   UNL     1      35.185 -18.491 -22.267  0.00  0.00    -0.475 OA
BRANCH  19  21
ATOM     20 BR   UNL     1      33.653 -22.749 -18.264  0.00  0.00    -0.049 Br
ATOM     21  C   UNL     1      34.838 -19.456 -21.358  0.00  0.00    +0.139 C 
ATOM     22  C   UNL     1      35.832 -20.175 -20.704  0.00  0.00    +0.037 C 
ATOM     23  C   UNL     1      33.496 -19.707 -21.101  0.00  0.00    +0.037 C 
ATOM     24  C   UNL     1      35.478 -21.158 -19.781  0.00  0.00    +0.010 C 
ATOM     25  C   UNL     1      33.141 -20.690 -20.176  0.00  0.00    +0.010 C 
ATOM     26  C   UNL     1      34.133 -21.416 -19.516  0.00  0.00    +0.035 C 
ENDBRANCH  19  21
ENDBRANCH  18  19
ENDBRANCH  17  18
ENDBRANCH  16  17
ENDBRANCH  15  16
ENDBRANCH   1  15
TORSDOF 6
ENDMDL
MODEL 6
REMARK VINA RESULT:      -9.0      4.197      6.155
REMARK  Name = 2429
REMARK  6 active torsions:
REMARK  status: ('A' for Active; 'I' for Inactive)
REMARK    1  A    between atoms: N_1  and  O_15
REMARK    2  A    between atoms: O_15  and  C_16
REMARK    3  A    between atoms: C_16  and  C_17
REMARK    4  A    between atoms: C_17  and  C_18
REMARK    5  A    between atoms: C_18  and  O_19
REMARK    6  A    between atoms: O_19  and  C_21
REMARK                            x       y       z     vdW  Elec       q    Type
REMARK                         _______ _______ _______ _____ _____    ______ ____
ROOT
ATOM      1  N   UNL     1      31.258 -23.719 -15.758  0.00  0.00    -0.181 N 
ATOM      2  N   UNL     1      28.967 -23.504 -14.920  0.00  0.00    -0.178 NA
ATOM      3  N   UNL     1      29.696 -22.409 -16.903  0.00  0.00    -0.304 NA
ATOM      4  N   UNL     1      31.882 -22.622 -17.716  0.00  0.00    -0.317 N 
ATOM      5  N   UNL     1      27.503 -22.157 -16.091  0.00  0.00    -0.293 N 
ATOM      6  C   UNL     1      30.298 -24.114 -14.753  0.00  0.00    +0.188 C 
ATOM      7  C   UNL     1      30.806 -23.693 -13.369  0.00  0.00    +0.051 C 
ATOM      8  C   UNL     1      30.094 -25.634 -14.803  0.00  0.00    +0.051 C 
ATOM      9  C   UNL     1      30.904 -22.901 -16.797  0.00  0.00    +0.280 C 
ATOM     10  C   UNL     1      28.748 -22.722 -15.939  0.00  0.00    +0.142 C 
ATOM     11  H   UNL     1      32.783 -23.007 -17.610  0.00  0.00    +0.146 HD
ATOM     12  H   UNL     1      31.684 -22.038 -18.484  0.00  0.00    +0.146 HD
ATOM     13  H   UNL     1      26.793 -22.346 -15.435  0.00  0.00    +0.155 HD
ATOM     14  H   UNL     1      27.322 -21.565 -16.856  0.00  0.00    +0.155 HD
ENDROOT
BRANCH   1  15
ATOM     15  O   UNL     1      32.536 -24.239 -15.701  0.00  0.00    -0.252 OA
BRANCH  15  16
ATOM     16  C   UNL     1      33.398 -23.145 -15.409  0.00  0.00    +0.178 C 
BRANCH  16  17
ATOM     17  C   UNL     1      34.830 -23.504 -15.774  0.00  0.00    +0.082 C 
BRANCH  17  18
ATOM     18  C   UNL     1      35.441 -22.496 -16.734  0.00  0.00    +0.208 C 
BRANCH  18  19
ATOM     19  O   UNL     1      34.938 -22.742 -18.040  0.00  0.00    -0.475 OA
BRANCH  19  21
ATOM     20 BR   UNL     1      35.832 -18.416 -22.161  0.00  0.00    -0.049 Br
ATOM     21  C   UNL     1      35.142 -21.761 -18.976  0.00  0.00    +0.139 C 
ATOM     22  C   UNL     1      36.431 -21.304 -19.225  0.00  0.00    +0.037 C 
ATOM     23  C   UNL     1      34.057 -21.234 -19.665  0.00  0.00    +0.037 C 
ATOM     24  C   UNL     1      36.637 -20.305 -20.175  0.00  0.00    +0.010 C 
ATOM     25  C   UNL     1      34.262 -20.234 -20.617  0.00  0.00    +0.010 C 
ATOM     26  C   UNL     1      35.553 -19.770 -20.872  0.00  0.00    +0.035 C 
ENDBRANCH  19  21
ENDBRANCH  18  19
ENDBRANCH  17  18
ENDBRANCH  16  17
ENDBRANCH  15  16
ENDBRANCH   1  15
TORSDOF 6
ENDMDL
MODEL 7
REMARK VINA RESULT:      -8.8      8.422     11.747
REMARK  Name = 2429
REMARK  6 active torsions:
REMARK  status: ('A' for Active; 'I' for Inactive)
REMARK    1  A    between atoms: N_1  and  O_15
REMARK    2  A    between atoms: O_15  and  C_16
REMARK    3  A    between atoms: C_16  and  C_17
REMARK    4  A    between atoms: C_17  and  C_18
REMARK    5  A    between atoms: C_18  and  O_19
REMARK    6  A    between atoms: O_19  and  C_21
REMARK                            x       y       z     vdW  Elec       q    Type
REMARK                         _______ _______ _______ _____ _____    ______ ____
ROOT
ATOM      1  N   UNL     1      33.855 -14.170 -22.762  0.00  0.00    -0.181 N 
ATOM      2  N   UNL     1      32.108 -12.466 -22.972  0.00  0.00    -0.178 NA
ATOM      3  N   UNL     1      32.595 -13.528 -20.898  0.00  0.00    -0.304 NA
ATOM      4  N   UNL     1      34.274 -15.148 -20.689  0.00  0.00    -0.317 N 
ATOM      5  N   UNL     1      30.886 -11.924 -21.090  0.00  0.00    -0.293 N 
ATOM      6  C   UNL     1      33.179 -13.235 -23.630  0.00  0.00    +0.188 C 
ATOM      7  C   UNL     1      32.527 -13.996 -24.790  0.00  0.00    +0.051 C 
ATOM      8  C   UNL     1      34.187 -12.210 -24.169  0.00  0.00    +0.051 C 
ATOM      9  C   UNL     1      33.543 -14.256 -21.431  0.00  0.00    +0.280 C 
ATOM     10  C   UNL     1      31.885 -12.645 -21.700  0.00  0.00    +0.142 C 
ATOM     11  H   UNL     1      34.982 -15.683 -21.117  0.00  0.00    +0.146 HD
ATOM     12  H   UNL     1      34.092 -15.253 -19.726  0.00  0.00    +0.146 HD
ATOM     13  H   UNL     1      30.351 -11.283 -21.613  0.00  0.00    +0.155 HD
ATOM     14  H   UNL     1      30.706 -12.048 -20.131  0.00  0.00    +0.155 HD
ENDROOT
BRANCH   1  15
ATOM     15  O   UNL     1      34.882 -14.936 -23.275  0.00  0.00    -0.252 OA
BRANCH  15  16
ATOM     16  C   UNL     1      34.272 -16.087 -23.849  0.00  0.00    +0.178 C 
BRANCH  16  17
ATOM     17  C   UNL     1      35.301 -17.195 -24.001  0.00  0.00    +0.082 C 
BRANCH  17  18
ATOM     18  C   UNL     1      34.870 -18.472 -23.298  0.00  0.00    +0.208 C 
BRANCH  18  19
ATOM     19  O   UNL     1      35.458 -18.506 -22.005  0.00  0.00    -0.475 OA
BRANCH  19  21
ATOM     20 BR   UNL     1      33.508 -22.801 -18.230  0.00  0.00    -0.049 Br
ATOM     21  C   UNL     1      35.014 -19.481 -21.149  0.00  0.00    +0.139 C 
ATOM     22  C   UNL     1      33.650 -19.662 -20.960  0.00  0.00    +0.037 C 
ATOM     23  C   UNL     1      35.936 -20.277 -20.479  0.00  0.00    +0.037 C 
ATOM     24  C   UNL     1      33.200 -20.654 -20.088  0.00  0.00    +0.010 C 
ATOM     25  C   UNL     1      35.486 -21.269 -19.607  0.00  0.00    +0.010 C 
ATOM     26  C   UNL     1      34.117 -21.457 -19.412  0.00  0.00    +0.035 C 
ENDBRANCH  19  21
ENDBRANCH  18  19
ENDBRANCH  17  18
ENDBRANCH  16  17
ENDBRANCH  15  16
ENDBRANCH   1  15
TORSDOF 6
ENDMDL
MODEL 8
REMARK VINA RESULT:      -8.5      1.911      2.898
REMARK  Name = 2429
REMARK  6 active torsions:
REMARK  status: ('A' for Active; 'I' for Inactive)
REMARK    1  A    between atoms: N_1  and  O_15
REMARK    2  A    between atoms: O_15  and  C_16
REMARK    3  A    between atoms: C_16  and  C_17
REMARK    4  A    between atoms: C_17  and  C_18
REMARK    5  A    between atoms: C_18  and  O_19
REMARK    6  A    between atoms: O_19  and  C_21
REMARK                            x       y       z     vdW  Elec       q    Type
REMARK                         _______ _______ _______ _____ _____    ______ ____
ROOT
ATOM      1  N   UNL     1      36.141 -23.938 -15.193  0.00  0.00    -0.181 N 
ATOM      2  N   UNL     1      36.545 -24.700 -12.900  0.00  0.00    -0.178 NA
ATOM      3  N   UNL     1      37.671 -22.818 -13.824  0.00  0.00    -0.304 NA
ATOM      4  N   UNL     1      37.279 -22.078 -16.012  0.00  0.00    -0.317 N 
ATOM      5  N   UNL     1      38.103 -23.560 -11.635  0.00  0.00    -0.293 N 
ATOM      6  C   UNL     1      35.791 -24.879 -14.154  0.00  0.00    +0.188 C 
ATOM      7  C   UNL     1      36.075 -26.305 -14.639  0.00  0.00    +0.051 C 
ATOM      8  C   UNL     1      34.306 -24.726 -13.799  0.00  0.00    +0.051 C 
ATOM      9  C   UNL     1      37.051 -22.939 -14.970  0.00  0.00    +0.280 C 
ATOM     10  C   UNL     1      37.404 -23.724 -12.807  0.00  0.00    +0.142 C 
ATOM     11  H   UNL     1      36.796 -22.194 -16.863  0.00  0.00    +0.146 HD
ATOM     12  H   UNL     1      37.924 -21.341 -15.909  0.00  0.00    +0.146 HD
ATOM     13  H   UNL     1      37.951 -24.175 -10.881  0.00  0.00    +0.155 HD
ATOM     14  H   UNL     1      38.754 -22.827 -11.549  0.00  0.00    +0.155 HD
ENDROOT
BRANCH   1  15
ATOM     15  O   UNL     1      35.488 -24.012 -16.407  0.00  0.00    -0.252 OA
BRANCH  15  16
ATOM     16  C   UNL     1      34.427 -23.066 -16.348  0.00  0.00    +0.178 C 
BRANCH  16  17
ATOM     17  C   UNL     1      33.372 -23.407 -17.388  0.00  0.00    +0.082 C 
BRANCH  17  18
ATOM     18  C   UNL     1      33.300 -22.362 -18.489  0.00  0.00    +0.208 C 
BRANCH  18  19
ATOM     19  O   UNL     1      34.612 -22.115 -18.975  0.00  0.00    -0.475 OA
BRANCH  19  21
ATOM     20 BR   UNL     1      35.342 -17.283 -22.527  0.00  0.00    -0.049 Br
ATOM     21  C   UNL     1      34.777 -21.018 -19.780  0.00  0.00    +0.139 C 
ATOM     22  C   UNL     1      33.661 -20.344 -20.263  0.00  0.00    +0.037 C 
ATOM     23  C   UNL     1      36.059 -20.592 -20.106  0.00  0.00    +0.037 C 
ATOM     24  C   UNL     1      33.830 -19.229 -21.083  0.00  0.00    +0.010 C 
ATOM     25  C   UNL     1      36.228 -19.476 -20.927  0.00  0.00    +0.010 C 
ATOM     26  C   UNL     1      35.113 -18.794 -21.415  0.00  0.00    +0.035 C 
ENDBRANCH  19  21
ENDBRANCH  18  19
ENDBRANCH  17  18
ENDBRANCH  16  17
ENDBRANCH  15  16
ENDBRANCH   1  15
TORSDOF 6
ENDMDL
MODEL 9
REMARK VINA RESULT:      -8.5     10.107     12.757
REMARK  Name = 2429
REMARK  6 active torsions:
REMARK  status: ('A' for Active; 'I' for Inactive)
REMARK    1  A    between atoms: N_1  and  O_15
REMARK    2  A    between atoms: O_15  and  C_16
REMARK    3  A    between atoms: C_16  and  C_17
REMARK    4  A    between atoms: C_17  and  C_18
REMARK    5  A    between atoms: C_18  and  O_19
REMARK    6  A    between atoms: O_19  and  C_21
REMARK                            x       y       z     vdW  Elec       q    Type
REMARK                         _______ _______ _______ _____ _____    ______ ____
ROOT
ATOM      1  N   UNL     1      34.374 -15.948 -22.770  0.00  0.00    -0.181 N 
ATOM      2  N   UNL     1      33.753 -17.398 -20.896  0.00  0.00    -0.178 NA
ATOM      3  N   UNL     1      34.694 -18.261 -22.904  0.00  0.00    -0.304 NA
ATOM      4  N   UNL     1      35.302 -16.878 -24.694  0.00  0.00    -0.317 N 
ATOM      5  N   UNL     1      34.065 -19.673 -21.131  0.00  0.00    -0.293 N 
ATOM      6  C   UNL     1      33.854 -16.026 -21.424  0.00  0.00    +0.188 C 
ATOM      7  C   UNL     1      32.441 -15.433 -21.388  0.00  0.00    +0.051 C 
ATOM      8  C   UNL     1      34.776 -15.255 -20.470  0.00  0.00    +0.051 C 
ATOM      9  C   UNL     1      34.788 -17.070 -23.438  0.00  0.00    +0.280 C 
ATOM     10  C   UNL     1      34.160 -18.395 -21.630  0.00  0.00    +0.142 C 
ATOM     11  H   UNL     1      35.360 -15.969 -25.069  0.00  0.00    +0.146 HD
ATOM     12  H   UNL     1      35.614 -17.649 -25.221  0.00  0.00    +0.146 HD
ATOM     13  H   UNL     1      33.694 -19.824 -20.232  0.00  0.00    +0.155 HD
ATOM     14  H   UNL     1      34.369 -20.436 -21.673  0.00  0.00    +0.155 HD
ENDROOT
BRANCH   1  15
ATOM     15  O   UNL     1      34.518 -14.708 -23.359  0.00  0.00    -0.252 OA
BRANCH  15  16
ATOM     16  C   UNL     1      33.446 -14.580 -24.286  0.00  0.00    +0.178 C 
BRANCH  16  17
ATOM     17  C   UNL     1      33.373 -13.150 -24.797  0.00  0.00    +0.082 C 
BRANCH  17  18
ATOM     18  C   UNL     1      33.722 -12.141 -23.715  0.00  0.00    +0.208 C 
BRANCH  18  19
ATOM     19  O   UNL     1      34.141 -10.932 -24.332  0.00  0.00    -0.475 OA
BRANCH  19  21
ATOM     20 BR   UNL     1      31.940  -5.798 -22.032  0.00  0.00    -0.049 Br
ATOM     21  C   UNL     1      33.642  -9.767 -23.812  0.00  0.00    +0.139 C 
ATOM     22  C   UNL     1      34.430  -8.622 -23.806  0.00  0.00    +0.037 C 
ATOM     23  C   UNL     1      32.353  -9.743 -23.293  0.00  0.00    +0.037 C 
ATOM     24  C   UNL     1      33.922  -7.437 -23.275  0.00  0.00    +0.010 C 
ATOM     25  C   UNL     1      31.843  -8.557 -22.762  0.00  0.00    +0.010 C 
ATOM     26  C   UNL     1      32.629  -7.404 -22.753  0.00  0.00    +0.035 C 
ENDBRANCH  19  21
ENDBRANCH  18  19
ENDBRANCH  17  18
ENDBRANCH  16  17
ENDBRANCH  15  16
ENDBRANCH   1  15
TORSDOF 6
ENDMDL
