MODEL 1
REMARK VINA RESULT:     -10.1      0.000      0.000
REMARK  Name = 4592
REMARK  5 active torsions:
REMARK  status: ('A' for Active; 'I' for Inactive)
REMARK    1  A    between atoms: N_5  and  C_22
REMARK    2  A    between atoms: N_13  and  C_15
REMARK    3  A    between atoms: C_15  and  C_16
REMARK    4  A    between atoms: C_22  and  C_23
REMARK    5  A    between atoms: C_23  and  O_24
REMARK                            x       y       z     vdW  Elec       q    Type
REMARK                         _______ _______ _______ _____ _____    ______ ____
ROOT
ATOM      1  N   UNL     1      30.950 -23.843 -14.730  0.00  0.00    -0.259 N 
ATOM      2  N   UNL     1      33.318 -24.301 -14.449  0.00  0.00    -0.311 NA
ATOM      3  N   UNL     1      30.979 -22.899 -16.750  0.00  0.00    -0.240 NA
ATOM      4  N   UNL     1      34.600 -23.565 -16.391  0.00  0.00    -0.311 NA
ATOM      5  N   UNL     1      35.641 -24.571 -14.549  0.00  0.00    -0.256 N 
ATOM      6  C   UNL     1      32.254 -23.247 -16.379  0.00  0.00    +0.167 C 
ATOM      7  C   UNL     1      32.257 -23.837 -15.125  0.00  0.00    +0.220 C 
ATOM      8  C   UNL     1      33.485 -23.118 -17.017  0.00  0.00    +0.215 C 
ATOM      9  C   UNL     1      34.450 -24.120 -15.165  0.00  0.00    +0.202 C 
ATOM     10  C   UNL     1      30.222 -23.270 -15.739  0.00  0.00    +0.222 C 
ATOM     11  C   UNL     1      30.424 -24.354 -13.488  0.00  0.00    +0.117 C 
ATOM     12  H   UNL     1      35.583 -24.981 -13.656  0.00  0.00    +0.160 HD
ATOM     13  N   UNL     1      33.575 -22.532 -18.291  0.00  0.00    -0.302 N 
ATOM     14  H   UNL     1      32.749 -22.214 -18.722  0.00  0.00    +0.150 HD
ENDROOT
BRANCH  13  15
ATOM     15  C   UNL     1      34.815 -22.373 -18.991  0.00  0.00    +0.116 C 
BRANCH  15  16
ATOM     16  C   UNL     1      34.791 -21.124 -19.828  0.00  0.00    -0.003 C 
ATOM     17  C   UNL     1      33.573 -20.579 -20.211  0.00  0.00    -0.003 C 
ATOM     18  C   UNL     1      35.988 -20.529 -20.207  0.00  0.00    -0.003 C 
ATOM     19  C   UNL     1      33.550 -19.420 -20.987  0.00  0.00    -0.000 C 
ATOM     20  C   UNL     1      35.965 -19.371 -20.984  0.00  0.00    -0.000 C 
ATOM     21  C   UNL     1      34.746 -18.816 -21.374  0.00  0.00    -0.000 C 
ENDBRANCH  15  16
ENDBRANCH  13  15
BRANCH   5  22
ATOM     22  C   UNL     1      36.922 -24.456 -15.169  0.00  0.00    +0.130 C 
BRANCH  22  23
ATOM     23  C   UNL     1      37.696 -25.753 -15.007  0.00  0.00    +0.159 C 
BRANCH  23  24
ATOM     24  O   UNL     1      37.139 -26.746 -15.860  0.00  0.00    -0.380 OA
ATOM     25  H   UNL     1      37.379 -27.627 -15.530  0.00  0.00    +0.211 HD
ENDBRANCH  23  24
ENDBRANCH  22  23
ENDBRANCH   5  22
TORSDOF 5
ENDMDL
MODEL 2
REMARK VINA RESULT:      -9.9      2.259      4.222
REMARK  Name = 4592
REMARK  5 active torsions:
REMARK  status: ('A' for Active; 'I' for Inactive)
REMARK    1  A    between atoms: N_5  and  C_22
REMARK    2  A    between atoms: N_13  and  C_15
REMARK    3  A    between atoms: C_15  and  C_16
REMARK    4  A    between atoms: C_22  and  C_23
REMARK    5  A    between atoms: C_23  and  O_24
REMARK                            x       y       z     vdW  Elec       q    Type
REMARK                         _______ _______ _______ _____ _____    ______ ____
ROOT
ATOM      1  N   UNL     1      35.609 -24.266 -12.983  0.00  0.00    -0.259 N 
ATOM      2  N   UNL     1      33.206 -24.047 -13.260  0.00  0.00    -0.311 NA
ATOM      3  N   UNL     1      36.282 -23.737 -15.042  0.00  0.00    -0.240 NA
ATOM      4  N   UNL     1      32.633 -23.385 -15.538  0.00  0.00    -0.311 NA
ATOM      5  N   UNL     1      30.981 -23.738 -13.915  0.00  0.00    -0.256 N 
ATOM      6  C   UNL     1      34.913 -23.678 -14.969  0.00  0.00    +0.167 C 
ATOM      7  C   UNL     1      34.474 -24.003 -13.695  0.00  0.00    +0.220 C 
ATOM      8  C   UNL     1      33.936 -23.360 -15.908  0.00  0.00    +0.215 C 
ATOM      9  C   UNL     1      32.353 -23.723 -14.256  0.00  0.00    +0.202 C 
ATOM     10  C   UNL     1      36.668 -24.093 -13.834  0.00  0.00    +0.222 C 
ATOM     11  C   UNL     1      35.689 -24.654 -11.595  0.00  0.00    +0.117 C 
ATOM     12  H   UNL     1      30.727 -23.978 -12.995  0.00  0.00    +0.160 HD
ATOM     13  N   UNL     1      34.291 -23.019 -17.225  0.00  0.00    -0.302 N 
ATOM     14  H   UNL     1      35.245 -23.010 -17.467  0.00  0.00    +0.150 HD
ENDROOT
BRANCH  13  15
ATOM     15  C   UNL     1      33.328 -22.684 -18.231  0.00  0.00    +0.116 C 
BRANCH  15  16
ATOM     16  C   UNL     1      33.900 -21.683 -19.197  0.00  0.00    -0.003 C 
ATOM     17  C   UNL     1      33.050 -20.812 -19.864  0.00  0.00    -0.003 C 
ATOM     18  C   UNL     1      35.272 -21.642 -19.408  0.00  0.00    -0.003 C 
ATOM     19  C   UNL     1      33.581 -19.883 -20.760  0.00  0.00    -0.000 C 
ATOM     20  C   UNL     1      35.803 -20.713 -20.304  0.00  0.00    -0.000 C 
ATOM     21  C   UNL     1      34.957 -19.834 -20.980  0.00  0.00    -0.000 C 
ENDBRANCH  15  16
ENDBRANCH  13  15
BRANCH   5  22
ATOM     22  C   UNL     1      29.950 -23.419 -14.850  0.00  0.00    +0.130 C 
BRANCH  22  23
ATOM     23  C   UNL     1      29.314 -24.695 -15.377  0.00  0.00    +0.159 C 
BRANCH  23  24
ATOM     24  O   UNL     1      28.900 -25.505 -14.284  0.00  0.00    -0.380 OA
ATOM     25  H   UNL     1      28.657 -24.937 -13.535  0.00  0.00    +0.211 HD
ENDBRANCH  23  24
ENDBRANCH  22  23
ENDBRANCH   5  22
TORSDOF 5
ENDMDL
MODEL 3
REMARK VINA RESULT:      -9.3      8.778     12.119
REMARK  Name = 4592
REMARK  5 active torsions:
REMARK  status: ('A' for Active; 'I' for Inactive)
REMARK    1  A    between atoms: N_5  and  C_22
REMARK    2  A    between atoms: N_13  and  C_15
REMARK    3  A    between atoms: C_15  and  C_16
REMARK    4  A    between atoms: C_22  and  C_23
REMARK    5  A    between atoms: C_23  and  O_24
REMARK                            x       y       z     vdW  Elec       q    Type
REMARK                         _______ _______ _______ _____ _____    ______ ____
ROOT
ATOM      1  N   UNL     1      35.240 -17.290 -22.263  0.00  0.00    -0.259 N 
ATOM      2  N   UNL     1      34.412 -16.385 -24.359  0.00  0.00    -0.311 NA
ATOM      3  N   UNL     1      34.313 -15.852 -20.832  0.00  0.00    -0.240 NA
ATOM      4  N   UNL     1      33.017 -14.417 -23.986  0.00  0.00    -0.311 NA
ATOM      5  N   UNL     1      33.433 -15.229 -26.143  0.00  0.00    -0.256 N 
ATOM      6  C   UNL     1      33.968 -15.519 -22.118  0.00  0.00    +0.167 C 
ATOM      7  C   UNL     1      34.534 -16.402 -23.024  0.00  0.00    +0.220 C 
ATOM      8  C   UNL     1      33.184 -14.496 -22.643  0.00  0.00    +0.215 C 
ATOM      9  C   UNL     1      33.633 -15.352 -24.749  0.00  0.00    +0.202 C 
ATOM     10  C   UNL     1      35.076 -16.919 -20.955  0.00  0.00    +0.222 C 
ATOM     11  C   UNL     1      36.013 -18.412 -22.737  0.00  0.00    +0.117 C 
ATOM     12  H   UNL     1      33.861 -15.885 -26.740  0.00  0.00    +0.160 HD
ATOM     13  N   UNL     1      32.571 -13.555 -21.798  0.00  0.00    -0.302 N 
ATOM     14  H   UNL     1      32.710 -13.635 -20.827  0.00  0.00    +0.150 HD
ENDROOT
BRANCH  13  15
ATOM     15  C   UNL     1      31.755 -12.483 -22.285  0.00  0.00    +0.116 C 
BRANCH  15  16
ATOM     16  C   UNL     1      31.766 -11.331 -21.319  0.00  0.00    -0.003 C 
ATOM     17  C   UNL     1      31.581 -11.572 -19.964  0.00  0.00    -0.003 C 
ATOM     18  C   UNL     1      31.963 -10.040 -21.792  0.00  0.00    -0.003 C 
ATOM     19  C   UNL     1      31.592 -10.503 -19.066  0.00  0.00    -0.000 C 
ATOM     20  C   UNL     1      31.974  -8.972 -20.895  0.00  0.00    -0.000 C 
ATOM     21  C   UNL     1      31.788  -9.204 -19.532  0.00  0.00    -0.000 C 
ENDBRANCH  15  16
ENDBRANCH  13  15
BRANCH   5  22
ATOM     22  C   UNL     1      32.636 -14.195 -26.721  0.00  0.00    +0.130 C 
BRANCH  22  23
ATOM     23  C   UNL     1      33.528 -13.072 -27.225  0.00  0.00    +0.159 C 
BRANCH  23  24
ATOM     24  O   UNL     1      33.710 -12.112 -26.191  0.00  0.00    -0.380 OA
ATOM     25  H   UNL     1      33.320 -12.446 -25.368  0.00  0.00    +0.211 HD
ENDBRANCH  23  24
ENDBRANCH  22  23
ENDBRANCH   5  22
TORSDOF 5
ENDMDL
MODEL 4
REMARK VINA RESULT:      -9.0      2.324      6.067
REMARK  Name = 4592
REMARK  5 active torsions:
REMARK  status: ('A' for Active; 'I' for Inactive)
REMARK    1  A    between atoms: N_5  and  C_22
REMARK    2  A    between atoms: N_13  and  C_15
REMARK    3  A    between atoms: C_15  and  C_16
REMARK    4  A    between atoms: C_22  and  C_23
REMARK    5  A    between atoms: C_23  and  O_24
REMARK                            x       y       z     vdW  Elec       q    Type
REMARK                         _______ _______ _______ _____ _____    ______ ____
ROOT
ATOM      1  N   UNL     1      30.326 -24.335 -14.675  0.00  0.00    -0.259 N 
ATOM      2  N   UNL     1      31.423 -23.500 -16.674  0.00  0.00    -0.311 NA
ATOM      3  N   UNL     1      32.050 -24.326 -13.260  0.00  0.00    -0.240 NA
ATOM      4  N   UNL     1      33.787 -23.051 -16.267  0.00  0.00    -0.311 NA
ATOM      5  N   UNL     1      32.818 -22.685 -18.367  0.00  0.00    -0.256 N 
ATOM      6  C   UNL     1      32.456 -23.878 -14.492  0.00  0.00    +0.167 C 
ATOM      7  C   UNL     1      31.397 -23.875 -15.387  0.00  0.00    +0.220 C 
ATOM      8  C   UNL     1      33.687 -23.444 -14.974  0.00  0.00    +0.215 C 
ATOM      9  C   UNL     1      32.666 -23.103 -17.025  0.00  0.00    +0.202 C 
ATOM     10  C   UNL     1      30.768 -24.592 -13.404  0.00  0.00    +0.222 C 
ATOM     11  C   UNL     1      28.980 -24.519 -15.159  0.00  0.00    +0.117 C 
ATOM     12  H   UNL     1      32.031 -22.706 -18.959  0.00  0.00    +0.160 HD
ATOM     13  N   UNL     1      34.815 -23.414 -14.136  0.00  0.00    -0.302 N 
ATOM     14  H   UNL     1      34.714 -23.707 -13.201  0.00  0.00    +0.150 HD
ENDROOT
BRANCH  13  15
ATOM     15  C   UNL     1      36.106 -22.978 -14.580  0.00  0.00    +0.116 C 
BRANCH  15  16
ATOM     16  C   UNL     1      37.163 -23.972 -14.184  0.00  0.00    -0.003 C 
ATOM     17  C   UNL     1      38.221 -24.228 -15.046  0.00  0.00    -0.003 C 
ATOM     18  C   UNL     1      37.068 -24.622 -12.960  0.00  0.00    -0.003 C 
ATOM     19  C   UNL     1      39.202 -25.149 -14.679  0.00  0.00    -0.000 C 
ATOM     20  C   UNL     1      38.048 -25.545 -12.593  0.00  0.00    -0.000 C 
ATOM     21  C   UNL     1      39.115 -25.808 -13.453  0.00  0.00    -0.000 C 
ENDBRANCH  15  16
ENDBRANCH  13  15
BRANCH   5  22
ATOM     22  C   UNL     1      34.064 -22.235 -18.900  0.00  0.00    +0.130 C 
BRANCH  22  23
ATOM     23  C   UNL     1      33.832 -21.076 -19.856  0.00  0.00    +0.159 C 
BRANCH  23  24
ATOM     24  O   UNL     1      32.535 -20.535 -19.637  0.00  0.00    -0.380 OA
ATOM     25  H   UNL     1      32.104 -20.374 -20.492  0.00  0.00    +0.211 HD
ENDBRANCH  23  24
ENDBRANCH  22  23
ENDBRANCH   5  22
TORSDOF 5
ENDMDL
MODEL 5
REMARK VINA RESULT:      -8.7      1.847      2.174
REMARK  Name = 4592
REMARK  5 active torsions:
REMARK  status: ('A' for Active; 'I' for Inactive)
REMARK    1  A    between atoms: N_5  and  C_22
REMARK    2  A    between atoms: N_13  and  C_15
REMARK    3  A    between atoms: C_15  and  C_16
REMARK    4  A    between atoms: C_22  and  C_23
REMARK    5  A    between atoms: C_23  and  O_24
REMARK                            x       y       z     vdW  Elec       q    Type
REMARK                         _______ _______ _______ _____ _____    ______ ____
ROOT
ATOM      1  N   UNL     1      31.049 -24.140 -14.053  0.00  0.00    -0.259 N 
ATOM      2  N   UNL     1      33.360 -24.044 -13.313  0.00  0.00    -0.311 NA
ATOM      3  N   UNL     1      31.303 -23.524 -16.182  0.00  0.00    -0.240 NA
ATOM      4  N   UNL     1      34.844 -23.356 -15.125  0.00  0.00    -0.311 NA
ATOM      5  N   UNL     1      35.668 -23.834 -12.985  0.00  0.00    -0.256 N 
ATOM      6  C   UNL     1      32.522 -23.538 -15.552  0.00  0.00    +0.167 C 
ATOM      7  C   UNL     1      32.386 -23.920 -14.226  0.00  0.00    +0.220 C 
ATOM      8  C   UNL     1      33.810 -23.250 -15.994  0.00  0.00    +0.215 C 
ATOM      9  C   UNL     1      34.559 -23.740 -13.857  0.00  0.00    +0.202 C 
ATOM     10  C   UNL     1      30.441 -23.889 -15.255  0.00  0.00    +0.222 C 
ATOM     11  C   UNL     1      30.391 -24.558 -12.839  0.00  0.00    +0.117 C 
ATOM     12  H   UNL     1      35.512 -24.108 -12.052  0.00  0.00    +0.160 HD
ATOM     13  N   UNL     1      34.041 -22.856 -17.323  0.00  0.00    -0.302 N 
ATOM     14  H   UNL     1      33.271 -22.787 -17.933  0.00  0.00    +0.150 HD
ENDROOT
BRANCH  13  15
ATOM     15  C   UNL     1      35.345 -22.548 -17.831  0.00  0.00    +0.116 C 
BRANCH  15  16
ATOM     16  C   UNL     1      35.248 -21.586 -18.983  0.00  0.00    -0.003 C 
ATOM     17  C   UNL     1      36.409 -21.094 -19.565  0.00  0.00    -0.003 C 
ATOM     18  C   UNL     1      33.998 -21.202 -19.452  0.00  0.00    -0.003 C 
ATOM     19  C   UNL     1      36.320 -20.202 -20.634  0.00  0.00    -0.000 C 
ATOM     20  C   UNL     1      33.909 -20.309 -20.521  0.00  0.00    -0.000 C 
ATOM     21  C   UNL     1      35.070 -19.810 -21.112  0.00  0.00    -0.000 C 
ENDBRANCH  15  16
ENDBRANCH  13  15
BRANCH   5  22
ATOM     22  C   UNL     1      37.004 -23.547 -13.400  0.00  0.00    +0.130 C 
BRANCH  22  23
ATOM     23  C   UNL     1      37.884 -23.303 -12.185  0.00  0.00    +0.159 C 
BRANCH  23  24
ATOM     24  O   UNL     1      37.326 -22.257 -11.399  0.00  0.00    -0.380 OA
ATOM     25  H   UNL     1      36.549 -22.591 -10.923  0.00  0.00    +0.211 HD
ENDBRANCH  23  24
ENDBRANCH  22  23
ENDBRANCH   5  22
TORSDOF 5
ENDMDL
MODEL 6
REMARK VINA RESULT:      -8.7      5.987      9.620
REMARK  Name = 4592
REMARK  5 active torsions:
REMARK  status: ('A' for Active; 'I' for Inactive)
REMARK    1  A    between atoms: N_5  and  C_22
REMARK    2  A    between atoms: N_13  and  C_15
REMARK    3  A    between atoms: C_15  and  C_16
REMARK    4  A    between atoms: C_22  and  C_23
REMARK    5  A    between atoms: C_23  and  O_24
REMARK                            x       y       z     vdW  Elec       q    Type
REMARK                         _______ _______ _______ _____ _____    ______ ____
ROOT
ATOM      1  N   UNL     1      32.548 -13.585 -21.700  0.00  0.00    -0.259 N 
ATOM      2  N   UNL     1      33.263 -14.830 -23.659  0.00  0.00    -0.311 NA
ATOM      3  N   UNL     1      33.448 -14.846 -20.095  0.00  0.00    -0.240 NA
ATOM      4  N   UNL     1      34.571 -16.793 -23.034  0.00  0.00    -0.311 NA
ATOM      5  N   UNL     1      34.127 -16.283 -25.276  0.00  0.00    -0.256 N 
ATOM      6  C   UNL     1      33.735 -15.382 -21.326  0.00  0.00    +0.167 C 
ATOM      7  C   UNL     1      33.185 -14.611 -22.338  0.00  0.00    +0.220 C 
ATOM      8  C   UNL     1      34.452 -16.510 -21.714  0.00  0.00    +0.215 C 
ATOM      9  C   UNL     1      33.978 -15.948 -23.911  0.00  0.00    +0.202 C 
ATOM     10  C   UNL     1      32.735 -13.770 -20.355  0.00  0.00    +0.222 C 
ATOM     11  C   UNL     1      31.815 -12.505 -22.315  0.00  0.00    +0.117 C 
ATOM     12  H   UNL     1      33.713 -15.700 -25.953  0.00  0.00    +0.160 HD
ATOM     13  N   UNL     1      35.044 -17.349 -20.755  0.00  0.00    -0.302 N 
ATOM     14  H   UNL     1      34.940 -17.120 -19.802  0.00  0.00    +0.150 HD
ENDROOT
BRANCH  13  15
ATOM     15  C   UNL     1      35.791 -18.523 -21.098  0.00  0.00    +0.116 C 
BRANCH  15  16
ATOM     16  C   UNL     1      35.140 -19.749 -20.521  0.00  0.00    -0.003 C 
ATOM     17  C   UNL     1      35.928 -20.737 -19.946  0.00  0.00    -0.003 C 
ATOM     18  C   UNL     1      33.757 -19.879 -20.569  0.00  0.00    -0.003 C 
ATOM     19  C   UNL     1      35.324 -21.875 -19.410  0.00  0.00    -0.000 C 
ATOM     20  C   UNL     1      33.154 -21.017 -20.034  0.00  0.00    -0.000 C 
ATOM     21  C   UNL     1      33.938 -22.016 -19.455  0.00  0.00    -0.000 C 
ENDBRANCH  15  16
ENDBRANCH  13  15
BRANCH   5  22
ATOM     22  C   UNL     1      34.853 -17.432 -25.715  0.00  0.00    +0.130 C 
BRANCH  22  23
ATOM     23  C   UNL     1      34.102 -18.698 -25.337  0.00  0.00    +0.159 C 
BRANCH  23  24
ATOM     24  O   UNL     1      34.845 -19.414 -24.357  0.00  0.00    -0.380 OA
ATOM     25  H   UNL     1      34.316 -20.160 -24.033  0.00  0.00    +0.211 HD
ENDBRANCH  23  24
ENDBRANCH  22  23
ENDBRANCH   5  22
TORSDOF 5
ENDMDL
MODEL 7
REMARK VINA RESULT:      -8.7      2.536      6.852
REMARK  Name = 4592
REMARK  5 active torsions:
REMARK  status: ('A' for Active; 'I' for Inactive)
REMARK    1  A    between atoms: N_5  and  C_22
REMARK    2  A    between atoms: N_13  and  C_15
REMARK    3  A    between atoms: C_15  and  C_16
REMARK    4  A    between atoms: C_22  and  C_23
REMARK    5  A    between atoms: C_23  and  O_24
REMARK                            x       y       z     vdW  Elec       q    Type
REMARK                         _______ _______ _______ _____ _____    ______ ____
ROOT
ATOM      1  N   UNL     1      33.802 -21.508 -19.408  0.00  0.00    -0.259 N 
ATOM      2  N   UNL     1      32.004 -22.258 -17.958  0.00  0.00    -0.311 NA
ATOM      3  N   UNL     1      35.549 -22.389 -18.337  0.00  0.00    -0.240 NA
ATOM      4  N   UNL     1      32.861 -23.564 -16.083  0.00  0.00    -0.311 NA
ATOM      5  N   UNL     1      30.570 -23.153 -16.340  0.00  0.00    -0.256 N 
ATOM      6  C   UNL     1      34.390 -22.697 -17.670  0.00  0.00    +0.167 C 
ATOM      7  C   UNL     1      33.291 -22.159 -18.321  0.00  0.00    +0.220 C 
ATOM      8  C   UNL     1      34.140 -23.423 -16.509  0.00  0.00    +0.215 C 
ATOM      9  C   UNL     1      31.887 -22.981 -16.823  0.00  0.00    +0.202 C 
ATOM     10  C   UNL     1      35.162 -21.675 -19.373  0.00  0.00    +0.222 C 
ATOM     11  C   UNL     1      33.061 -20.781 -20.409  0.00  0.00    +0.117 C 
ATOM     12  H   UNL     1      29.827 -22.746 -16.842  0.00  0.00    +0.160 HD
ATOM     13  N   UNL     1      35.194 -24.004 -15.785  0.00  0.00    -0.302 N 
ATOM     14  H   UNL     1      36.114 -23.885 -16.117  0.00  0.00    +0.150 HD
ENDROOT
BRANCH  13  15
ATOM     15  C   UNL     1      34.994 -24.761 -14.585  0.00  0.00    +0.116 C 
BRANCH  15  16
ATOM     16  C   UNL     1      36.135 -24.545 -13.629  0.00  0.00    -0.003 C 
ATOM     17  C   UNL     1      37.114 -25.520 -13.500  0.00  0.00    -0.003 C 
ATOM     18  C   UNL     1      36.196 -23.371 -12.888  0.00  0.00    -0.003 C 
ATOM     19  C   UNL     1      38.173 -25.320 -12.613  0.00  0.00    -0.000 C 
ATOM     20  C   UNL     1      37.254 -23.172 -12.001  0.00  0.00    -0.000 C 
ATOM     21  C   UNL     1      38.243 -24.146 -11.864  0.00  0.00    -0.000 C 
ENDBRANCH  15  16
ENDBRANCH  13  15
BRANCH   5  22
ATOM     22  C   UNL     1      30.272 -23.890 -15.154  0.00  0.00    +0.130 C 
BRANCH  22  23
ATOM     23  C   UNL     1      28.949 -24.621 -15.314  0.00  0.00    +0.159 C 
BRANCH  23  24
ATOM     24  O   UNL     1      28.812 -25.585 -14.277  0.00  0.00    -0.380 OA
ATOM     25  H   UNL     1      29.256 -26.406 -14.539  0.00  0.00    +0.211 HD
ENDBRANCH  23  24
ENDBRANCH  22  23
ENDBRANCH   5  22
TORSDOF 5
ENDMDL
MODEL 8
REMARK VINA RESULT:      -8.5      1.709      5.902
REMARK  Name = 4592
REMARK  5 active torsions:
REMARK  status: ('A' for Active; 'I' for Inactive)
REMARK    1  A    between atoms: N_5  and  C_22
REMARK    2  A    between atoms: N_13  and  C_15
REMARK    3  A    between atoms: C_15  and  C_16
REMARK    4  A    between atoms: C_22  and  C_23
REMARK    5  A    between atoms: C_23  and  O_24
REMARK                            x       y       z     vdW  Elec       q    Type
REMARK                         _______ _______ _______ _____ _____    ______ ____
ROOT
ATOM      1  N   UNL     1      35.936 -20.910 -19.819  0.00  0.00    -0.259 N 
ATOM      2  N   UNL     1      36.931 -21.814 -17.797  0.00  0.00    -0.311 NA
ATOM      3  N   UNL     1      33.826 -21.576 -19.538  0.00  0.00    -0.240 NA
ATOM      4  N   UNL     1      35.274 -22.982 -16.438  0.00  0.00    -0.311 NA
ATOM      5  N   UNL     1      37.513 -22.825 -15.768  0.00  0.00    -0.256 N 
ATOM      6  C   UNL     1      34.592 -21.993 -18.478  0.00  0.00    +0.167 C 
ATOM      7  C   UNL     1      35.908 -21.588 -18.634  0.00  0.00    +0.220 C 
ATOM      8  C   UNL     1      34.288 -22.716 -17.328  0.00  0.00    +0.215 C 
ATOM      9  C   UNL     1      36.516 -22.522 -16.724  0.00  0.00    +0.202 C 
ATOM     10  C   UNL     1      34.662 -20.931 -20.324  0.00  0.00    +0.222 C 
ATOM     11  C   UNL     1      37.083 -20.286 -20.433  0.00  0.00    +0.117 C 
ATOM     12  H   UNL     1      38.432 -22.513 -15.931  0.00  0.00    +0.160 HD
ATOM     13  N   UNL     1      32.979 -23.168 -17.089  0.00  0.00    -0.302 N 
ATOM     14  H   UNL     1      32.282 -22.961 -17.754  0.00  0.00    +0.150 HD
ENDROOT
BRANCH  13  15
ATOM     15  C   UNL     1      32.611 -23.916 -15.924  0.00  0.00    +0.116 C 
BRANCH  15  16
ATOM     16  C   UNL     1      31.117 -23.927 -15.755  0.00  0.00    -0.003 C 
ATOM     17  C   UNL     1      30.514 -24.969 -15.062  0.00  0.00    -0.003 C 
ATOM     18  C   UNL     1      30.358 -22.896 -16.294  0.00  0.00    -0.003 C 
ATOM     19  C   UNL     1      29.128 -24.980 -14.905  0.00  0.00    -0.000 C 
ATOM     20  C   UNL     1      28.972 -22.908 -16.137  0.00  0.00    -0.000 C 
ATOM     21  C   UNL     1      28.357 -23.950 -15.443  0.00  0.00    -0.000 C 
ENDBRANCH  15  16
ENDBRANCH  13  15
BRANCH   5  22
ATOM     22  C   UNL     1      37.242 -23.564 -14.577  0.00  0.00    +0.130 C 
BRANCH  22  23
ATOM     23  C   UNL     1      37.732 -24.995 -14.730  0.00  0.00    +0.159 C 
BRANCH  23  24
ATOM     24  O   UNL     1      36.807 -25.728 -15.525  0.00  0.00    -0.380 OA
ATOM     25  H   UNL     1      36.578 -26.556 -15.073  0.00  0.00    +0.211 HD
ENDBRANCH  23  24
ENDBRANCH  22  23
ENDBRANCH   5  22
TORSDOF 5
ENDMDL
MODEL 9
REMARK VINA RESULT:      -8.5      2.725      6.504
REMARK  Name = 4592
REMARK  5 active torsions:
REMARK  status: ('A' for Active; 'I' for Inactive)
REMARK    1  A    between atoms: N_5  and  C_22
REMARK    2  A    between atoms: N_13  and  C_15
REMARK    3  A    between atoms: C_15  and  C_16
REMARK    4  A    between atoms: C_22  and  C_23
REMARK    5  A    between atoms: C_23  and  O_24
REMARK                            x       y       z     vdW  Elec       q    Type
REMARK                         _______ _______ _______ _____ _____    ______ ____
ROOT
ATOM      1  N   UNL     1      38.497 -25.432 -13.603  0.00  0.00    -0.259 N 
ATOM      2  N   UNL     1      38.312 -23.703 -15.299  0.00  0.00    -0.311 NA
ATOM      3  N   UNL     1      36.384 -25.497 -12.891  0.00  0.00    -0.240 NA
ATOM      4  N   UNL     1      36.029 -22.857 -15.458  0.00  0.00    -0.311 NA
ATOM      5  N   UNL     1      37.739 -22.023 -16.823  0.00  0.00    -0.256 N 
ATOM      6  C   UNL     1      36.514 -24.557 -13.882  0.00  0.00    +0.167 C 
ATOM      7  C   UNL     1      37.821 -24.501 -14.339  0.00  0.00    +0.220 C 
ATOM      8  C   UNL     1      35.601 -23.692 -14.480  0.00  0.00    +0.215 C 
ATOM      9  C   UNL     1      37.338 -22.913 -15.801  0.00  0.00    +0.202 C 
ATOM     10  C   UNL     1      37.592 -26.003 -12.747  0.00  0.00    +0.222 C 
ATOM     11  C   UNL     1      39.899 -25.760 -13.699  0.00  0.00    +0.117 C 
ATOM     12  H   UNL     1      38.682 -22.025 -17.107  0.00  0.00    +0.160 HD
ATOM     13  N   UNL     1      34.255 -23.681 -14.079  0.00  0.00    -0.302 N 
ATOM     14  H   UNL     1      33.971 -24.298 -13.365  0.00  0.00    +0.150 HD
ENDROOT
BRANCH  13  15
ATOM     15  C   UNL     1      33.274 -22.812 -14.659  0.00  0.00    +0.116 C 
BRANCH  15  16
ATOM     16  C   UNL     1      31.973 -23.541 -14.854  0.00  0.00    -0.003 C 
ATOM     17  C   UNL     1      31.058 -23.072 -15.787  0.00  0.00    -0.003 C 
ATOM     18  C   UNL     1      31.703 -24.675 -14.099  0.00  0.00    -0.003 C 
ATOM     19  C   UNL     1      29.852 -23.748 -15.969  0.00  0.00    -0.000 C 
ATOM     20  C   UNL     1      30.496 -25.351 -14.280  0.00  0.00    -0.000 C 
ATOM     21  C   UNL     1      29.570 -24.887 -15.215  0.00  0.00    -0.000 C 
ENDBRANCH  15  16
ENDBRANCH  13  15
BRANCH   5  22
ATOM     22  C   UNL     1      36.835 -21.121 -17.460  0.00  0.00    +0.130 C 
BRANCH  22  23
ATOM     23  C   UNL     1      36.336 -21.719 -18.765  0.00  0.00    +0.159 C 
BRANCH  23  24
ATOM     24  O   UNL     1      35.186 -22.517 -18.510  0.00  0.00    -0.380 OA
ATOM     25  H   UNL     1      34.973 -23.038 -19.300  0.00  0.00    +0.211 HD
ENDBRANCH  23  24
ENDBRANCH  22  23
ENDBRANCH   5  22
TORSDOF 5
ENDMDL
