MODEL 1
REMARK VINA RESULT:      -7.3      0.000      0.000
REMARK  Name = 7184
REMARK  6 active torsions:
REMARK  status: ('A' for Active; 'I' for Inactive)
REMARK    1  A    between atoms: C_1  and  C_8
REMARK    2  A    between atoms: C_6  and  O_14
REMARK    3  A    between atoms: C_8  and  O_9
REMARK    4  A    between atoms: O_9  and  C_10
REMARK    5  A    between atoms: C_10  and  C_11
REMARK    6  A    between atoms: C_11  and  C_12
REMARK                            x       y       z     vdW  Elec       q    Type
REMARK                         _______ _______ _______ _____ _____    ______ ____
ROOT
ATOM      1  C   UNL     1      34.894 -19.606 -20.984  0.00  0.00    +0.076 C 
ATOM      2  C   UNL     1      33.517 -19.533 -20.916  0.00  0.00    +0.010 C 
ATOM      3  C   UNL     1      35.611 -20.585 -20.327  0.00  0.00    +0.010 C 
ATOM      4  C   UNL     1      32.828 -20.480 -20.158  0.00  0.00    +0.037 C 
ATOM      5  C   UNL     1      34.922 -21.532 -19.569  0.00  0.00    +0.037 C 
ATOM      6  C   UNL     1      33.531 -21.480 -19.485  0.00  0.00    +0.134 C 
ENDROOT
BRANCH   1   8
ATOM      7  O   UNL     1      36.844 -18.531 -21.834  0.00  0.00    -0.245 OA
ATOM      8  C   UNL     1      35.626 -18.597 -21.791  0.00  0.00    +0.341 C 
BRANCH   8   9
ATOM      9  O   UNL     1      34.756 -17.784 -22.452  0.00  0.00    -0.445 OA
BRANCH   9  10
ATOM     10  C   UNL     1      35.005 -16.389 -22.352  0.00  0.00    +0.209 C 
BRANCH  10  11
ATOM     11  C   UNL     1      34.565 -15.908 -20.977  0.00  0.00    +0.047 C 
BRANCH  11  12
ATOM     12  C   UNL     1      33.058 -15.673 -20.918  0.00  0.00    +0.004 C 
ATOM     13  C   UNL     1      32.731 -14.201 -20.722  0.00  0.00    +0.000 C 
ENDBRANCH  11  12
ENDBRANCH  10  11
ENDBRANCH   9  10
ENDBRANCH   8   9
ENDBRANCH   1   8
BRANCH   6  14
ATOM     14  O   UNL     1      32.859 -22.405 -18.747  0.00  0.00    -0.506 OA
ATOM     15  H   UNL     1      32.032 -22.189 -18.365  0.00  0.00    +0.292 HD
ENDBRANCH   6  14
TORSDOF 6
ENDMDL
MODEL 2
REMARK VINA RESULT:      -7.2      0.035      1.292
REMARK  Name = 7184
REMARK  6 active torsions:
REMARK  status: ('A' for Active; 'I' for Inactive)
REMARK    1  A    between atoms: C_1  and  C_8
REMARK    2  A    between atoms: C_6  and  O_14
REMARK    3  A    between atoms: C_8  and  O_9
REMARK    4  A    between atoms: O_9  and  C_10
REMARK    5  A    between atoms: C_10  and  C_11
REMARK    6  A    between atoms: C_11  and  C_12
REMARK                            x       y       z     vdW  Elec       q    Type
REMARK                         _______ _______ _______ _____ _____    ______ ____
ROOT
ATOM      1  C   UNL     1      34.910 -19.614 -20.986  0.00  0.00    +0.076 C 
ATOM      2  C   UNL     1      35.623 -20.585 -20.313  0.00  0.00    +0.010 C 
ATOM      3  C   UNL     1      33.533 -19.543 -20.935  0.00  0.00    +0.010 C 
ATOM      4  C   UNL     1      34.927 -21.529 -19.556  0.00  0.00    +0.037 C 
ATOM      5  C   UNL     1      32.837 -20.487 -20.178  0.00  0.00    +0.037 C 
ATOM      6  C   UNL     1      33.534 -21.479 -19.489  0.00  0.00    +0.134 C 
ENDROOT
BRANCH   1   8
ATOM      7  O   UNL     1      36.871 -18.535 -21.810  0.00  0.00    -0.245 OA
ATOM      8  C   UNL     1      35.652 -18.610 -21.791  0.00  0.00    +0.341 C 
BRANCH   8   9
ATOM      9  O   UNL     1      34.791 -17.813 -22.482  0.00  0.00    -0.445 OA
BRANCH   9  10
ATOM     10  C   UNL     1      35.024 -16.415 -22.391  0.00  0.00    +0.209 C 
BRANCH  10  11
ATOM     11  C   UNL     1      34.577 -15.929 -21.018  0.00  0.00    +0.047 C 
BRANCH  11  12
ATOM     12  C   UNL     1      33.071 -15.688 -20.970  0.00  0.00    +0.004 C 
ATOM     13  C   UNL     1      32.749 -14.228 -20.696  0.00  0.00    +0.000 C 
ENDBRANCH  11  12
ENDBRANCH  10  11
ENDBRANCH   9  10
ENDBRANCH   8   9
ENDBRANCH   1   8
BRANCH   6  14
ATOM     14  O   UNL     1      32.856 -22.398 -18.749  0.00  0.00    -0.506 OA
ATOM     15  H   UNL     1      32.843 -23.296 -19.014  0.00  0.00    +0.292 HD
ENDBRANCH   6  14
TORSDOF 6
ENDMDL
MODEL 3
REMARK VINA RESULT:      -7.1      2.079      5.665
REMARK  Name = 7184
REMARK  6 active torsions:
REMARK  status: ('A' for Active; 'I' for Inactive)
REMARK    1  A    between atoms: C_1  and  C_8
REMARK    2  A    between atoms: C_6  and  O_14
REMARK    3  A    between atoms: C_8  and  O_9
REMARK    4  A    between atoms: O_9  and  C_10
REMARK    5  A    between atoms: C_10  and  C_11
REMARK    6  A    between atoms: C_11  and  C_12
REMARK                            x       y       z     vdW  Elec       q    Type
REMARK                         _______ _______ _______ _____ _____    ______ ____
ROOT
ATOM      1  C   UNL     1      34.929 -17.121 -22.823  0.00  0.00    +0.076 C 
ATOM      2  C   UNL     1      35.040 -17.927 -23.939  0.00  0.00    +0.010 C 
ATOM      3  C   UNL     1      34.393 -15.851 -22.884  0.00  0.00    +0.010 C 
ATOM      4  C   UNL     1      34.597 -17.439 -25.169  0.00  0.00    +0.037 C 
ATOM      5  C   UNL     1      33.950 -15.364 -24.115  0.00  0.00    +0.037 C 
ATOM      6  C   UNL     1      34.052 -16.158 -25.256  0.00  0.00    +0.134 C 
ENDROOT
BRANCH   1   8
ATOM      7  O   UNL     1      35.403 -16.974 -20.492  0.00  0.00    -0.245 OA
ATOM      8  C   UNL     1      35.400 -17.641 -21.515  0.00  0.00    +0.341 C 
BRANCH   8   9
ATOM      9  O   UNL     1      35.814 -18.933 -21.629  0.00  0.00    -0.445 OA
BRANCH   9  10
ATOM     10  C   UNL     1      35.254 -19.853 -20.702  0.00  0.00    +0.209 C 
BRANCH  10  11
ATOM     11  C   UNL     1      33.741 -19.866 -20.875  0.00  0.00    +0.047 C 
BRANCH  11  12
ATOM     12  C   UNL     1      33.069 -20.811 -19.883  0.00  0.00    +0.004 C 
ATOM     13  C   UNL     1      34.051 -21.834 -19.335  0.00  0.00    +0.000 C 
ENDBRANCH  11  12
ENDBRANCH  10  11
ENDBRANCH   9  10
ENDBRANCH   8   9
ENDBRANCH   1   8
BRANCH   6  14
ATOM     14  O   UNL     1      33.619 -15.684 -26.456  0.00  0.00    -0.506 OA
ATOM     15  H   UNL     1      34.076 -14.982 -26.876  0.00  0.00    +0.292 HD
ENDBRANCH   6  14
TORSDOF 6
ENDMDL
MODEL 4
REMARK VINA RESULT:      -7.0      2.516      6.259
REMARK  Name = 7184
REMARK  6 active torsions:
REMARK  status: ('A' for Active; 'I' for Inactive)
REMARK    1  A    between atoms: C_1  and  C_8
REMARK    2  A    between atoms: C_6  and  O_14
REMARK    3  A    between atoms: C_8  and  O_9
REMARK    4  A    between atoms: O_9  and  C_10
REMARK    5  A    between atoms: C_10  and  C_11
REMARK    6  A    between atoms: C_11  and  C_12
REMARK                            x       y       z     vdW  Elec       q    Type
REMARK                         _______ _______ _______ _____ _____    ______ ____
ROOT
ATOM      1  C   UNL     1      33.988 -21.578 -19.268  0.00  0.00    +0.076 C 
ATOM      2  C   UNL     1      33.158 -20.761 -20.009  0.00  0.00    +0.010 C 
ATOM      3  C   UNL     1      35.361 -21.545 -19.400  0.00  0.00    +0.010 C 
ATOM      4  C   UNL     1      33.727 -19.874 -20.923  0.00  0.00    +0.037 C 
ATOM      5  C   UNL     1      35.930 -20.658 -20.314  0.00  0.00    +0.037 C 
ATOM      6  C   UNL     1      35.113 -19.823 -21.075  0.00  0.00    +0.134 C 
ENDROOT
BRANCH   1   8
ATOM      7  O   UNL     1      32.177 -22.608 -18.108  0.00  0.00    -0.245 OA
ATOM      8  C   UNL     1      33.381 -22.522 -18.295  0.00  0.00    +0.341 C 
BRANCH   8   9
ATOM      9  O   UNL     1      34.343 -23.250 -17.665  0.00  0.00    -0.445 OA
BRANCH   9  10
ATOM     10  C   UNL     1      34.126 -23.510 -16.285  0.00  0.00    +0.209 C 
BRANCH  10  11
ATOM     11  C   UNL     1      35.152 -22.733 -15.471  0.00  0.00    +0.047 C 
BRANCH  11  12
ATOM     12  C   UNL     1      36.579 -23.074 -15.890  0.00  0.00    +0.004 C 
ATOM     13  C   UNL     1      37.333 -21.838 -16.354  0.00  0.00    +0.000 C 
ENDBRANCH  11  12
ENDBRANCH  10  11
ENDBRANCH   9  10
ENDBRANCH   8   9
ENDBRANCH   1   8
BRANCH   6  14
ATOM     14  O   UNL     1      35.668 -18.956 -21.965  0.00  0.00    -0.506 OA
ATOM     15  H   UNL     1      35.893 -18.087 -21.696  0.00  0.00    +0.292 HD
ENDBRANCH   6  14
TORSDOF 6
ENDMDL
MODEL 5
REMARK VINA RESULT:      -6.9      2.754      6.482
REMARK  Name = 7184
REMARK  6 active torsions:
REMARK  status: ('A' for Active; 'I' for Inactive)
REMARK    1  A    between atoms: C_1  and  C_8
REMARK    2  A    between atoms: C_6  and  O_14
REMARK    3  A    between atoms: C_8  and  O_9
REMARK    4  A    between atoms: O_9  and  C_10
REMARK    5  A    between atoms: C_10  and  C_11
REMARK    6  A    between atoms: C_11  and  C_12
REMARK                            x       y       z     vdW  Elec       q    Type
REMARK                         _______ _______ _______ _____ _____    ______ ____
ROOT
ATOM      1  C   UNL     1      34.063 -21.646 -19.463  0.00  0.00    +0.076 C 
ATOM      2  C   UNL     1      35.437 -21.546 -19.531  0.00  0.00    +0.010 C 
ATOM      3  C   UNL     1      33.228 -20.741 -20.087  0.00  0.00    +0.010 C 
ATOM      4  C   UNL     1      36.002 -20.493 -20.252  0.00  0.00    +0.037 C 
ATOM      5  C   UNL     1      33.792 -19.689 -20.809  0.00  0.00    +0.037 C 
ATOM      6  C   UNL     1      35.179 -19.565 -20.891  0.00  0.00    +0.134 C 
ENDROOT
BRANCH   1   8
ATOM      7  O   UNL     1      33.857 -23.920 -18.775  0.00  0.00    -0.245 OA
ATOM      8  C   UNL     1      33.463 -22.767 -18.695  0.00  0.00    +0.341 C 
BRANCH   8   9
ATOM      9  O   UNL     1      32.440 -22.323 -17.913  0.00  0.00    -0.445 OA
BRANCH   9  10
ATOM     10  C   UNL     1      32.105 -23.141 -16.801  0.00  0.00    +0.209 C 
BRANCH  10  11
ATOM     11  C   UNL     1      30.646 -22.900 -16.435  0.00  0.00    +0.047 C 
BRANCH  11  12
ATOM     12  C   UNL     1      30.443 -22.862 -14.923  0.00  0.00    +0.004 C 
ATOM     13  C   UNL     1      31.768 -22.933 -14.181  0.00  0.00    +0.000 C 
ENDBRANCH  11  12
ENDBRANCH  10  11
ENDBRANCH   9  10
ENDBRANCH   8   9
ENDBRANCH   1   8
BRANCH   6  14
ATOM     14  O   UNL     1      35.730 -18.540 -21.597  0.00  0.00    -0.506 OA
ATOM     15  H   UNL     1      36.464 -18.698 -22.158  0.00  0.00    +0.292 HD
ENDBRANCH   6  14
TORSDOF 6
ENDMDL
MODEL 6
REMARK VINA RESULT:      -6.9      2.025      2.968
REMARK  Name = 7184
REMARK  6 active torsions:
REMARK  status: ('A' for Active; 'I' for Inactive)
REMARK    1  A    between atoms: C_1  and  C_8
REMARK    2  A    between atoms: C_6  and  O_14
REMARK    3  A    between atoms: C_8  and  O_9
REMARK    4  A    between atoms: O_9  and  C_10
REMARK    5  A    between atoms: C_10  and  C_11
REMARK    6  A    between atoms: C_11  and  C_12
REMARK                            x       y       z     vdW  Elec       q    Type
REMARK                         _______ _______ _______ _____ _____    ______ ____
ROOT
ATOM      1  C   UNL     1      34.483 -19.951 -20.505  0.00  0.00    +0.076 C 
ATOM      2  C   UNL     1      35.559 -20.752 -20.178  0.00  0.00    +0.010 C 
ATOM      3  C   UNL     1      33.183 -20.314 -20.220  0.00  0.00    +0.010 C 
ATOM      4  C   UNL     1      35.322 -21.970 -19.538  0.00  0.00    +0.037 C 
ATOM      5  C   UNL     1      32.947 -21.532 -19.581  0.00  0.00    +0.037 C 
ATOM      6  C   UNL     1      34.016 -22.359 -19.240  0.00  0.00    +0.134 C 
ENDROOT
BRANCH   1   8
ATOM      7  O   UNL     1      33.985 -17.696 -21.098  0.00  0.00    -0.245 OA
ATOM      8  C   UNL     1      34.736 -18.655 -21.185  0.00  0.00    +0.341 C 
BRANCH   8   9
ATOM      9  O   UNL     1      35.895 -18.702 -21.898  0.00  0.00    -0.445 OA
BRANCH   9  10
ATOM     10  C   UNL     1      35.842 -18.165 -23.212  0.00  0.00    +0.209 C 
BRANCH  10  11
ATOM     11  C   UNL     1      34.987 -19.075 -24.083  0.00  0.00    +0.047 C 
BRANCH  11  12
ATOM     12  C   UNL     1      34.246 -18.290 -25.161  0.00  0.00    +0.004 C 
ATOM     13  C   UNL     1      34.700 -16.840 -25.206  0.00  0.00    +0.000 C 
ENDBRANCH  11  12
ENDBRANCH  10  11
ENDBRANCH   9  10
ENDBRANCH   8   9
ENDBRANCH   1   8
BRANCH   6  14
ATOM     14  O   UNL     1      33.786 -23.545 -18.615  0.00  0.00    -0.506 OA
ATOM     15  H   UNL     1      33.926 -24.351 -19.073  0.00  0.00    +0.292 HD
ENDBRANCH   6  14
TORSDOF 6
ENDMDL
MODEL 7
REMARK VINA RESULT:      -6.8      2.452      6.482
REMARK  Name = 7184
REMARK  6 active torsions:
REMARK  status: ('A' for Active; 'I' for Inactive)
REMARK    1  A    between atoms: C_1  and  C_8
REMARK    2  A    between atoms: C_6  and  O_14
REMARK    3  A    between atoms: C_8  and  O_9
REMARK    4  A    between atoms: O_9  and  C_10
REMARK    5  A    between atoms: C_10  and  C_11
REMARK    6  A    between atoms: C_11  and  C_12
REMARK                            x       y       z     vdW  Elec       q    Type
REMARK                         _______ _______ _______ _____ _____    ______ ____
ROOT
ATOM      1  C   UNL     1      34.065 -21.472 -19.279  0.00  0.00    +0.076 C 
ATOM      2  C   UNL     1      35.441 -21.415 -19.375  0.00  0.00    +0.010 C 
ATOM      3  C   UNL     1      33.241 -20.665 -20.036  0.00  0.00    +0.010 C 
ATOM      4  C   UNL     1      36.017 -20.509 -20.267  0.00  0.00    +0.037 C 
ATOM      5  C   UNL     1      33.817 -19.759 -20.927  0.00  0.00    +0.037 C 
ATOM      6  C   UNL     1      35.205 -19.682 -21.043  0.00  0.00    +0.134 C 
ENDROOT
BRANCH   1   8
ATOM      7  O   UNL     1      32.247 -22.547 -18.173  0.00  0.00    -0.245 OA
ATOM      8  C   UNL     1      33.453 -22.437 -18.330  0.00  0.00    +0.341 C 
BRANCH   8   9
ATOM      9  O   UNL     1      34.413 -23.154 -17.685  0.00  0.00    -0.445 OA
BRANCH   9  10
ATOM     10  C   UNL     1      34.099 -23.570 -16.363  0.00  0.00    +0.209 C 
BRANCH  10  11
ATOM     11  C   UNL     1      35.386 -23.653 -15.553  0.00  0.00    +0.047 C 
BRANCH  11  12
ATOM     12  C   UNL     1      36.184 -22.354 -15.631  0.00  0.00    +0.004 C 
ATOM     13  C   UNL     1      37.592 -22.597 -16.150  0.00  0.00    +0.000 C 
ENDBRANCH  11  12
ENDBRANCH  10  11
ENDBRANCH   9  10
ENDBRANCH   8   9
ENDBRANCH   1   8
BRANCH   6  14
ATOM     14  O   UNL     1      35.767 -18.800 -21.914  0.00  0.00    -0.506 OA
ATOM     15  H   UNL     1      36.274 -19.114 -22.636  0.00  0.00    +0.292 HD
ENDBRANCH   6  14
TORSDOF 6
ENDMDL
MODEL 8
REMARK VINA RESULT:      -6.7      1.054      1.348
REMARK  Name = 7184
REMARK  6 active torsions:
REMARK  status: ('A' for Active; 'I' for Inactive)
REMARK    1  A    between atoms: C_1  and  C_8
REMARK    2  A    between atoms: C_6  and  O_14
REMARK    3  A    between atoms: C_8  and  O_9
REMARK    4  A    between atoms: O_9  and  C_10
REMARK    5  A    between atoms: C_10  and  C_11
REMARK    6  A    between atoms: C_11  and  C_12
REMARK                            x       y       z     vdW  Elec       q    Type
REMARK                         _______ _______ _______ _____ _____    ______ ____
ROOT
ATOM      1  C   UNL     1      35.242 -19.348 -20.935  0.00  0.00    +0.076 C 
ATOM      2  C   UNL     1      33.985 -19.887 -20.750  0.00  0.00    +0.010 C 
ATOM      3  C   UNL     1      36.373 -19.914 -20.381  0.00  0.00    +0.010 C 
ATOM      4  C   UNL     1      33.853 -21.041 -19.977  0.00  0.00    +0.037 C 
ATOM      5  C   UNL     1      36.241 -21.067 -19.607  0.00  0.00    +0.037 C 
ATOM      6  C   UNL     1      34.981 -21.631 -19.405  0.00  0.00    +0.134 C 
ENDROOT
BRANCH   1   8
ATOM      7  O   UNL     1      35.603 -18.142 -22.959  0.00  0.00    -0.245 OA
ATOM      8  C   UNL     1      35.382 -18.121 -21.759  0.00  0.00    +0.341 C 
BRANCH   8   9
ATOM      9  O   UNL     1      35.230 -17.006 -20.993  0.00  0.00    -0.445 OA
BRANCH   9  10
ATOM     10  C   UNL     1      34.429 -15.971 -21.547  0.00  0.00    +0.209 C 
BRANCH  10  11
ATOM     11  C   UNL     1      33.480 -15.454 -20.475  0.00  0.00    +0.047 C 
BRANCH  11  12
ATOM     12  C   UNL     1      32.761 -14.185 -20.923  0.00  0.00    +0.004 C 
ATOM     13  C   UNL     1      32.698 -14.086 -22.439  0.00  0.00    +0.000 C 
ENDBRANCH  11  12
ENDBRANCH  10  11
ENDBRANCH   9  10
ENDBRANCH   8   9
ENDBRANCH   1   8
BRANCH   6  14
ATOM     14  O   UNL     1      34.852 -22.757 -18.653  0.00  0.00    -0.506 OA
ATOM     15  H   UNL     1      34.001 -23.066 -18.413  0.00  0.00    +0.292 HD
ENDBRANCH   6  14
TORSDOF 6
ENDMDL
MODEL 9
REMARK VINA RESULT:      -6.6      3.391      5.488
REMARK  Name = 7184
REMARK  6 active torsions:
REMARK  status: ('A' for Active; 'I' for Inactive)
REMARK    1  A    between atoms: C_1  and  C_8
REMARK    2  A    between atoms: C_6  and  O_14
REMARK    3  A    between atoms: C_8  and  O_9
REMARK    4  A    between atoms: O_9  and  C_10
REMARK    5  A    between atoms: C_10  and  C_11
REMARK    6  A    between atoms: C_11  and  C_12
REMARK                            x       y       z     vdW  Elec       q    Type
REMARK                         _______ _______ _______ _____ _____    ______ ____
ROOT
ATOM      1  C   UNL     1      33.243 -23.141 -17.065  0.00  0.00    +0.076 C 
ATOM      2  C   UNL     1      31.958 -23.151 -16.562  0.00  0.00    +0.010 C 
ATOM      3  C   UNL     1      34.352 -23.255 -16.250  0.00  0.00    +0.010 C 
ATOM      4  C   UNL     1      31.773 -23.278 -15.185  0.00  0.00    +0.037 C 
ATOM      5  C   UNL     1      34.167 -23.382 -14.873  0.00  0.00    +0.037 C 
ATOM      6  C   UNL     1      32.878 -23.394 -14.341  0.00  0.00    +0.134 C 
ENDROOT
BRANCH   1   8
ATOM      7  O   UNL     1      33.935 -23.880 -19.223  0.00  0.00    -0.245 OA
ATOM      8  C   UNL     1      33.439 -23.006 -18.531  0.00  0.00    +0.341 C 
BRANCH   8   9
ATOM      9  O   UNL     1      32.994 -21.795 -18.967  0.00  0.00    -0.445 OA
BRANCH   9  10
ATOM     10  C   UNL     1      33.885 -21.066 -19.799  0.00  0.00    +0.209 C 
BRANCH  10  11
ATOM     11  C   UNL     1      33.083 -20.063 -20.618  0.00  0.00    +0.047 C 
BRANCH  11  12
ATOM     12  C   UNL     1      33.978 -19.260 -21.558  0.00  0.00    +0.004 C 
ATOM     13  C   UNL     1      35.426 -19.274 -21.097  0.00  0.00    +0.000 C 
ENDBRANCH  11  12
ENDBRANCH  10  11
ENDBRANCH   9  10
ENDBRANCH   8   9
ENDBRANCH   1   8
BRANCH   6  14
ATOM     14  O   UNL     1      32.697 -23.521 -12.998  0.00  0.00    -0.506 OA
ATOM     15  H   UNL     1      31.840 -23.674 -12.653  0.00  0.00    +0.292 HD
ENDBRANCH   6  14
TORSDOF 6
ENDMDL
