MODEL 1
REMARK VINA RESULT:      -8.6      0.000      0.000
REMARK  Name = 11616111
REMARK  4 active torsions:
REMARK  status: ('A' for Active; 'I' for Inactive)
REMARK    1  A    between atoms: C_4  and  C_12
REMARK    2  A    between atoms: C_12  and  N_13
REMARK    3  A    between atoms: N_13  and  S_15
REMARK    4  A    between atoms: S_15  and  N_18
REMARK                            x       y       z     vdW  Elec       q    Type
REMARK                         _______ _______ _______ _____ _____    ______ ____
ROOT
ATOM      1 CL   UNL     1      30.964 -22.890 -15.203  0.00  0.00    -0.082 Cl
ATOM      2  O   UNL     1      36.482 -24.722 -14.331  0.00  0.00    -0.471 OA
ATOM      3  O   UNL     1      34.603 -24.630 -12.148  0.00  0.00    -0.468 OA
ATOM      4  C   UNL     1      36.669 -25.454 -13.112  0.00  0.00    +0.227 C 
ATOM      5  C   UNL     1      36.020 -24.702 -11.958  0.00  0.00    +0.250 C 
ATOM      6  C   UNL     1      35.191 -24.289 -14.480  0.00  0.00    +0.172 C 
ATOM      7  C   UNL     1      34.277 -24.255 -13.425  0.00  0.00    +0.173 C 
ATOM      8  C   UNL     1      34.807 -23.862 -15.752  0.00  0.00    +0.041 C 
ATOM      9  C   UNL     1      32.965 -23.834 -13.650  0.00  0.00    +0.051 C 
ATOM     10  C   UNL     1      33.499 -23.429 -15.973  0.00  0.00    +0.015 C 
ATOM     11  C   UNL     1      32.579 -23.420 -14.924  0.00  0.00    +0.061 C 
ENDROOT
BRANCH   4  12
ATOM     12  C   UNL     1      38.165 -25.618 -12.895  0.00  0.00    +0.140 C 
BRANCH  12  13
ATOM     13  N   UNL     1      38.807 -26.192 -14.069  0.00  0.00    -0.166 NA
ATOM     14  H   UNL     1      39.242 -27.067 -13.775  0.00  0.00    +0.150 HD
BRANCH  13  15
ATOM     15  S   UNL     1      40.016 -25.275 -14.887  0.00  0.00    +0.093 S 
ATOM     16  O   UNL     1      40.860 -24.632 -13.896  0.00  0.00    -0.142 OA
ATOM     17  O   UNL     1      40.602 -26.093 -15.932  0.00  0.00    -0.142 OA
BRANCH  15  18
ATOM     18  N   UNL     1      39.040 -24.069 -15.621  0.00  0.00    -0.193 NA
ATOM     19  H   UNL     1      39.393 -23.146 -15.368  0.00  0.00    +0.145 HD
ATOM     20  H   UNL     1      38.078 -24.165 -15.295  0.00  0.00    +0.145 HD
ENDBRANCH  15  18
ENDBRANCH  13  15
ENDBRANCH  12  13
ENDBRANCH   4  12
TORSDOF 4
ENDMDL
MODEL 2
REMARK VINA RESULT:      -8.4      3.647      4.900
REMARK  Name = 11616111
REMARK  4 active torsions:
REMARK  status: ('A' for Active; 'I' for Inactive)
REMARK    1  A    between atoms: C_4  and  C_12
REMARK    2  A    between atoms: C_12  and  N_13
REMARK    3  A    between atoms: N_13  and  S_15
REMARK    4  A    between atoms: S_15  and  N_18
REMARK                            x       y       z     vdW  Elec       q    Type
REMARK                         _______ _______ _______ _____ _____    ______ ____
ROOT
ATOM      1 CL   UNL     1      36.008 -20.818 -20.561  0.00  0.00    -0.082 Cl
ATOM      2  O   UNL     1      34.322 -23.571 -15.647  0.00  0.00    -0.471 OA
ATOM      3  O   UNL     1      36.972 -22.461 -15.874  0.00  0.00    -0.468 OA
ATOM      4  C   UNL     1      35.149 -23.294 -14.510  0.00  0.00    +0.227 C 
ATOM      5  C   UNL     1      36.616 -23.442 -14.894  0.00  0.00    +0.250 C 
ATOM      6  C   UNL     1      34.767 -22.935 -16.776  0.00  0.00    +0.172 C 
ATOM      7  C   UNL     1      36.047 -22.387 -16.882  0.00  0.00    +0.173 C 
ATOM      8  C   UNL     1      33.881 -22.855 -17.851  0.00  0.00    +0.041 C 
ATOM      9  C   UNL     1      36.428 -21.721 -18.048  0.00  0.00    +0.051 C 
ATOM     10  C   UNL     1      34.268 -22.201 -19.021  0.00  0.00    +0.015 C 
ATOM     11  C   UNL     1      35.537 -21.630 -19.117  0.00  0.00    +0.061 C 
ENDROOT
BRANCH   4  12
ATOM     12  C   UNL     1      34.765 -24.270 -13.409  0.00  0.00    +0.140 C 
BRANCH  12  13
ATOM     13  N   UNL     1      34.852 -23.644 -12.097  0.00  0.00    -0.166 NA
ATOM     14  H   UNL     1      35.077 -22.660 -12.249  0.00  0.00    +0.150 HD
BRANCH  13  15
ATOM     15  S   UNL     1      35.994 -24.254 -10.959  0.00  0.00    +0.093 S 
ATOM     16  O   UNL     1      37.127 -23.348 -10.907  0.00  0.00    -0.142 OA
ATOM     17  O   UNL     1      35.295 -24.628  -9.744  0.00  0.00    -0.142 OA
BRANCH  15  18
ATOM     18  N   UNL     1      36.493 -25.686 -11.764  0.00  0.00    -0.193 NA
ATOM     19  H   UNL     1      37.422 -25.953 -11.438  0.00  0.00    +0.145 HD
ATOM     20  H   UNL     1      36.521 -25.518 -12.770  0.00  0.00    +0.145 HD
ENDBRANCH  15  18
ENDBRANCH  13  15
ENDBRANCH  12  13
ENDBRANCH   4  12
TORSDOF 4
ENDMDL
MODEL 3
REMARK VINA RESULT:      -8.1      3.616      4.789
REMARK  Name = 11616111
REMARK  4 active torsions:
REMARK  status: ('A' for Active; 'I' for Inactive)
REMARK    1  A    between atoms: C_4  and  C_12
REMARK    2  A    between atoms: C_12  and  N_13
REMARK    3  A    between atoms: N_13  and  S_15
REMARK    4  A    between atoms: S_15  and  N_18
REMARK                            x       y       z     vdW  Elec       q    Type
REMARK                         _______ _______ _______ _____ _____    ______ ____
ROOT
ATOM      1 CL   UNL     1      36.004 -21.257 -20.192  0.00  0.00    -0.082 Cl
ATOM      2  O   UNL     1      35.413 -23.294 -14.709  0.00  0.00    -0.471 OA
ATOM      3  O   UNL     1      33.243 -23.499 -16.594  0.00  0.00    -0.468 OA
ATOM      4  C   UNL     1      34.318 -24.204 -14.539  0.00  0.00    +0.227 C 
ATOM      5  C   UNL     1      33.064 -23.623 -15.179  0.00  0.00    +0.250 C 
ATOM      6  C   UNL     1      35.496 -22.821 -15.992  0.00  0.00    +0.172 C 
ATOM      7  C   UNL     1      34.449 -22.930 -16.908  0.00  0.00    +0.173 C 
ATOM      8  C   UNL     1      36.690 -22.201 -16.364  0.00  0.00    +0.041 C 
ATOM      9  C   UNL     1      34.608 -22.458 -18.212  0.00  0.00    +0.051 C 
ATOM     10  C   UNL     1      36.844 -21.717 -17.664  0.00  0.00    +0.015 C 
ATOM     11  C   UNL     1      35.807 -21.850 -18.588  0.00  0.00    +0.061 C 
ENDROOT
BRANCH   4  12
ATOM     12  C   UNL     1      34.126 -24.424 -13.046  0.00  0.00    +0.140 C 
BRANCH  12  13
ATOM     13  N   UNL     1      34.964 -23.521 -12.270  0.00  0.00    -0.166 NA
ATOM     14  H   UNL     1      35.531 -22.993 -12.934  0.00  0.00    +0.150 HD
BRANCH  13  15
ATOM     15  S   UNL     1      36.043 -24.187 -11.101  0.00  0.00    +0.093 S 
ATOM     16  O   UNL     1      37.235 -23.360 -11.047  0.00  0.00    -0.142 OA
ATOM     17  O   UNL     1      35.301 -24.487  -9.892  0.00  0.00    -0.142 OA
BRANCH  15  18
ATOM     18  N   UNL     1      36.454 -25.665 -11.871  0.00  0.00    -0.193 NA
ATOM     19  H   UNL     1      36.534 -26.403 -11.171  0.00  0.00    +0.145 HD
ATOM     20  H   UNL     1      37.344 -25.560 -12.357  0.00  0.00    +0.145 HD
ENDBRANCH  15  18
ENDBRANCH  13  15
ENDBRANCH  12  13
ENDBRANCH   4  12
TORSDOF 4
ENDMDL
MODEL 4
REMARK VINA RESULT:      -8.0      6.602      8.376
REMARK  Name = 11616111
REMARK  4 active torsions:
REMARK  status: ('A' for Active; 'I' for Inactive)
REMARK    1  A    between atoms: C_4  and  C_12
REMARK    2  A    between atoms: C_12  and  N_13
REMARK    3  A    between atoms: N_13  and  S_15
REMARK    4  A    between atoms: S_15  and  N_18
REMARK                            x       y       z     vdW  Elec       q    Type
REMARK                         _______ _______ _______ _____ _____    ______ ____
ROOT
ATOM      1 CL   UNL     1      37.030 -19.971 -20.880  0.00  0.00    -0.082 Cl
ATOM      2  O   UNL     1      32.233 -22.199 -18.314  0.00  0.00    -0.471 OA
ATOM      3  O   UNL     1      34.865 -22.989 -17.445  0.00  0.00    -0.468 OA
ATOM      4  C   UNL     1      32.481 -22.807 -17.040  0.00  0.00    +0.227 C 
ATOM      5  C   UNL     1      33.683 -23.738 -17.141  0.00  0.00    +0.250 C 
ATOM      6  C   UNL     1      33.380 -21.720 -18.890  0.00  0.00    +0.172 C 
ATOM      7  C   UNL     1      34.655 -22.094 -18.462  0.00  0.00    +0.173 C 
ATOM      8  C   UNL     1      33.233 -20.829 -19.953  0.00  0.00    +0.041 C 
ATOM      9  C   UNL     1      35.786 -21.544 -19.068  0.00  0.00    +0.051 C 
ATOM     10  C   UNL     1      34.364 -20.290 -20.568  0.00  0.00    +0.015 C 
ATOM     11  C   UNL     1      35.638 -20.643 -20.123  0.00  0.00    +0.061 C 
ENDROOT
BRANCH   4  12
ATOM     12  C   UNL     1      31.227 -23.566 -16.636  0.00  0.00    +0.140 C 
BRANCH  12  13
ATOM     13  N   UNL     1      30.032 -22.766 -16.867  0.00  0.00    -0.166 NA
ATOM     14  H   UNL     1      30.152 -21.893 -16.353  0.00  0.00    +0.150 HD
BRANCH  13  15
ATOM     15  S   UNL     1      28.498 -23.413 -16.415  0.00  0.00    +0.093 S 
ATOM     16  O   UNL     1      27.765 -23.751 -17.621  0.00  0.00    -0.142 OA
ATOM     17  O   UNL     1      28.692 -24.399 -15.371  0.00  0.00    -0.142 OA
BRANCH  15  18
ATOM     18  N   UNL     1      27.773 -22.019 -15.723  0.00  0.00    -0.193 NA
ATOM     19  H   UNL     1      27.323 -21.470 -16.456  0.00  0.00    +0.145 HD
ATOM     20  H   UNL     1      28.488 -21.454 -15.266  0.00  0.00    +0.145 HD
ENDBRANCH  15  18
ENDBRANCH  13  15
ENDBRANCH  12  13
ENDBRANCH   4  12
TORSDOF 4
ENDMDL
MODEL 5
REMARK VINA RESULT:      -8.0      2.181      3.361
REMARK  Name = 11616111
REMARK  4 active torsions:
REMARK  status: ('A' for Active; 'I' for Inactive)
REMARK    1  A    between atoms: C_4  and  C_12
REMARK    2  A    between atoms: C_12  and  N_13
REMARK    3  A    between atoms: N_13  and  S_15
REMARK    4  A    between atoms: S_15  and  N_18
REMARK                            x       y       z     vdW  Elec       q    Type
REMARK                         _______ _______ _______ _____ _____    ______ ____
ROOT
ATOM      1 CL   UNL     1      28.633 -23.993 -15.761  0.00  0.00    -0.082 Cl
ATOM      2  O   UNL     1      34.227 -24.463 -14.015  0.00  0.00    -0.471 OA
ATOM      3  O   UNL     1      33.547 -22.958 -16.376  0.00  0.00    -0.468 OA
ATOM      4  C   UNL     1      35.104 -23.489 -14.595  0.00  0.00    +0.227 C 
ATOM      5  C   UNL     1      34.873 -23.422 -16.099  0.00  0.00    +0.250 C 
ATOM      6  C   UNL     1      32.942 -24.337 -14.470  0.00  0.00    +0.172 C 
ATOM      7  C   UNL     1      32.611 -23.598 -15.608  0.00  0.00    +0.173 C 
ATOM      8  C   UNL     1      31.944 -24.994 -13.749  0.00  0.00    +0.041 C 
ATOM      9  C   UNL     1      31.277 -23.481 -16.002  0.00  0.00    +0.051 C 
ATOM     10  C   UNL     1      30.613 -24.887 -14.150  0.00  0.00    +0.015 C 
ATOM     11  C   UNL     1      30.279 -24.127 -15.272  0.00  0.00    +0.061 C 
ENDROOT
BRANCH   4  12
ATOM     12  C   UNL     1      36.532 -23.900 -14.273  0.00  0.00    +0.140 C 
BRANCH  12  13
ATOM     13  N   UNL     1      37.081 -24.754 -15.316  0.00  0.00    -0.166 NA
ATOM     14  H   UNL     1      36.458 -24.683 -16.121  0.00  0.00    +0.150 HD
BRANCH  13  15
ATOM     15  S   UNL     1      37.294 -26.434 -14.989  0.00  0.00    +0.093 S 
ATOM     16  O   UNL     1      36.453 -27.193 -15.896  0.00  0.00    -0.142 OA
ATOM     17  O   UNL     1      38.713 -26.719 -14.890  0.00  0.00    -0.142 OA
BRANCH  15  18
ATOM     18  N   UNL     1      36.607 -26.529 -13.419  0.00  0.00    -0.193 NA
ATOM     19  H   UNL     1      35.614 -26.750 -13.495  0.00  0.00    +0.145 HD
ATOM     20  H   UNL     1      36.719 -25.633 -12.944  0.00  0.00    +0.145 HD
ENDBRANCH  15  18
ENDBRANCH  13  15
ENDBRANCH  12  13
ENDBRANCH   4  12
TORSDOF 4
ENDMDL
MODEL 6
REMARK VINA RESULT:      -8.0      1.652      1.935
REMARK  Name = 11616111
REMARK  4 active torsions:
REMARK  status: ('A' for Active; 'I' for Inactive)
REMARK    1  A    between atoms: C_4  and  C_12
REMARK    2  A    between atoms: C_12  and  N_13
REMARK    3  A    between atoms: N_13  and  S_15
REMARK    4  A    between atoms: S_15  and  N_18
REMARK                            x       y       z     vdW  Elec       q    Type
REMARK                         _______ _______ _______ _____ _____    ______ ____
ROOT
ATOM      1 CL   UNL     1      29.189 -24.342 -14.955  0.00  0.00    -0.082 Cl
ATOM      2  O   UNL     1      34.990 -23.495 -15.406  0.00  0.00    -0.471 OA
ATOM      3  O   UNL     1      33.847 -24.583 -12.994  0.00  0.00    -0.468 OA
ATOM      4  C   UNL     1      35.762 -24.213 -14.435  0.00  0.00    +0.227 C 
ATOM      5  C   UNL     1      35.159 -24.012 -13.050  0.00  0.00    +0.250 C 
ATOM      6  C   UNL     1      33.644 -23.696 -15.247  0.00  0.00    +0.172 C 
ATOM      7  C   UNL     1      33.091 -24.234 -14.083  0.00  0.00    +0.173 C 
ATOM      8  C   UNL     1      32.816 -23.331 -16.309  0.00  0.00    +0.041 C 
ATOM      9  C   UNL     1      31.714 -24.446 -13.995  0.00  0.00    +0.051 C 
ATOM     10  C   UNL     1      31.439 -23.530 -16.216  0.00  0.00    +0.015 C 
ATOM     11  C   UNL     1      30.889 -24.092 -15.063  0.00  0.00    +0.061 C 
ENDROOT
BRANCH   4  12
ATOM     12  C   UNL     1      37.188 -23.689 -14.498  0.00  0.00    +0.140 C 
BRANCH  12  13
ATOM     13  N   UNL     1      38.016 -24.523 -15.359  0.00  0.00    -0.166 NA
ATOM     14  H   UNL     1      37.384 -25.088 -15.926  0.00  0.00    +0.150 HD
BRANCH  13  15
ATOM     15  S   UNL     1      39.147 -25.603 -14.632  0.00  0.00    +0.093 S 
ATOM     16  O   UNL     1      39.765 -24.934 -13.501  0.00  0.00    -0.142 OA
ATOM     17  O   UNL     1      38.521 -26.900 -14.466  0.00  0.00    -0.142 OA
BRANCH  15  18
ATOM     18  N   UNL     1      40.312 -25.715 -15.888  0.00  0.00    -0.193 NA
ATOM     19  H   UNL     1      39.964 -26.334 -16.620  0.00  0.00    +0.145 HD
ATOM     20  H   UNL     1      41.183 -26.089 -15.512  0.00  0.00    +0.145 HD
ENDBRANCH  15  18
ENDBRANCH  13  15
ENDBRANCH  12  13
ENDBRANCH   4  12
TORSDOF 4
ENDMDL
MODEL 7
REMARK VINA RESULT:      -7.9      3.465      4.784
REMARK  Name = 11616111
REMARK  4 active torsions:
REMARK  status: ('A' for Active; 'I' for Inactive)
REMARK    1  A    between atoms: C_4  and  C_12
REMARK    2  A    between atoms: C_12  and  N_13
REMARK    3  A    between atoms: N_13  and  S_15
REMARK    4  A    between atoms: S_15  and  N_18
REMARK                            x       y       z     vdW  Elec       q    Type
REMARK                         _______ _______ _______ _____ _____    ______ ____
ROOT
ATOM      1 CL   UNL     1      27.725 -23.146 -17.368  0.00  0.00    -0.082 Cl
ATOM      2  O   UNL     1      32.089 -24.772 -13.780  0.00  0.00    -0.471 OA
ATOM      3  O   UNL     1      32.546 -22.836 -15.865  0.00  0.00    -0.468 OA
ATOM      4  C   UNL     1      33.207 -23.875 -13.777  0.00  0.00    +0.227 C 
ATOM      5  C   UNL     1      33.603 -23.545 -15.211  0.00  0.00    +0.250 C 
ATOM      6  C   UNL     1      31.109 -24.373 -14.650  0.00  0.00    +0.172 C 
ATOM      7  C   UNL     1      31.327 -23.426 -15.653  0.00  0.00    +0.173 C 
ATOM      8  C   UNL     1      29.853 -24.962 -14.507  0.00  0.00    +0.041 C 
ATOM      9  C   UNL     1      30.278 -23.036 -16.487  0.00  0.00    +0.051 C 
ATOM     10  C   UNL     1      28.808 -24.582 -15.349  0.00  0.00    +0.015 C 
ATOM     11  C   UNL     1      29.019 -23.617 -16.334  0.00  0.00    +0.061 C 
ENDROOT
BRANCH   4  12
ATOM     12  C   UNL     1      34.345 -24.556 -13.032  0.00  0.00    +0.140 C 
BRANCH  12  13
ATOM     13  N   UNL     1      35.055 -23.611 -12.181  0.00  0.00    -0.166 NA
ATOM     14  H   UNL     1      35.501 -22.930 -12.796  0.00  0.00    +0.150 HD
BRANCH  13  15
ATOM     15  S   UNL     1      36.272 -24.205 -11.114  0.00  0.00    +0.093 S 
ATOM     16  O   UNL     1      36.734 -25.489 -11.608  0.00  0.00    -0.142 OA
ATOM     17  O   UNL     1      37.216 -23.140 -10.836  0.00  0.00    -0.142 OA
BRANCH  15  18
ATOM     18  N   UNL     1      35.332 -24.483  -9.704  0.00  0.00    -0.193 NA
ATOM     19  H   UNL     1      34.541 -23.839  -9.691  0.00  0.00    +0.145 HD
ATOM     20  H   UNL     1      35.908 -24.331  -8.876  0.00  0.00    +0.145 HD
ENDBRANCH  15  18
ENDBRANCH  13  15
ENDBRANCH  12  13
ENDBRANCH   4  12
TORSDOF 4
ENDMDL
MODEL 8
REMARK VINA RESULT:      -7.9      4.290      5.612
REMARK  Name = 11616111
REMARK  4 active torsions:
REMARK  status: ('A' for Active; 'I' for Inactive)
REMARK    1  A    between atoms: C_4  and  C_12
REMARK    2  A    between atoms: C_12  and  N_13
REMARK    3  A    between atoms: N_13  and  S_15
REMARK    4  A    between atoms: S_15  and  N_18
REMARK                            x       y       z     vdW  Elec       q    Type
REMARK                         _______ _______ _______ _____ _____    ______ ____
ROOT
ATOM      1 CL   UNL     1      34.501 -19.244 -22.221  0.00  0.00    -0.082 Cl
ATOM      2  O   UNL     1      35.297 -22.716 -17.544  0.00  0.00    -0.471 OA
ATOM      3  O   UNL     1      32.656 -22.266 -18.607  0.00  0.00    -0.468 OA
ATOM      4  C   UNL     1      34.187 -23.579 -17.262  0.00  0.00    +0.227 C 
ATOM      5  C   UNL     1      32.893 -22.776 -17.290  0.00  0.00    +0.250 C 
ATOM      6  C   UNL     1      35.059 -21.904 -18.621  0.00  0.00    +0.172 C 
ATOM      7  C   UNL     1      33.780 -21.695 -19.143  0.00  0.00    +0.173 C 
ATOM      8  C   UNL     1      36.160 -21.267 -19.193  0.00  0.00    +0.041 C 
ATOM      9  C   UNL     1      33.607 -20.882 -20.265  0.00  0.00    +0.051 C 
ATOM     10  C   UNL     1      35.985 -20.444 -20.306  0.00  0.00    +0.015 C 
ATOM     11  C   UNL     1      34.711 -20.256 -20.844  0.00  0.00    +0.061 C 
ENDROOT
BRANCH   4  12
ATOM     12  C   UNL     1      34.421 -24.203 -15.894  0.00  0.00    +0.140 C 
BRANCH  12  13
ATOM     13  N   UNL     1      35.814 -24.076 -15.491  0.00  0.00    -0.166 NA
ATOM     14  H   UNL     1      36.326 -23.705 -16.292  0.00  0.00    +0.150 HD
BRANCH  13  15
ATOM     15  S   UNL     1      36.657 -25.483 -14.959  0.00  0.00    +0.093 S 
ATOM     16  O   UNL     1      36.154 -26.630 -15.693  0.00  0.00    -0.142 OA
ATOM     17  O   UNL     1      38.078 -25.197 -14.926  0.00  0.00    -0.142 OA
BRANCH  15  18
ATOM     18  N   UNL     1      36.084 -25.590 -13.344  0.00  0.00    -0.193 NA
ATOM     19  H   UNL     1      36.569 -26.346 -12.860  0.00  0.00    +0.145 HD
ATOM     20  H   UNL     1      35.081 -25.779 -13.351  0.00  0.00    +0.145 HD
ENDBRANCH  15  18
ENDBRANCH  13  15
ENDBRANCH  12  13
ENDBRANCH   4  12
TORSDOF 4
ENDMDL
MODEL 9
REMARK VINA RESULT:      -7.8      8.783     10.274
REMARK  Name = 11616111
REMARK  4 active torsions:
REMARK  status: ('A' for Active; 'I' for Inactive)
REMARK    1  A    between atoms: C_4  and  C_12
REMARK    2  A    between atoms: C_12  and  N_13
REMARK    3  A    between atoms: N_13  and  S_15
REMARK    4  A    between atoms: S_15  and  N_18
REMARK                            x       y       z     vdW  Elec       q    Type
REMARK                         _______ _______ _______ _____ _____    ______ ____
ROOT
ATOM      1 CL   UNL     1      33.843 -13.303 -23.437  0.00  0.00    -0.082 Cl
ATOM      2  O   UNL     1      35.199 -18.189 -20.463  0.00  0.00    -0.471 OA
ATOM      3  O   UNL     1      34.839 -18.262 -23.321  0.00  0.00    -0.468 OA
ATOM      4  C   UNL     1      35.702 -19.252 -21.283  0.00  0.00    +0.227 C 
ATOM      5  C   UNL     1      34.800 -19.433 -22.497  0.00  0.00    +0.250 C 
ATOM      6  C   UNL     1      34.868 -17.082 -21.197  0.00  0.00    +0.172 C 
ATOM      7  C   UNL     1      34.704 -17.115 -22.584  0.00  0.00    +0.173 C 
ATOM      8  C   UNL     1      34.685 -15.887 -20.500  0.00  0.00    +0.041 C 
ATOM      9  C   UNL     1      34.399 -15.944 -23.280  0.00  0.00    +0.051 C 
ATOM     10  C   UNL     1      34.367 -14.720 -21.195  0.00  0.00    +0.015 C 
ATOM     11  C   UNL     1      34.230 -14.747 -22.583  0.00  0.00    +0.061 C 
ENDROOT
BRANCH   4  12
ATOM     12  C   UNL     1      35.745 -20.513 -20.434  0.00  0.00    +0.140 C 
BRANCH  12  13
ATOM     13  N   UNL     1      34.403 -20.979 -20.117  0.00  0.00    -0.166 NA
ATOM     14  H   UNL     1      33.933 -20.223 -19.619  0.00  0.00    +0.150 HD
BRANCH  13  15
ATOM     15  S   UNL     1      34.221 -22.404 -19.164  0.00  0.00    +0.093 S 
ATOM     16  O   UNL     1      34.163 -23.551 -20.051  0.00  0.00    -0.142 OA
ATOM     17  O   UNL     1      35.175 -22.366 -18.072  0.00  0.00    -0.142 OA
BRANCH  15  18
ATOM     18  N   UNL     1      32.649 -22.144 -18.524  0.00  0.00    -0.193 NA
ATOM     19  H   UNL     1      31.984 -22.035 -19.290  0.00  0.00    +0.145 HD
ATOM     20  H   UNL     1      32.650 -21.300 -17.952  0.00  0.00    +0.145 HD
ENDBRANCH  15  18
ENDBRANCH  13  15
ENDBRANCH  12  13
ENDBRANCH   4  12
TORSDOF 4
ENDMDL
