MODEL 1
REMARK VINA RESULT:     -11.9      0.000      0.000
REMARK  Name = 25134257
REMARK  3 active torsions:
REMARK  status: ('A' for Active; 'I' for Inactive)
REMARK    1  A    between atoms: C_1  and  N_9
REMARK    2  A    between atoms: C_3  and  C_19
REMARK    3  A    between atoms: C_4  and  O_25
REMARK                            x       y       z     vdW  Elec       q    Type
REMARK                         _______ _______ _______ _____ _____    ______ ____
ROOT
ATOM      1  C   UNL     1      33.683 -13.194 -24.702  0.00  0.00    +0.095 C 
ATOM      2  C   UNL     1      34.102 -14.185 -23.815  0.00  0.00    +0.018 C 
ATOM      3  C   UNL     1      34.089 -15.524 -24.208  0.00  0.00    +0.001 C 
ATOM      4  C   UNL     1      33.249 -13.540 -25.981  0.00  0.00    +0.148 C 
ATOM      5  C   UNL     1      33.655 -15.870 -25.489  0.00  0.00    +0.003 C 
ATOM      6  C   UNL     1      33.234 -14.879 -26.375  0.00  0.00    +0.038 C 
ENDROOT
BRANCH   1   9
ATOM      7  O   UNL     1      32.140 -11.814 -22.480  0.00  0.00    -0.269 OA
ATOM      8  O   UNL     1      35.280 -10.851 -25.789  0.00  0.00    -0.269 OA
ATOM      9  N   UNL     1      33.702 -11.823 -24.284  0.00  0.00    -0.198 N 
ATOM     10  C   UNL     1      33.255  -9.880 -23.170  0.00  0.00    +0.055 C 
ATOM     11  C   UNL     1      34.209  -9.601 -24.129  0.00  0.00    +0.058 C 
ATOM     12  C   UNL     1      32.928 -11.300 -23.255  0.00  0.00    +0.259 C 
ATOM     13  C   UNL     1      34.498 -10.835 -24.854  0.00  0.00    +0.259 C 
ATOM     14  C   UNL     1      32.769  -8.907 -22.320  0.00  0.00    -0.017 C 
ATOM     15  C   UNL     1      34.726  -8.333 -24.297  0.00  0.00    +0.005 C 
ATOM     16  C   UNL     1      33.278  -7.614 -22.468  0.00  0.00    -0.004 C 
ATOM     17  C   UNL     1      34.249  -7.329 -23.448  0.00  0.00    -0.000 C 
ATOM     18  C   UNL     1      31.745  -9.191 -21.278  0.00  0.00    +0.031 C 
ENDBRANCH   1   9
BRANCH   3  19
ATOM     19  C   UNL     1      34.524 -16.552 -23.290  0.00  0.00    +0.000 C 
ATOM     20  C   UNL     1      34.652 -16.264 -21.930  0.00  0.00    +0.000 C 
ATOM     21  C   UNL     1      34.815 -17.832 -23.761  0.00  0.00    +0.000 C 
ATOM     22  C   UNL     1      35.070 -17.256 -21.043  0.00  0.00    +0.000 C 
ATOM     23  C   UNL     1      35.234 -18.824 -22.875  0.00  0.00    +0.000 C 
ATOM     24  C   UNL     1      35.361 -18.536 -21.515  0.00  0.00    +0.000 C 
ENDBRANCH   3  19
BRANCH   4  25
ATOM     25  O   UNL     1      32.837 -12.587 -26.864  0.00  0.00    -0.504 OA
ATOM     26  H   UNL     1      33.460 -11.990 -27.233  0.00  0.00    +0.292 HD
ENDBRANCH   4  25
TORSDOF 3
ENDMDL
MODEL 2
REMARK VINA RESULT:     -11.6      3.877      8.695
REMARK  Name = 25134257
REMARK  3 active torsions:
REMARK  status: ('A' for Active; 'I' for Inactive)
REMARK    1  A    between atoms: C_1  and  N_9
REMARK    2  A    between atoms: C_3  and  C_19
REMARK    3  A    between atoms: C_4  and  O_25
REMARK                            x       y       z     vdW  Elec       q    Type
REMARK                         _______ _______ _______ _____ _____    ______ ____
ROOT
ATOM      1  C   UNL     1      34.593 -17.950 -22.945  0.00  0.00    +0.095 C 
ATOM      2  C   UNL     1      34.162 -16.667 -22.608  0.00  0.00    +0.018 C 
ATOM      3  C   UNL     1      33.846 -15.751 -23.612  0.00  0.00    +0.001 C 
ATOM      4  C   UNL     1      34.707 -18.318 -24.285  0.00  0.00    +0.148 C 
ATOM      5  C   UNL     1      33.960 -16.120 -24.953  0.00  0.00    +0.003 C 
ATOM      6  C   UNL     1      34.392 -17.402 -25.290  0.00  0.00    +0.038 C 
ENDROOT
BRANCH   1   9
ATOM      7  O   UNL     1      32.777 -19.777 -21.336  0.00  0.00    -0.269 OA
ATOM      8  O   UNL     1      37.284 -18.648 -21.724  0.00  0.00    -0.269 OA
ATOM      9  N   UNL     1      34.915 -18.880 -21.902  0.00  0.00    -0.198 N 
ATOM     10  C   UNL     1      34.735 -20.447 -20.251  0.00  0.00    +0.055 C 
ATOM     11  C   UNL     1      36.074 -20.136 -20.388  0.00  0.00    +0.058 C 
ATOM     12  C   UNL     1      33.983 -19.655 -21.220  0.00  0.00    +0.259 C 
ATOM     13  C   UNL     1      36.201 -19.128 -21.437  0.00  0.00    +0.259 C 
ATOM     14  C   UNL     1      34.291 -21.373 -19.328  0.00  0.00    -0.017 C 
ATOM     15  C   UNL     1      37.044 -20.728 -19.605  0.00  0.00    +0.005 C 
ATOM     16  C   UNL     1      35.255 -21.988 -18.524  0.00  0.00    -0.004 C 
ATOM     17  C   UNL     1      36.620 -21.670 -18.662  0.00  0.00    -0.000 C 
ATOM     18  C   UNL     1      32.854 -21.723 -19.171  0.00  0.00    +0.031 C 
ENDBRANCH   1   9
BRANCH   3  19
ATOM     19  C   UNL     1      33.399 -14.421 -23.263  0.00  0.00    +0.000 C 
ATOM     20  C   UNL     1      33.807 -13.326 -24.026  0.00  0.00    +0.000 C 
ATOM     21  C   UNL     1      32.560 -14.232 -22.166  0.00  0.00    +0.000 C 
ATOM     22  C   UNL     1      33.374 -12.043 -23.691  0.00  0.00    +0.000 C 
ATOM     23  C   UNL     1      32.128 -12.949 -21.830  0.00  0.00    +0.000 C 
ATOM     24  C   UNL     1      32.536 -11.854 -22.593  0.00  0.00    +0.000 C 
ENDBRANCH   3  19
BRANCH   4  25
ATOM     25  O   UNL     1      35.124 -19.568 -24.636  0.00  0.00    -0.504 OA
ATOM     26  H   UNL     1      35.074 -20.269 -24.016  0.00  0.00    +0.292 HD
ENDBRANCH   4  25
TORSDOF 3
ENDMDL
MODEL 3
REMARK VINA RESULT:     -11.5      0.623      2.122
REMARK  Name = 25134257
REMARK  3 active torsions:
REMARK  status: ('A' for Active; 'I' for Inactive)
REMARK    1  A    between atoms: C_1  and  N_9
REMARK    2  A    between atoms: C_3  and  C_19
REMARK    3  A    between atoms: C_4  and  O_25
REMARK                            x       y       z     vdW  Elec       q    Type
REMARK                         _______ _______ _______ _____ _____    ______ ____
ROOT
ATOM      1  C   UNL     1      33.472 -13.411 -24.369  0.00  0.00    +0.095 C 
ATOM      2  C   UNL     1      33.917 -14.445 -23.546  0.00  0.00    +0.018 C 
ATOM      3  C   UNL     1      34.123 -15.719 -24.076  0.00  0.00    +0.001 C 
ATOM      4  C   UNL     1      33.231 -13.651 -25.722  0.00  0.00    +0.148 C 
ATOM      5  C   UNL     1      33.883 -15.958 -25.429  0.00  0.00    +0.003 C 
ATOM      6  C   UNL     1      33.436 -14.925 -26.252  0.00  0.00    +0.038 C 
ENDROOT
BRANCH   1   9
ATOM      7  O   UNL     1      34.756 -10.756 -25.093  0.00  0.00    -0.269 OA
ATOM      8  O   UNL     1      31.623 -12.526 -22.129  0.00  0.00    -0.269 OA
ATOM      9  N   UNL     1      33.264 -12.107 -23.811  0.00  0.00    -0.198 N 
ATOM     10  C   UNL     1      33.424  -9.868 -23.390  0.00  0.00    +0.055 C 
ATOM     11  C   UNL     1      32.473 -10.387 -22.534  0.00  0.00    +0.058 C 
ATOM     12  C   UNL     1      33.933 -10.958 -24.218  0.00  0.00    +0.259 C 
ATOM     13  C   UNL     1      32.366 -11.821 -22.788  0.00  0.00    +0.259 C 
ATOM     14  C   UNL     1      33.755  -8.528 -23.388  0.00  0.00    -0.017 C 
ATOM     15  C   UNL     1      31.803  -9.596 -21.622  0.00  0.00    +0.005 C 
ATOM     16  C   UNL     1      33.090  -7.705 -22.475  0.00  0.00    -0.004 C 
ATOM     17  C   UNL     1      32.121  -8.234 -21.600  0.00  0.00    -0.000 C 
ATOM     18  C   UNL     1      34.774  -7.951 -24.307  0.00  0.00    +0.031 C 
ENDBRANCH   1   9
BRANCH   3  19
ATOM     19  C   UNL     1      34.586 -16.791 -23.222  0.00  0.00    +0.000 C 
ATOM     20  C   UNL     1      34.826 -16.551 -21.869  0.00  0.00    +0.000 C 
ATOM     21  C   UNL     1      34.791 -18.065 -23.752  0.00  0.00    +0.000 C 
ATOM     22  C   UNL     1      35.271 -17.585 -21.045  0.00  0.00    +0.000 C 
ATOM     23  C   UNL     1      35.235 -19.099 -22.928  0.00  0.00    +0.000 C 
ATOM     24  C   UNL     1      35.476 -18.859 -21.574  0.00  0.00    +0.000 C 
ENDBRANCH   3  19
BRANCH   4  25
ATOM     25  O   UNL     1      32.798 -12.654 -26.544  0.00  0.00    -0.504 OA
ATOM     26  H   UNL     1      32.546 -11.826 -26.184  0.00  0.00    +0.292 HD
ENDBRANCH   4  25
TORSDOF 3
ENDMDL
MODEL 4
REMARK VINA RESULT:     -11.5      3.740      8.530
REMARK  Name = 25134257
REMARK  3 active torsions:
REMARK  status: ('A' for Active; 'I' for Inactive)
REMARK    1  A    between atoms: C_1  and  N_9
REMARK    2  A    between atoms: C_3  and  C_19
REMARK    3  A    between atoms: C_4  and  O_25
REMARK                            x       y       z     vdW  Elec       q    Type
REMARK                         _______ _______ _______ _____ _____    ______ ____
ROOT
ATOM      1  C   UNL     1      34.321 -17.211 -22.564  0.00  0.00    +0.095 C 
ATOM      2  C   UNL     1      33.730 -16.096 -21.970  0.00  0.00    +0.018 C 
ATOM      3  C   UNL     1      33.367 -15.000 -22.753  0.00  0.00    +0.001 C 
ATOM      4  C   UNL     1      34.552 -17.230 -23.938  0.00  0.00    +0.148 C 
ATOM      5  C   UNL     1      33.597 -15.020 -24.129  0.00  0.00    +0.003 C 
ATOM      6  C   UNL     1      34.190 -16.133 -24.722  0.00  0.00    +0.038 C 
ENDROOT
BRANCH   1   9
ATOM      7  O   UNL     1      32.570 -19.150 -21.015  0.00  0.00    -0.269 OA
ATOM      8  O   UNL     1      37.072 -18.311 -21.893  0.00  0.00    -0.269 OA
ATOM      9  N   UNL     1      34.689 -18.330 -21.746  0.00  0.00    -0.198 N 
ATOM     10  C   UNL     1      34.582 -20.143 -20.362  0.00  0.00    +0.055 C 
ATOM     11  C   UNL     1      35.914 -19.914 -20.648  0.00  0.00    +0.058 C 
ATOM     12  C   UNL     1      33.788 -19.140 -21.065  0.00  0.00    +0.259 C 
ATOM     13  C   UNL     1      35.996 -18.751 -21.527  0.00  0.00    +0.259 C 
ATOM     14  C   UNL     1      34.179 -21.180 -19.545  0.00  0.00    -0.017 C 
ATOM     15  C   UNL     1      36.918 -20.705 -20.128  0.00  0.00    +0.005 C 
ATOM     16  C   UNL     1      35.177 -21.997 -19.007  0.00  0.00    -0.004 C 
ATOM     17  C   UNL     1      36.536 -21.762 -19.296  0.00  0.00    -0.000 C 
ATOM     18  C   UNL     1      32.748 -21.444 -19.230  0.00  0.00    +0.031 C 
ENDBRANCH   1   9
BRANCH   3  19
ATOM     19  C   UNL     1      32.753 -13.843 -22.139  0.00  0.00    +0.000 C 
ATOM     20  C   UNL     1      32.579 -13.799 -20.755  0.00  0.00    +0.000 C 
ATOM     21  C   UNL     1      32.336 -12.773 -22.929  0.00  0.00    +0.000 C 
ATOM     22  C   UNL     1      31.988 -12.683 -20.162  0.00  0.00    +0.000 C 
ATOM     23  C   UNL     1      31.745 -11.657 -22.336  0.00  0.00    +0.000 C 
ATOM     24  C   UNL     1      31.571 -11.612 -20.952  0.00  0.00    +0.000 C 
ENDBRANCH   3  19
BRANCH   4  25
ATOM     25  O   UNL     1      35.126 -18.311 -24.539  0.00  0.00    -0.504 OA
ATOM     26  H   UNL     1      36.060 -18.372 -24.598  0.00  0.00    +0.292 HD
ENDBRANCH   4  25
TORSDOF 3
ENDMDL
MODEL 5
REMARK VINA RESULT:     -11.4      1.790      3.475
REMARK  Name = 25134257
REMARK  3 active torsions:
REMARK  status: ('A' for Active; 'I' for Inactive)
REMARK    1  A    between atoms: C_1  and  N_9
REMARK    2  A    between atoms: C_3  and  C_19
REMARK    3  A    between atoms: C_4  and  O_25
REMARK                            x       y       z     vdW  Elec       q    Type
REMARK                         _______ _______ _______ _____ _____    ______ ____
ROOT
ATOM      1  C   UNL     1      33.818 -15.594 -23.567  0.00  0.00    +0.095 C 
ATOM      2  C   UNL     1      34.277 -16.494 -22.605  0.00  0.00    +0.018 C 
ATOM      3  C   UNL     1      34.773 -17.738 -22.995  0.00  0.00    +0.001 C 
ATOM      4  C   UNL     1      33.854 -15.938 -24.918  0.00  0.00    +0.148 C 
ATOM      5  C   UNL     1      34.810 -18.082 -24.347  0.00  0.00    +0.003 C 
ATOM      6  C   UNL     1      34.350 -17.183 -25.308  0.00  0.00    +0.038 C 
ENDROOT
BRANCH   1   9
ATOM      7  O   UNL     1      34.341 -12.826 -24.703  0.00  0.00    -0.269 OA
ATOM      8  O   UNL     1      31.916 -14.901 -21.304  0.00  0.00    -0.269 OA
ATOM      9  N   UNL     1      33.311 -14.319 -23.152  0.00  0.00    -0.198 N 
ATOM     10  C   UNL     1      32.911 -12.075 -23.014  0.00  0.00    +0.055 C 
ATOM     11  C   UNL     1      32.168 -12.693 -22.028  0.00  0.00    +0.058 C 
ATOM     12  C   UNL     1      33.642 -13.106 -23.745  0.00  0.00    +0.259 C 
ATOM     13  C   UNL     1      32.420 -14.129 -22.101  0.00  0.00    +0.259 C 
ATOM     14  C   UNL     1      32.887 -10.707 -23.198  0.00  0.00    -0.017 C 
ATOM     15  C   UNL     1      31.363 -11.977 -21.165  0.00  0.00    +0.005 C 
ATOM     16  C   UNL     1      32.078  -9.959 -22.337  0.00  0.00    -0.004 C 
ATOM     17  C   UNL     1      31.322 -10.589 -21.329  0.00  0.00    -0.000 C 
ATOM     18  C   UNL     1      33.678 -10.025 -24.258  0.00  0.00    +0.031 C 
ENDBRANCH   1   9
BRANCH   3  19
ATOM     19  C   UNL     1      35.249 -18.671 -21.998  0.00  0.00    +0.000 C 
ATOM     20  C   UNL     1      34.368 -19.587 -21.421  0.00  0.00    +0.000 C 
ATOM     21  C   UNL     1      36.590 -18.657 -21.613  0.00  0.00    +0.000 C 
ATOM     22  C   UNL     1      34.828 -20.488 -20.461  0.00  0.00    +0.000 C 
ATOM     23  C   UNL     1      37.049 -19.558 -20.653  0.00  0.00    +0.000 C 
ATOM     24  C   UNL     1      36.168 -20.474 -20.076  0.00  0.00    +0.000 C 
ENDBRANCH   3  19
BRANCH   4  25
ATOM     25  O   UNL     1      33.413 -15.072 -25.874  0.00  0.00    -0.504 OA
ATOM     26  H   UNL     1      33.338 -14.159 -25.680  0.00  0.00    +0.292 HD
ENDBRANCH   4  25
TORSDOF 3
ENDMDL
MODEL 6
REMARK VINA RESULT:     -11.0      1.424      2.127
REMARK  Name = 25134257
REMARK  3 active torsions:
REMARK  status: ('A' for Active; 'I' for Inactive)
REMARK    1  A    between atoms: C_1  and  N_9
REMARK    2  A    between atoms: C_3  and  C_19
REMARK    3  A    between atoms: C_4  and  O_25
REMARK                            x       y       z     vdW  Elec       q    Type
REMARK                         _______ _______ _______ _____ _____    ______ ____
ROOT
ATOM      1  C   UNL     1      33.668 -14.923 -24.073  0.00  0.00    +0.095 C 
ATOM      2  C   UNL     1      34.157 -15.811 -23.114  0.00  0.00    +0.018 C 
ATOM      3  C   UNL     1      34.505 -17.111 -23.480  0.00  0.00    +0.001 C 
ATOM      4  C   UNL     1      33.526 -15.337 -25.397  0.00  0.00    +0.148 C 
ATOM      5  C   UNL     1      34.364 -17.523 -24.806  0.00  0.00    +0.003 C 
ATOM      6  C   UNL     1      33.873 -16.637 -25.764  0.00  0.00    +0.038 C 
ENDROOT
BRANCH   1   9
ATOM      7  O   UNL     1      31.904 -13.968 -21.793  0.00  0.00    -0.269 OA
ATOM      8  O   UNL     1      34.470 -12.260 -25.291  0.00  0.00    -0.269 OA
ATOM      9  N   UNL     1      33.313 -13.591 -23.682  0.00  0.00    -0.198 N 
ATOM     10  C   UNL     1      32.383 -11.820 -22.580  0.00  0.00    +0.055 C 
ATOM     11  C   UNL     1      33.168 -11.313 -23.597  0.00  0.00    +0.058 C 
ATOM     12  C   UNL     1      32.473 -13.277 -22.620  0.00  0.00    +0.259 C 
ATOM     13  C   UNL     1      33.764 -12.437 -24.314  0.00  0.00    +0.259 C 
ATOM     14  C   UNL     1      31.680 -10.998 -21.722  0.00  0.00    -0.017 C 
ATOM     15  C   UNL     1      33.291  -9.956 -23.816  0.00  0.00    +0.005 C 
ATOM     16  C   UNL     1      31.789  -9.620 -21.922  0.00  0.00    -0.004 C 
ATOM     17  C   UNL     1      32.588  -9.103 -22.960  0.00  0.00    -0.000 C 
ATOM     18  C   UNL     1      30.832 -11.528 -20.619  0.00  0.00    +0.031 C 
ENDBRANCH   1   9
BRANCH   3  19
ATOM     19  C   UNL     1      35.013 -18.031 -22.486  0.00  0.00    +0.000 C 
ATOM     20  C   UNL     1      34.130 -18.826 -21.756  0.00  0.00    +0.000 C 
ATOM     21  C   UNL     1      36.386 -18.124 -22.259  0.00  0.00    +0.000 C 
ATOM     22  C   UNL     1      34.619 -19.714 -20.798  0.00  0.00    +0.000 C 
ATOM     23  C   UNL     1      36.876 -19.012 -21.302  0.00  0.00    +0.000 C 
ATOM     24  C   UNL     1      35.992 -19.807 -20.571  0.00  0.00    +0.000 C 
ENDBRANCH   3  19
BRANCH   4  25
ATOM     25  O   UNL     1      33.052 -14.485 -26.350  0.00  0.00    -0.504 OA
ATOM     26  H   UNL     1      33.605 -13.809 -26.691  0.00  0.00    +0.292 HD
ENDBRANCH   4  25
TORSDOF 3
ENDMDL
MODEL 7
REMARK VINA RESULT:     -10.8      3.918      8.953
REMARK  Name = 25134257
REMARK  3 active torsions:
REMARK  status: ('A' for Active; 'I' for Inactive)
REMARK    1  A    between atoms: C_1  and  N_9
REMARK    2  A    between atoms: C_3  and  C_19
REMARK    3  A    between atoms: C_4  and  O_25
REMARK                            x       y       z     vdW  Elec       q    Type
REMARK                         _______ _______ _______ _____ _____    ______ ____
ROOT
ATOM      1  C   UNL     1      34.278 -17.284 -22.167  0.00  0.00    +0.095 C 
ATOM      2  C   UNL     1      33.601 -16.166 -21.678  0.00  0.00    +0.018 C 
ATOM      3  C   UNL     1      33.569 -14.989 -22.426  0.00  0.00    +0.001 C 
ATOM      4  C   UNL     1      34.923 -17.224 -23.402  0.00  0.00    +0.148 C 
ATOM      5  C   UNL     1      34.214 -14.930 -23.662  0.00  0.00    +0.003 C 
ATOM      6  C   UNL     1      34.891 -16.046 -24.150  0.00  0.00    +0.038 C 
ENDROOT
BRANCH   1   9
ATOM      7  O   UNL     1      36.642 -18.923 -21.192  0.00  0.00    -0.269 OA
ATOM      8  O   UNL     1      31.982 -18.911 -21.025  0.00  0.00    -0.269 OA
ATOM      9  N   UNL     1      34.303 -18.487 -21.388  0.00  0.00    -0.198 N 
ATOM     10  C   UNL     1      35.030 -20.324 -20.243  0.00  0.00    +0.055 C 
ATOM     11  C   UNL     1      33.652 -20.303 -20.166  0.00  0.00    +0.058 C 
ATOM     12  C   UNL     1      35.460 -19.162 -21.016  0.00  0.00    +0.259 C 
ATOM     13  C   UNL     1      33.174 -19.136 -20.902  0.00  0.00    +0.259 C 
ATOM     14  C   UNL     1      35.780 -21.317 -19.644  0.00  0.00    -0.017 C 
ATOM     15  C   UNL     1      32.944 -21.277 -19.492  0.00  0.00    +0.005 C 
ATOM     16  C   UNL     1      35.086 -22.314 -18.953  0.00  0.00    -0.004 C 
ATOM     17  C   UNL     1      33.680 -22.295 -18.877  0.00  0.00    -0.000 C 
ATOM     18  C   UNL     1      37.266 -21.352 -19.712  0.00  0.00    +0.031 C 
ENDBRANCH   1   9
BRANCH   3  19
ATOM     19  C   UNL     1      32.867 -13.830 -21.920  0.00  0.00    +0.000 C 
ATOM     20  C   UNL     1      32.461 -12.823 -22.796  0.00  0.00    +0.000 C 
ATOM     21  C   UNL     1      32.594 -13.720 -20.557  0.00  0.00    +0.000 C 
ATOM     22  C   UNL     1      31.782 -11.706 -22.309  0.00  0.00    +0.000 C 
ATOM     23  C   UNL     1      31.915 -12.603 -20.069  0.00  0.00    +0.000 C 
ATOM     24  C   UNL     1      31.510 -11.596 -20.945  0.00  0.00    +0.000 C 
ENDBRANCH   3  19
BRANCH   4  25
ATOM     25  O   UNL     1      35.588 -18.306 -23.899  0.00  0.00    -0.504 OA
ATOM     26  H   UNL     1      36.343 -18.182 -24.441  0.00  0.00    +0.292 HD
ENDBRANCH   4  25
TORSDOF 3
ENDMDL
MODEL 8
REMARK VINA RESULT:     -10.6      1.572      7.558
REMARK  Name = 25134257
REMARK  3 active torsions:
REMARK  status: ('A' for Active; 'I' for Inactive)
REMARK    1  A    between atoms: C_1  and  N_9
REMARK    2  A    between atoms: C_3  and  C_19
REMARK    3  A    between atoms: C_4  and  O_25
REMARK                            x       y       z     vdW  Elec       q    Type
REMARK                         _______ _______ _______ _____ _____    ______ ____
ROOT
ATOM      1  C   UNL     1      32.708 -12.291 -22.539  0.00  0.00    +0.095 C 
ATOM      2  C   UNL     1      33.057 -11.112 -23.198  0.00  0.00    +0.018 C 
ATOM      3  C   UNL     1      32.566  -9.888 -22.743  0.00  0.00    +0.001 C 
ATOM      4  C   UNL     1      31.869 -12.246 -21.427  0.00  0.00    +0.148 C 
ATOM      5  C   UNL     1      31.727  -9.844 -21.629  0.00  0.00    +0.003 C 
ATOM      6  C   UNL     1      31.377 -11.022 -20.972  0.00  0.00    +0.038 C 
ENDROOT
BRANCH   1   9
ATOM      7  O   UNL     1      34.073 -14.544 -21.028  0.00  0.00    -0.269 OA
ATOM      8  O   UNL     1      32.730 -13.434 -25.353  0.00  0.00    -0.269 OA
ATOM      9  N   UNL     1      33.219 -13.542 -23.019  0.00  0.00    -0.198 N 
ATOM     10  C   UNL     1      34.208 -15.598 -23.110  0.00  0.00    +0.055 C 
ATOM     11  C   UNL     1      33.782 -15.283 -24.385  0.00  0.00    +0.058 C 
ATOM     12  C   UNL     1      33.847 -14.494 -22.224  0.00  0.00    +0.259 C 
ATOM     13  C   UNL     1      33.154 -13.966 -24.341  0.00  0.00    +0.259 C 
ATOM     14  C   UNL     1      34.849 -16.788 -22.827  0.00  0.00    -0.017 C 
ATOM     15  C   UNL     1      33.977 -16.137 -25.451  0.00  0.00    +0.005 C 
ATOM     16  C   UNL     1      35.058 -17.671 -23.890  0.00  0.00    -0.004 C 
ATOM     17  C   UNL     1      34.625 -17.349 -25.191  0.00  0.00    -0.000 C 
ATOM     18  C   UNL     1      35.311 -17.145 -21.458  0.00  0.00    +0.031 C 
ENDBRANCH   1   9
BRANCH   3  19
ATOM     19  C   UNL     1      32.928  -8.665 -23.425  0.00  0.00    +0.000 C 
ATOM     20  C   UNL     1      31.938  -7.756 -23.800  0.00  0.00    +0.000 C 
ATOM     21  C   UNL     1      34.266  -8.394 -23.709  0.00  0.00    +0.000 C 
ATOM     22  C   UNL     1      32.287  -6.576 -24.456  0.00  0.00    +0.000 C 
ATOM     23  C   UNL     1      34.615  -7.214 -24.365  0.00  0.00    +0.000 C 
ATOM     24  C   UNL     1      33.625  -6.304 -24.740  0.00  0.00    +0.000 C 
ENDBRANCH   3  19
BRANCH   4  25
ATOM     25  O   UNL     1      31.518 -13.386 -20.767  0.00  0.00    -0.504 OA
ATOM     26  H   UNL     1      31.677 -14.222 -21.160  0.00  0.00    +0.292 HD
ENDBRANCH   4  25
TORSDOF 3
ENDMDL
MODEL 9
REMARK VINA RESULT:     -10.3      1.788      7.453
REMARK  Name = 25134257
REMARK  3 active torsions:
REMARK  status: ('A' for Active; 'I' for Inactive)
REMARK    1  A    between atoms: C_1  and  N_9
REMARK    2  A    between atoms: C_3  and  C_19
REMARK    3  A    between atoms: C_4  and  O_25
REMARK                            x       y       z     vdW  Elec       q    Type
REMARK                         _______ _______ _______ _____ _____    ______ ____
ROOT
ATOM      1  C   UNL     1      33.721 -14.249 -24.796  0.00  0.00    +0.095 C 
ATOM      2  C   UNL     1      33.861 -13.004 -24.183  0.00  0.00    +0.018 C 
ATOM      3  C   UNL     1      33.648 -11.837 -24.918  0.00  0.00    +0.001 C 
ATOM      4  C   UNL     1      33.370 -14.327 -26.143  0.00  0.00    +0.148 C 
ATOM      5  C   UNL     1      33.296 -11.917 -26.265  0.00  0.00    +0.003 C 
ATOM      6  C   UNL     1      33.158 -13.161 -26.879  0.00  0.00    +0.038 C 
ENDROOT
BRANCH   1   9
ATOM      7  O   UNL     1      34.730 -16.974 -25.678  0.00  0.00    -0.269 OA
ATOM      8  O   UNL     1      33.316 -14.755 -21.829  0.00  0.00    -0.269 OA
ATOM      9  N   UNL     1      33.943 -15.439 -24.029  0.00  0.00    -0.198 N 
ATOM     10  C   UNL     1      34.475 -17.579 -23.435  0.00  0.00    +0.055 C 
ATOM     11  C   UNL     1      34.086 -16.913 -22.290  0.00  0.00    +0.058 C 
ATOM     12  C   UNL     1      34.394 -16.645 -24.554  0.00  0.00    +0.259 C 
ATOM     13  C   UNL     1      33.737 -15.544 -22.658  0.00  0.00    +0.259 C 
ATOM     14  C   UNL     1      34.864 -18.904 -23.413  0.00  0.00    -0.017 C 
ATOM     15  C   UNL     1      34.059 -17.534 -21.058  0.00  0.00    +0.005 C 
ATOM     16  C   UNL     1      34.847 -19.555 -22.177  0.00  0.00    -0.004 C 
ATOM     17  C   UNL     1      34.449 -18.877 -21.009  0.00  0.00    -0.000 C 
ATOM     18  C   UNL     1      35.290 -19.636 -24.637  0.00  0.00    +0.031 C 
ENDBRANCH   1   9
BRANCH   3  19
ATOM     19  C   UNL     1      33.792 -10.546 -24.282  0.00  0.00    +0.000 C 
ATOM     20  C   UNL     1      34.880  -9.731 -24.597  0.00  0.00    +0.000 C 
ATOM     21  C   UNL     1      32.842 -10.114 -23.356  0.00  0.00    +0.000 C 
ATOM     22  C   UNL     1      35.018  -8.485 -23.985  0.00  0.00    +0.000 C 
ATOM     23  C   UNL     1      32.981  -8.868 -22.745  0.00  0.00    +0.000 C 
ATOM     24  C   UNL     1      34.069  -8.053 -23.059  0.00  0.00    +0.000 C 
ENDBRANCH   3  19
BRANCH   4  25
ATOM     25  O   UNL     1      33.225 -15.534 -26.761  0.00  0.00    -0.504 OA
ATOM     26  H   UNL     1      33.122 -15.574 -27.692  0.00  0.00    +0.292 HD
ENDBRANCH   4  25
TORSDOF 3
ENDMDL
