MODEL 1
REMARK VINA RESULT:      -9.2      0.000      0.000
REMARK  Name = 452307
REMARK  9 active torsions:
REMARK  status: ('A' for Active; 'I' for Inactive)
REMARK    1  A    between atoms: C_1  and  O_2
REMARK    2  A    between atoms: C_1  and  C_4
REMARK    3  A    between atoms: C_1  and  C_16
REMARK    4  A    between atoms: C_4  and  N_5
REMARK    5  A    between atoms: C_4  and  C_9
REMARK    6  A    between atoms: C_9  and  C_10
REMARK    7  A    between atoms: C_16  and  N_17
REMARK    8  A    between atoms: C_16  and  C_21
REMARK    9  A    between atoms: C_21  and  C_22
REMARK                            x       y       z     vdW  Elec       q    Type
REMARK                         _______ _______ _______ _____ _____    ______ ____
ROOT
ATOM      1  C   UNL     1      34.755 -15.955 -22.064  0.00  0.00    +0.072 C 
ENDROOT
BRANCH   1   2
ATOM      2  O   UNL     1      34.972 -16.002 -20.647  0.00  0.00    -0.389 OA
ATOM      3  H   UNL     1      34.460 -16.733 -20.266  0.00  0.00    +0.210 HD
ENDBRANCH   1   2
BRANCH   1   4
ATOM      4  C   UNL     1      34.888 -17.391 -22.640  0.00  0.00    -0.036 C 
BRANCH   4   5
ATOM      5  N   UNL     1      35.524 -17.268 -23.965  0.00  0.00    +0.384 N 
ATOM      6  H   UNL     1      34.831 -17.445 -24.693  0.00  0.00    -0.089 HD
ATOM      7  H   UNL     1      36.280 -17.949 -24.045  0.00  0.00    -0.089 HD
ATOM      8  H   UNL     1      35.901 -16.327 -24.076  0.00  0.00    -0.089 HD
ENDBRANCH   4   5
BRANCH   4   9
ATOM      9  C   UNL     1      35.752 -18.352 -21.789  0.00  0.00    +0.007 C 
BRANCH   9  10
ATOM     10  C   UNL     1      35.001 -19.416 -21.025  0.00  0.00    -0.024 C 
ATOM     11  C   UNL     1      33.616 -19.383 -21.000  0.00  0.00    -0.004 C 
ATOM     12  C   UNL     1      35.711 -20.404 -20.362  0.00  0.00    -0.004 C 
ATOM     13  C   UNL     1      32.923 -20.366 -20.294  0.00  0.00    -0.000 C 
ATOM     14  C   UNL     1      35.017 -21.387 -19.657  0.00  0.00    -0.000 C 
ATOM     15  C   UNL     1      33.623 -21.368 -19.623  0.00  0.00    -0.000 C 
ENDBRANCH   9  10
ENDBRANCH   4   9
ENDBRANCH   1   4
BRANCH   1  16
ATOM     16  C   UNL     1      33.404 -15.241 -22.313  0.00  0.00    -0.036 C 
BRANCH  16  17
ATOM     17  N   UNL     1      32.561 -15.311 -21.113  0.00  0.00    +0.384 N 
ATOM     18  H   UNL     1      31.770 -15.930 -21.289  0.00  0.00    -0.089 HD
ATOM     19  H   UNL     1      32.219 -14.378 -20.883  0.00  0.00    -0.089 HD
ATOM     20  H   UNL     1      33.110 -15.673 -20.333  0.00  0.00    -0.089 HD
ENDBRANCH  16  17
BRANCH  16  21
ATOM     21  C   UNL     1      33.561 -13.755 -22.711  0.00  0.00    +0.007 C 
BRANCH  21  22
ATOM     22  C   UNL     1      33.495 -13.518 -24.201  0.00  0.00    -0.024 C 
ATOM     23  C   UNL     1      33.821 -12.269 -24.705  0.00  0.00    -0.004 C 
ATOM     24  C   UNL     1      33.110 -14.554 -25.037  0.00  0.00    -0.004 C 
ATOM     25  C   UNL     1      33.759 -12.050 -26.081  0.00  0.00    -0.000 C 
ATOM     26  C   UNL     1      33.050 -14.334 -26.414  0.00  0.00    -0.000 C 
ATOM     27  C   UNL     1      33.374 -13.082 -26.936  0.00  0.00    -0.000 C 
ENDBRANCH  21  22
ENDBRANCH  16  21
ENDBRANCH   1  16
TORSDOF 9
ENDMDL
MODEL 2
REMARK VINA RESULT:      -8.9      0.875      7.681
REMARK  Name = 452307
REMARK  9 active torsions:
REMARK  status: ('A' for Active; 'I' for Inactive)
REMARK    1  A    between atoms: C_1  and  O_2
REMARK    2  A    between atoms: C_1  and  C_4
REMARK    3  A    between atoms: C_1  and  C_16
REMARK    4  A    between atoms: C_4  and  N_5
REMARK    5  A    between atoms: C_4  and  C_9
REMARK    6  A    between atoms: C_9  and  C_10
REMARK    7  A    between atoms: C_16  and  N_17
REMARK    8  A    between atoms: C_16  and  C_21
REMARK    9  A    between atoms: C_21  and  C_22
REMARK                            x       y       z     vdW  Elec       q    Type
REMARK                         _______ _______ _______ _____ _____    ______ ____
ROOT
ATOM      1  C   UNL     1      34.955 -16.440 -22.451  0.00  0.00    +0.072 C 
ENDROOT
BRANCH   1   2
ATOM      2  O   UNL     1      35.795 -16.086 -23.559  0.00  0.00    -0.389 OA
ATOM      3  H   UNL     1      35.481 -16.537 -24.358  0.00  0.00    +0.210 HD
ENDBRANCH   1   2
BRANCH   1   4
ATOM      4  C   UNL     1      33.648 -15.605 -22.526  0.00  0.00    -0.036 C 
BRANCH   4   5
ATOM      5  N   UNL     1      33.005 -15.689 -21.201  0.00  0.00    +0.384 N 
ATOM      6  H   UNL     1      33.722 -15.733 -20.477  0.00  0.00    -0.089 HD
ATOM      7  H   UNL     1      32.427 -16.528 -21.156  0.00  0.00    -0.089 HD
ATOM      8  H   UNL     1      32.422 -14.865 -21.052  0.00  0.00    -0.089 HD
ENDBRANCH   4   5
BRANCH   4   9
ATOM      9  C   UNL     1      33.854 -14.108 -22.856  0.00  0.00    +0.007 C 
BRANCH   9  10
ATOM     10  C   UNL     1      33.636 -13.712 -24.297  0.00  0.00    -0.024 C 
ATOM     11  C   UNL     1      33.907 -12.412 -24.692  0.00  0.00    -0.004 C 
ATOM     12  C   UNL     1      33.168 -14.657 -25.197  0.00  0.00    -0.004 C 
ATOM     13  C   UNL     1      33.706 -12.047 -26.023  0.00  0.00    -0.000 C 
ATOM     14  C   UNL     1      32.967 -14.291 -26.527  0.00  0.00    -0.000 C 
ATOM     15  C   UNL     1      33.236 -12.986 -26.941  0.00  0.00    -0.000 C 
ENDBRANCH   9  10
ENDBRANCH   4   9
ENDBRANCH   1   4
BRANCH   1  16
ATOM     16  C   UNL     1      34.785 -17.979 -22.458  0.00  0.00    -0.036 C 
BRANCH  16  17
ATOM     17  N   UNL     1      34.985 -18.508 -23.812  0.00  0.00    +0.384 N 
ATOM     18  H   UNL     1      34.990 -19.527 -23.781  0.00  0.00    -0.089 HD
ATOM     19  H   UNL     1      35.876 -18.174 -24.180  0.00  0.00    -0.089 HD
ATOM     20  H   UNL     1      34.227 -18.190 -24.417  0.00  0.00    -0.089 HD
ENDBRANCH  16  17
BRANCH  16  21
ATOM     21  C   UNL     1      35.759 -18.707 -21.502  0.00  0.00    +0.007 C 
BRANCH  21  22
ATOM     22  C   UNL     1      35.118 -19.833 -20.728  0.00  0.00    -0.024 C 
ATOM     23  C   UNL     1      33.736 -19.906 -20.656  0.00  0.00    -0.004 C 
ATOM     24  C   UNL     1      35.922 -20.773 -20.104  0.00  0.00    -0.004 C 
ATOM     25  C   UNL     1      33.142 -20.945 -19.940  0.00  0.00    -0.000 C 
ATOM     26  C   UNL     1      35.328 -21.814 -19.389  0.00  0.00    -0.000 C 
ATOM     27  C   UNL     1      33.938 -21.900 -19.307  0.00  0.00    -0.000 C 
ENDBRANCH  21  22
ENDBRANCH  16  21
ENDBRANCH   1  16
TORSDOF 9
ENDMDL
MODEL 3
REMARK VINA RESULT:      -8.7      5.916     10.022
REMARK  Name = 452307
REMARK  9 active torsions:
REMARK  status: ('A' for Active; 'I' for Inactive)
REMARK    1  A    between atoms: C_1  and  O_2
REMARK    2  A    between atoms: C_1  and  C_4
REMARK    3  A    between atoms: C_1  and  C_16
REMARK    4  A    between atoms: C_4  and  N_5
REMARK    5  A    between atoms: C_4  and  C_9
REMARK    6  A    between atoms: C_9  and  C_10
REMARK    7  A    between atoms: C_16  and  N_17
REMARK    8  A    between atoms: C_16  and  C_21
REMARK    9  A    between atoms: C_21  and  C_22
REMARK                            x       y       z     vdW  Elec       q    Type
REMARK                         _______ _______ _______ _____ _____    ______ ____
ROOT
ATOM      1  C   UNL     1      36.956 -22.533 -15.816  0.00  0.00    +0.072 C 
ENDROOT
BRANCH   1   2
ATOM      2  O   UNL     1      38.267 -23.024 -16.133  0.00  0.00    -0.389 OA
ATOM      3  H   UNL     1      38.898 -22.713 -15.465  0.00  0.00    +0.210 HD
ENDBRANCH   1   2
BRANCH   1   4
ATOM      4  C   UNL     1      36.520 -21.525 -16.913  0.00  0.00    -0.036 C 
BRANCH   4   5
ATOM      5  N   UNL     1      37.588 -20.513 -17.019  0.00  0.00    +0.384 N 
ATOM      6  H   UNL     1      37.613 -20.143 -17.970  0.00  0.00    -0.089 HD
ATOM      7  H   UNL     1      38.487 -20.942 -16.799  0.00  0.00    -0.089 HD
ATOM      8  H   UNL     1      37.404 -19.753 -16.364  0.00  0.00    -0.089 HD
ENDBRANCH   4   5
BRANCH   4   9
ATOM      9  C   UNL     1      36.315 -22.143 -18.316  0.00  0.00    +0.007 C 
BRANCH   9  10
ATOM     10  C   UNL     1      35.465 -21.343 -19.274  0.00  0.00    -0.024 C 
ATOM     11  C   UNL     1      34.087 -21.482 -19.237  0.00  0.00    -0.004 C 
ATOM     12  C   UNL     1      36.079 -20.485 -20.172  0.00  0.00    -0.004 C 
ATOM     13  C   UNL     1      33.302 -20.743 -20.121  0.00  0.00    -0.000 C 
ATOM     14  C   UNL     1      35.294 -19.745 -21.055  0.00  0.00    -0.000 C 
ATOM     15  C   UNL     1      33.905 -19.874 -21.031  0.00  0.00    -0.000 C 
ENDBRANCH   9  10
ENDBRANCH   4   9
ENDBRANCH   1   4
BRANCH   1  16
ATOM     16  C   UNL     1      36.031 -23.757 -15.604  0.00  0.00    -0.036 C 
BRANCH  16  17
ATOM     17  N   UNL     1      36.827 -24.952 -15.300  0.00  0.00    +0.384 N 
ATOM     18  H   UNL     1      36.454 -25.749 -15.817  0.00  0.00    -0.089 HD
ATOM     19  H   UNL     1      36.782 -25.144 -14.299  0.00  0.00    -0.089 HD
ATOM     20  H   UNL     1      37.796 -24.793 -15.573  0.00  0.00    -0.089 HD
ENDBRANCH  16  17
BRANCH  16  21
ATOM     21  C   UNL     1      35.001 -23.556 -14.468  0.00  0.00    +0.007 C 
BRANCH  21  22
ATOM     22  C   UNL     1      33.582 -23.397 -14.959  0.00  0.00    -0.024 C 
ATOM     23  C   UNL     1      32.552 -23.293 -14.037  0.00  0.00    -0.004 C 
ATOM     24  C   UNL     1      33.335 -23.358 -16.322  0.00  0.00    -0.004 C 
ATOM     25  C   UNL     1      31.242 -23.148 -14.490  0.00  0.00    -0.000 C 
ATOM     26  C   UNL     1      32.024 -23.211 -16.774  0.00  0.00    -0.000 C 
ATOM     27  C   UNL     1      30.977 -23.106 -15.859  0.00  0.00    -0.000 C 
ENDBRANCH  21  22
ENDBRANCH  16  21
ENDBRANCH   1  16
TORSDOF 9
ENDMDL
MODEL 4
REMARK VINA RESULT:      -8.6      2.438      3.285
REMARK  Name = 452307
REMARK  9 active torsions:
REMARK  status: ('A' for Active; 'I' for Inactive)
REMARK    1  A    between atoms: C_1  and  O_2
REMARK    2  A    between atoms: C_1  and  C_4
REMARK    3  A    between atoms: C_1  and  C_16
REMARK    4  A    between atoms: C_4  and  N_5
REMARK    5  A    between atoms: C_4  and  C_9
REMARK    6  A    between atoms: C_9  and  C_10
REMARK    7  A    between atoms: C_16  and  N_17
REMARK    8  A    between atoms: C_16  and  C_21
REMARK    9  A    between atoms: C_21  and  C_22
REMARK                            x       y       z     vdW  Elec       q    Type
REMARK                         _______ _______ _______ _____ _____    ______ ____
ROOT
ATOM      1  C   UNL     1      34.567 -16.284 -22.766  0.00  0.00    +0.072 C 
ENDROOT
BRANCH   1   2
ATOM      2  O   UNL     1      35.725 -16.127 -23.597  0.00  0.00    -0.389 OA
ATOM      3  H   UNL     1      36.222 -16.960 -23.620  0.00  0.00    +0.210 HD
ENDBRANCH   1   2
BRANCH   1   4
ATOM      4  C   UNL     1      34.874 -17.344 -21.674  0.00  0.00    -0.036 C 
BRANCH   4   5
ATOM      5  N   UNL     1      34.998 -16.622 -20.393  0.00  0.00    +0.384 N 
ATOM      6  H   UNL     1      35.975 -16.375 -20.235  0.00  0.00    -0.089 HD
ATOM      7  H   UNL     1      34.673 -17.219 -19.633  0.00  0.00    -0.089 HD
ATOM      8  H   UNL     1      34.433 -15.773 -20.424  0.00  0.00    -0.089 HD
ENDBRANCH   4   5
BRANCH   4   9
ATOM      9  C   UNL     1      33.785 -18.429 -21.500  0.00  0.00    +0.007 C 
BRANCH   9  10
ATOM     10  C   UNL     1      34.206 -19.676 -20.760  0.00  0.00    -0.024 C 
ATOM     11  C   UNL     1      33.241 -20.460 -20.148  0.00  0.00    -0.004 C 
ATOM     12  C   UNL     1      35.549 -20.012 -20.705  0.00  0.00    -0.004 C 
ATOM     13  C   UNL     1      33.630 -21.612 -19.465  0.00  0.00    -0.000 C 
ATOM     14  C   UNL     1      35.938 -21.164 -20.023  0.00  0.00    -0.000 C 
ATOM     15  C   UNL     1      34.978 -21.964 -19.402  0.00  0.00    -0.000 C 
ENDBRANCH   9  10
ENDBRANCH   4   9
ENDBRANCH   1   4
BRANCH   1  16
ATOM     16  C   UNL     1      34.153 -14.881 -22.259  0.00  0.00    -0.036 C 
BRANCH  16  17
ATOM     17  N   UNL     1      34.601 -13.846 -23.199  0.00  0.00    +0.384 N 
ATOM     18  H   UNL     1      33.798 -13.304 -23.516  0.00  0.00    -0.089 HD
ATOM     19  H   UNL     1      35.052 -14.287 -24.001  0.00  0.00    -0.089 HD
ATOM     20  H   UNL     1      35.266 -13.228 -22.733  0.00  0.00    -0.089 HD
ENDBRANCH  16  17
BRANCH  16  21
ATOM     21  C   UNL     1      32.627 -14.728 -22.059  0.00  0.00    +0.007 C 
BRANCH  21  22
ATOM     22  C   UNL     1      32.212 -13.348 -21.606  0.00  0.00    -0.024 C 
ATOM     23  C   UNL     1      32.174 -13.062 -20.250  0.00  0.00    -0.004 C 
ATOM     24  C   UNL     1      31.877 -12.394 -22.553  0.00  0.00    -0.004 C 
ATOM     25  C   UNL     1      31.790 -11.788 -19.831  0.00  0.00    -0.000 C 
ATOM     26  C   UNL     1      31.495 -11.120 -22.133  0.00  0.00    -0.000 C 
ATOM     27  C   UNL     1      31.451 -10.817 -20.773  0.00  0.00    -0.000 C 
ENDBRANCH  21  22
ENDBRANCH  16  21
ENDBRANCH   1  16
TORSDOF 9
ENDMDL
MODEL 5
REMARK VINA RESULT:      -8.6      2.061      2.969
REMARK  Name = 452307
REMARK  9 active torsions:
REMARK  status: ('A' for Active; 'I' for Inactive)
REMARK    1  A    between atoms: C_1  and  O_2
REMARK    2  A    between atoms: C_1  and  C_4
REMARK    3  A    between atoms: C_1  and  C_16
REMARK    4  A    between atoms: C_4  and  N_5
REMARK    5  A    between atoms: C_4  and  C_9
REMARK    6  A    between atoms: C_9  and  C_10
REMARK    7  A    between atoms: C_16  and  N_17
REMARK    8  A    between atoms: C_16  and  C_21
REMARK    9  A    between atoms: C_21  and  C_22
REMARK                            x       y       z     vdW  Elec       q    Type
REMARK                         _______ _______ _______ _____ _____    ______ ____
ROOT
ATOM      1  C   UNL     1      35.036 -15.843 -22.016  0.00  0.00    +0.072 C 
ENDROOT
BRANCH   1   2
ATOM      2  O   UNL     1      34.940 -15.887 -20.586  0.00  0.00    -0.389 OA
ATOM      3  H   UNL     1      34.014 -16.023 -20.328  0.00  0.00    +0.210 HD
ENDBRANCH   1   2
BRANCH   1   4
ATOM      4  C   UNL     1      34.984 -17.293 -22.567  0.00  0.00    -0.036 C 
BRANCH   4   5
ATOM      5  N   UNL     1      35.562 -17.261 -23.924  0.00  0.00    +0.384 N 
ATOM      6  H   UNL     1      36.274 -17.987 -24.008  0.00  0.00    -0.089 HD
ATOM      7  H   UNL     1      35.987 -16.349 -24.091  0.00  0.00    -0.089 HD
ATOM      8  H   UNL     1      34.827 -17.425 -24.612  0.00  0.00    -0.089 HD
ENDBRANCH   4   5
BRANCH   4   9
ATOM      9  C   UNL     1      35.780 -18.329 -21.740  0.00  0.00    +0.007 C 
BRANCH   9  10
ATOM     10  C   UNL     1      34.959 -19.364 -21.008  0.00  0.00    -0.024 C 
ATOM     11  C   UNL     1      33.576 -19.274 -21.032  0.00  0.00    -0.004 C 
ATOM     12  C   UNL     1      35.603 -20.384 -20.327  0.00  0.00    -0.004 C 
ATOM     13  C   UNL     1      32.818 -20.230 -20.357  0.00  0.00    -0.000 C 
ATOM     14  C   UNL     1      34.845 -21.340 -19.652  0.00  0.00    -0.000 C 
ATOM     15  C   UNL     1      33.452 -21.263 -19.667  0.00  0.00    -0.000 C 
ENDBRANCH   9  10
ENDBRANCH   4   9
ENDBRANCH   1   4
BRANCH   1  16
ATOM     16  C   UNL     1      33.945 -14.875 -22.534  0.00  0.00    -0.036 C 
BRANCH  16  17
ATOM     17  N   UNL     1      33.458 -15.310 -23.849  0.00  0.00    +0.384 N 
ATOM     18  H   UNL     1      33.979 -16.134 -24.148  0.00  0.00    -0.089 HD
ATOM     19  H   UNL     1      33.591 -14.559 -24.527  0.00  0.00    -0.089 HD
ATOM     20  H   UNL     1      32.467 -15.540 -23.785  0.00  0.00    -0.089 HD
ENDBRANCH  16  17
BRANCH  16  21
ATOM     21  C   UNL     1      32.731 -14.754 -21.582  0.00  0.00    +0.007 C 
BRANCH  21  22
ATOM     22  C   UNL     1      32.283 -13.331 -21.351  0.00  0.00    -0.024 C 
ATOM     23  C   UNL     1      32.111 -12.489 -22.439  0.00  0.00    -0.004 C 
ATOM     24  C   UNL     1      32.052 -12.893 -20.058  0.00  0.00    -0.004 C 
ATOM     25  C   UNL     1      31.698 -11.174 -22.226  0.00  0.00    -0.000 C 
ATOM     26  C   UNL     1      31.638 -11.578 -19.846  0.00  0.00    -0.000 C 
ATOM     27  C   UNL     1      31.461 -10.718 -20.930  0.00  0.00    -0.000 C 
ENDBRANCH  21  22
ENDBRANCH  16  21
ENDBRANCH   1  16
TORSDOF 9
ENDMDL
MODEL 6
REMARK VINA RESULT:      -8.4      1.570      7.692
REMARK  Name = 452307
REMARK  9 active torsions:
REMARK  status: ('A' for Active; 'I' for Inactive)
REMARK    1  A    between atoms: C_1  and  O_2
REMARK    2  A    between atoms: C_1  and  C_4
REMARK    3  A    between atoms: C_1  and  C_16
REMARK    4  A    between atoms: C_4  and  N_5
REMARK    5  A    between atoms: C_4  and  C_9
REMARK    6  A    between atoms: C_9  and  C_10
REMARK    7  A    between atoms: C_16  and  N_17
REMARK    8  A    between atoms: C_16  and  C_21
REMARK    9  A    between atoms: C_21  and  C_22
REMARK                            x       y       z     vdW  Elec       q    Type
REMARK                         _______ _______ _______ _____ _____    ______ ____
ROOT
ATOM      1  C   UNL     1      35.101 -16.628 -23.211  0.00  0.00    +0.072 C 
ENDROOT
BRANCH   1   2
ATOM      2  O   UNL     1      35.318 -16.552 -24.627  0.00  0.00    -0.389 OA
ATOM      3  H   UNL     1      35.164 -15.643 -24.929  0.00  0.00    +0.210 HD
ENDBRANCH   1   2
BRANCH   1   4
ATOM      4  C   UNL     1      34.017 -15.590 -22.814  0.00  0.00    -0.036 C 
BRANCH   4   5
ATOM      5  N   UNL     1      34.611 -14.716 -21.784  0.00  0.00    +0.384 N 
ATOM      6  H   UNL     1      35.430 -14.246 -22.169  0.00  0.00    -0.089 HD
ATOM      7  H   UNL     1      34.891 -15.279 -20.981  0.00  0.00    -0.089 HD
ATOM      8  H   UNL     1      33.926 -14.020 -21.491  0.00  0.00    -0.089 HD
ENDBRANCH   4   5
BRANCH   4   9
ATOM      9  C   UNL     1      33.528 -14.689 -23.972  0.00  0.00    +0.007 C 
BRANCH   9  10
ATOM     10  C   UNL     1      33.179 -13.267 -23.602  0.00  0.00    -0.024 C 
ATOM     11  C   UNL     1      32.220 -13.036 -22.628  0.00  0.00    -0.004 C 
ATOM     12  C   UNL     1      33.822 -12.221 -24.244  0.00  0.00    -0.004 C 
ATOM     13  C   UNL     1      31.898 -11.723 -22.287  0.00  0.00    -0.000 C 
ATOM     14  C   UNL     1      33.500 -10.909 -23.901  0.00  0.00    -0.000 C 
ATOM     15  C   UNL     1      32.537 -10.659 -22.923  0.00  0.00    -0.000 C 
ENDBRANCH   9  10
ENDBRANCH   4   9
ENDBRANCH   1   4
BRANCH   1  16
ATOM     16  C   UNL     1      34.797 -18.104 -22.857  0.00  0.00    -0.036 C 
BRANCH  16  17
ATOM     17  N   UNL     1      34.931 -18.953 -24.047  0.00  0.00    +0.384 N 
ATOM     18  H   UNL     1      35.566 -19.724 -23.844  0.00  0.00    -0.089 HD
ATOM     19  H   UNL     1      35.303 -18.400 -24.819  0.00  0.00    -0.089 HD
ATOM     20  H   UNL     1      34.016 -19.324 -24.304  0.00  0.00    -0.089 HD
ENDBRANCH  16  17
BRANCH  16  21
ATOM     21  C   UNL     1      35.718 -18.670 -21.750  0.00  0.00    +0.007 C 
BRANCH  21  22
ATOM     22  C   UNL     1      35.058 -19.727 -20.897  0.00  0.00    -0.024 C 
ATOM     23  C   UNL     1      35.846 -20.655 -20.235  0.00  0.00    -0.004 C 
ATOM     24  C   UNL     1      33.677 -19.750 -20.791  0.00  0.00    -0.004 C 
ATOM     25  C   UNL     1      35.238 -21.631 -19.448  0.00  0.00    -0.000 C 
ATOM     26  C   UNL     1      33.068 -20.726 -20.002  0.00  0.00    -0.000 C 
ATOM     27  C   UNL     1      33.848 -21.667 -19.331  0.00  0.00    -0.000 C 
ENDBRANCH  21  22
ENDBRANCH  16  21
ENDBRANCH   1  16
TORSDOF 9
ENDMDL
MODEL 7
REMARK VINA RESULT:      -8.3      2.517      7.552
REMARK  Name = 452307
REMARK  9 active torsions:
REMARK  status: ('A' for Active; 'I' for Inactive)
REMARK    1  A    between atoms: C_1  and  O_2
REMARK    2  A    between atoms: C_1  and  C_4
REMARK    3  A    between atoms: C_1  and  C_16
REMARK    4  A    between atoms: C_4  and  N_5
REMARK    5  A    between atoms: C_4  and  C_9
REMARK    6  A    between atoms: C_9  and  C_10
REMARK    7  A    between atoms: C_16  and  N_17
REMARK    8  A    between atoms: C_16  and  C_21
REMARK    9  A    between atoms: C_21  and  C_22
REMARK                            x       y       z     vdW  Elec       q    Type
REMARK                         _______ _______ _______ _____ _____    ______ ____
ROOT
ATOM      1  C   UNL     1      33.396 -15.669 -22.036  0.00  0.00    +0.072 C 
ENDROOT
BRANCH   1   2
ATOM      2  O   UNL     1      32.556 -15.940 -20.906  0.00  0.00    -0.389 OA
ATOM      3  H   UNL     1      33.083 -15.890 -20.092  0.00  0.00    +0.210 HD
ENDBRANCH   1   2
BRANCH   1   4
ATOM      4  C   UNL     1      33.525 -14.131 -22.207  0.00  0.00    -0.036 C 
BRANCH   4   5
ATOM      5  N   UNL     1      34.378 -13.897 -23.388  0.00  0.00    +0.384 N 
ATOM      6  H   UNL     1      33.819 -13.995 -24.236  0.00  0.00    -0.089 HD
ATOM      7  H   UNL     1      35.135 -14.580 -23.401  0.00  0.00    -0.089 HD
ATOM      8  H   UNL     1      34.769 -12.956 -23.345  0.00  0.00    -0.089 HD
ENDBRANCH   4   5
BRANCH   4   9
ATOM      9  C   UNL     1      32.186 -13.392 -22.438  0.00  0.00    +0.007 C 
BRANCH   9  10
ATOM     10  C   UNL     1      31.964 -12.150 -21.608  0.00  0.00    -0.024 C 
ATOM     11  C   UNL     1      31.932 -10.913 -22.232  0.00  0.00    -0.004 C 
ATOM     12  C   UNL     1      31.797 -12.271 -20.237  0.00  0.00    -0.004 C 
ATOM     13  C   UNL     1      31.727  -9.767 -21.464  0.00  0.00    -0.000 C 
ATOM     14  C   UNL     1      31.591 -11.125 -19.471  0.00  0.00    -0.000 C 
ATOM     15  C   UNL     1      31.556  -9.872 -20.084  0.00  0.00    -0.000 C 
ENDBRANCH   9  10
ENDBRANCH   4   9
ENDBRANCH   1   4
BRANCH   1  16
ATOM     16  C   UNL     1      34.720 -16.448 -21.841  0.00  0.00    -0.036 C 
BRANCH  16  17
ATOM     17  N   UNL     1      35.002 -16.625 -20.411  0.00  0.00    +0.384 N 
ATOM     18  H   UNL     1      35.830 -16.086 -20.159  0.00  0.00    -0.089 HD
ATOM     19  H   UNL     1      35.167 -17.613 -20.217  0.00  0.00    -0.089 HD
ATOM     20  H   UNL     1      34.205 -16.299 -19.865  0.00  0.00    -0.089 HD
ENDBRANCH  16  17
BRANCH  16  21
ATOM     21  C   UNL     1      34.715 -17.842 -22.512  0.00  0.00    +0.007 C 
BRANCH  21  22
ATOM     22  C   UNL     1      34.537 -18.981 -21.537  0.00  0.00    -0.024 C 
ATOM     23  C   UNL     1      35.656 -19.636 -21.047  0.00  0.00    -0.004 C 
ATOM     24  C   UNL     1      33.259 -19.351 -21.150  0.00  0.00    -0.004 C 
ATOM     25  C   UNL     1      35.492 -20.689 -20.147  0.00  0.00    -0.000 C 
ATOM     26  C   UNL     1      33.096 -20.404 -20.249  0.00  0.00    -0.000 C 
ATOM     27  C   UNL     1      34.212 -21.073 -19.748  0.00  0.00    -0.000 C 
ENDBRANCH  21  22
ENDBRANCH  16  21
ENDBRANCH   1  16
TORSDOF 9
ENDMDL
MODEL 8
REMARK VINA RESULT:      -8.3      6.516     10.764
REMARK  Name = 452307
REMARK  9 active torsions:
REMARK  status: ('A' for Active; 'I' for Inactive)
REMARK    1  A    between atoms: C_1  and  O_2
REMARK    2  A    between atoms: C_1  and  C_4
REMARK    3  A    between atoms: C_1  and  C_16
REMARK    4  A    between atoms: C_4  and  N_5
REMARK    5  A    between atoms: C_4  and  C_9
REMARK    6  A    between atoms: C_9  and  C_10
REMARK    7  A    between atoms: C_16  and  N_17
REMARK    8  A    between atoms: C_16  and  C_21
REMARK    9  A    between atoms: C_21  and  C_22
REMARK                            x       y       z     vdW  Elec       q    Type
REMARK                         _______ _______ _______ _____ _____    ______ ____
ROOT
ATOM      1  C   UNL     1      35.433 -22.961 -14.905  0.00  0.00    +0.072 C 
ENDROOT
BRANCH   1   2
ATOM      2  O   UNL     1      36.610 -23.230 -14.131  0.00  0.00    -0.389 OA
ATOM      3  H   UNL     1      36.727 -24.189 -14.044  0.00  0.00    +0.210 HD
ENDBRANCH   1   2
BRANCH   1   4
ATOM      4  C   UNL     1      35.860 -22.406 -16.291  0.00  0.00    -0.036 C 
BRANCH   4   5
ATOM      5  N   UNL     1      37.272 -22.785 -16.492  0.00  0.00    +0.384 N 
ATOM      6  H   UNL     1      37.760 -22.033 -16.978  0.00  0.00    -0.089 HD
ATOM      7  H   UNL     1      37.319 -23.637 -17.051  0.00  0.00    -0.089 HD
ATOM      8  H   UNL     1      37.713 -22.947 -15.586  0.00  0.00    -0.089 HD
ENDBRANCH   4   5
BRANCH   4   9
ATOM      9  C   UNL     1      35.049 -22.957 -17.487  0.00  0.00    +0.007 C 
BRANCH   9  10
ATOM     10  C   UNL     1      34.794 -21.988 -18.617  0.00  0.00    -0.024 C 
ATOM     11  C   UNL     1      35.870 -21.387 -19.251  0.00  0.00    -0.004 C 
ATOM     12  C   UNL     1      33.489 -21.716 -18.996  0.00  0.00    -0.004 C 
ATOM     13  C   UNL     1      35.634 -20.492 -20.294  0.00  0.00    -0.000 C 
ATOM     14  C   UNL     1      33.254 -20.822 -20.040  0.00  0.00    -0.000 C 
ATOM     15  C   UNL     1      34.326 -20.209 -20.689  0.00  0.00    -0.000 C 
ENDBRANCH   9  10
ENDBRANCH   4   9
ENDBRANCH   1   4
BRANCH   1  16
ATOM     16  C   UNL     1      34.571 -24.247 -14.920  0.00  0.00    -0.036 C 
BRANCH  16  17
ATOM     17  N   UNL     1      35.402 -25.421 -14.627  0.00  0.00    +0.384 N 
ATOM     18  H   UNL     1      36.205 -25.138 -14.065  0.00  0.00    -0.089 HD
ATOM     19  H   UNL     1      35.727 -25.835 -15.501  0.00  0.00    -0.089 HD
ATOM     20  H   UNL     1      34.851 -26.107 -14.110  0.00  0.00    -0.089 HD
ENDBRANCH  16  17
BRANCH  16  21
ATOM     21  C   UNL     1      33.403 -24.213 -13.906  0.00  0.00    +0.007 C 
BRANCH  21  22
ATOM     22  C   UNL     1      32.041 -24.146 -14.555  0.00  0.00    -0.024 C 
ATOM     23  C   UNL     1      31.822 -23.239 -15.579  0.00  0.00    -0.004 C 
ATOM     24  C   UNL     1      31.036 -24.992 -14.114  0.00  0.00    -0.004 C 
ATOM     25  C   UNL     1      30.564 -23.176 -16.178  0.00  0.00    -0.000 C 
ATOM     26  C   UNL     1      29.779 -24.930 -14.715  0.00  0.00    -0.000 C 
ATOM     27  C   UNL     1      29.542 -24.022 -15.746  0.00  0.00    -0.000 C 
ENDBRANCH  21  22
ENDBRANCH  16  21
ENDBRANCH   1  16
TORSDOF 9
ENDMDL
MODEL 9
REMARK VINA RESULT:      -8.2      1.218      7.306
REMARK  Name = 452307
REMARK  9 active torsions:
REMARK  status: ('A' for Active; 'I' for Inactive)
REMARK    1  A    between atoms: C_1  and  O_2
REMARK    2  A    between atoms: C_1  and  C_4
REMARK    3  A    between atoms: C_1  and  C_16
REMARK    4  A    between atoms: C_4  and  N_5
REMARK    5  A    between atoms: C_4  and  C_9
REMARK    6  A    between atoms: C_9  and  C_10
REMARK    7  A    between atoms: C_16  and  N_17
REMARK    8  A    between atoms: C_16  and  C_21
REMARK    9  A    between atoms: C_21  and  C_22
REMARK                            x       y       z     vdW  Elec       q    Type
REMARK                         _______ _______ _______ _____ _____    ______ ____
ROOT
ATOM      1  C   UNL     1      32.941 -15.836 -21.615  0.00  0.00    +0.072 C 
ENDROOT
BRANCH   1   2
ATOM      2  O   UNL     1      32.493 -15.941 -20.257  0.00  0.00    -0.389 OA
ATOM      3  H   UNL     1      31.658 -15.457 -20.154  0.00  0.00    +0.210 HD
ENDBRANCH   1   2
BRANCH   1   4
ATOM      4  C   UNL     1      32.699 -14.385 -22.112  0.00  0.00    -0.036 C 
BRANCH   4   5
ATOM      5  N   UNL     1      32.466 -13.552 -20.916  0.00  0.00    +0.384 N 
ATOM      6  H   UNL     1      32.408 -12.571 -21.191  0.00  0.00    -0.089 HD
ATOM      7  H   UNL     1      33.238 -13.675 -20.261  0.00  0.00    -0.089 HD
ATOM      8  H   UNL     1      31.593 -13.832 -20.471  0.00  0.00    -0.089 HD
ENDBRANCH   4   5
BRANCH   4   9
ATOM      9  C   UNL     1      33.878 -13.764 -22.897  0.00  0.00    +0.007 C 
BRANCH   9  10
ATOM     10  C   UNL     1      33.659 -13.572 -24.379  0.00  0.00    -0.024 C 
ATOM     11  C   UNL     1      33.264 -14.653 -25.152  0.00  0.00    -0.004 C 
ATOM     12  C   UNL     1      33.857 -12.320 -24.938  0.00  0.00    -0.004 C 
ATOM     13  C   UNL     1      33.060 -14.475 -26.520  0.00  0.00    -0.000 C 
ATOM     14  C   UNL     1      33.653 -12.143 -26.306  0.00  0.00    -0.000 C 
ATOM     15  C   UNL     1      33.255 -13.220 -27.097  0.00  0.00    -0.000 C 
ENDBRANCH   9  10
ENDBRANCH   4   9
ENDBRANCH   1   4
BRANCH   1  16
ATOM     16  C   UNL     1      34.402 -16.343 -21.673  0.00  0.00    -0.036 C 
BRANCH  16  17
ATOM     17  N   UNL     1      34.946 -16.488 -20.317  0.00  0.00    +0.384 N 
ATOM     18  H   UNL     1      35.298 -15.587 -19.994  0.00  0.00    -0.089 HD
ATOM     19  H   UNL     1      35.707 -17.168 -20.326  0.00  0.00    -0.089 HD
ATOM     20  H   UNL     1      34.210 -16.810 -19.688  0.00  0.00    -0.089 HD
ENDBRANCH  16  17
BRANCH  16  21
ATOM     21  C   UNL     1      34.551 -17.699 -22.404  0.00  0.00    +0.007 C 
BRANCH  21  22
ATOM     22  C   UNL     1      34.504 -18.892 -21.480  0.00  0.00    -0.024 C 
ATOM     23  C   UNL     1      33.276 -19.370 -21.051  0.00  0.00    -0.004 C 
ATOM     24  C   UNL     1      35.689 -19.487 -21.077  0.00  0.00    -0.004 C 
ATOM     25  C   UNL     1      33.232 -20.472 -20.197  0.00  0.00    -0.000 C 
ATOM     26  C   UNL     1      35.645 -20.590 -20.224  0.00  0.00    -0.000 C 
ATOM     27  C   UNL     1      34.416 -21.082 -19.783  0.00  0.00    -0.000 C 
ENDBRANCH  21  22
ENDBRANCH  16  21
ENDBRANCH   1  16
TORSDOF 9
ENDMDL
