MODEL 1
REMARK VINA RESULT:     -10.0      0.000      0.000
REMARK  Name = 23576
REMARK  4 active torsions:
REMARK  status: ('A' for Active; 'I' for Inactive)
REMARK    1  A    between atoms: N_3  and  C_13
REMARK    2  A    between atoms: N_4  and  C_20
REMARK    3  A    between atoms: C_13  and  C_14
REMARK    4  A    between atoms: C_20  and  C_21
REMARK                            x       y       z     vdW  Elec       q    Type
REMARK                         _______ _______ _______ _____ _____    ______ ____
ROOT
ATOM      1  S   UNL     1      32.348 -14.248 -21.975  0.00  0.00    -0.177 S 
ATOM      2  O   UNL     1      33.090 -15.836 -26.726  0.00  0.00    -0.252 OA
ATOM      3  N   UNL     1      34.123 -16.280 -24.652  0.00  0.00    -0.259 N 
ATOM      4  N   UNL     1      33.459 -14.167 -25.095  0.00  0.00    -0.259 N 
ATOM      5  C   UNL     1      34.325 -15.546 -23.407  0.00  0.00    +0.105 C 
ATOM      6  C   UNL     1      33.182 -15.840 -22.414  0.00  0.00    +0.059 C 
ATOM      7  C   UNL     1      34.239 -14.089 -23.868  0.00  0.00    +0.106 C 
ATOM      8  C   UNL     1      33.667 -13.258 -22.741  0.00  0.00    +0.070 C 
ATOM      9  C   UNL     1      33.667 -16.452 -21.100  0.00  0.00    +0.013 C 
ATOM     10  C   UNL     1      33.026 -14.271 -20.275  0.00  0.00    +0.048 C 
ATOM     11  C   UNL     1      34.144 -15.299 -20.232  0.00  0.00    +0.012 C 
ATOM     12  C   UNL     1      33.501 -15.475 -25.630  0.00  0.00    +0.308 C 
ENDROOT
BRANCH   3  13
ATOM     13  C   UNL     1      34.391 -17.698 -24.771  0.00  0.00    +0.122 C 
BRANCH  13  14
ATOM     14  C   UNL     1      34.966 -18.267 -23.502  0.00  0.00    -0.002 C 
ATOM     15  C   UNL     1      36.209 -17.836 -23.060  0.00  0.00    -0.003 C 
ATOM     16  C   UNL     1      34.246 -19.217 -22.792  0.00  0.00    -0.003 C 
ATOM     17  C   UNL     1      36.741 -18.364 -21.884  0.00  0.00    -0.000 C 
ATOM     18  C   UNL     1      34.778 -19.746 -21.616  0.00  0.00    -0.000 C 
ATOM     19  C   UNL     1      36.027 -19.320 -21.162  0.00  0.00    -0.000 C 
ENDBRANCH  13  14
ENDBRANCH   3  13
BRANCH   4  20
ATOM     20  C   UNL     1      33.004 -12.996 -25.816  0.00  0.00    +0.122 C 
BRANCH  20  21
ATOM     21  C   UNL     1      33.811 -11.774 -25.468  0.00  0.00    -0.002 C 
ATOM     22  C   UNL     1      33.441 -10.999 -24.377  0.00  0.00    -0.003 C 
ATOM     23  C   UNL     1      34.912 -11.439 -26.243  0.00  0.00    -0.003 C 
ATOM     24  C   UNL     1      34.188  -9.866 -24.055  0.00  0.00    -0.000 C 
ATOM     25  C   UNL     1      35.659 -10.306 -25.922  0.00  0.00    -0.000 C 
ATOM     26  C   UNL     1      35.298  -9.520 -24.827  0.00  0.00    -0.000 C 
ENDBRANCH  20  21
ENDBRANCH   4  20
TORSDOF 4
ENDMDL
MODEL 2
REMARK VINA RESULT:      -9.8      3.602      8.480
REMARK  Name = 23576
REMARK  4 active torsions:
REMARK  status: ('A' for Active; 'I' for Inactive)
REMARK    1  A    between atoms: N_3  and  C_13
REMARK    2  A    between atoms: N_4  and  C_20
REMARK    3  A    between atoms: C_13  and  C_14
REMARK    4  A    between atoms: C_20  and  C_21
REMARK                            x       y       z     vdW  Elec       q    Type
REMARK                         _______ _______ _______ _____ _____    ______ ____
ROOT
ATOM      1  S   UNL     1      32.214 -10.324 -20.136  0.00  0.00    -0.177 S 
ATOM      2  O   UNL     1      34.699 -10.896 -24.511  0.00  0.00    -0.252 OA
ATOM      3  N   UNL     1      33.685  -9.073 -23.409  0.00  0.00    -0.259 N 
ATOM      4  N   UNL     1      32.663 -11.085 -23.329  0.00  0.00    -0.259 N 
ATOM      5  C   UNL     1      32.574  -8.901 -22.479  0.00  0.00    +0.105 C 
ATOM      6  C   UNL     1      33.077  -8.948 -21.022  0.00  0.00    +0.059 C 
ATOM      7  C   UNL     1      31.715 -10.135 -22.762  0.00  0.00    +0.106 C 
ATOM      8  C   UNL     1      31.015 -10.541 -21.485  0.00  0.00    +0.070 C 
ATOM      9  C   UNL     1      32.775  -7.671 -20.238  0.00  0.00    +0.013 C 
ATOM     10  C   UNL     1      31.227  -9.159 -19.127  0.00  0.00    +0.048 C 
ATOM     11  C   UNL     1      31.337  -7.783 -19.760  0.00  0.00    +0.012 C 
ATOM     12  C   UNL     1      33.799 -10.414 -23.833  0.00  0.00    +0.308 C 
ENDROOT
BRANCH   3  13
ATOM     13  C   UNL     1      34.623  -8.010 -23.705  0.00  0.00    +0.122 C 
BRANCH  13  14
ATOM     14  C   UNL     1      33.979  -6.895 -24.484  0.00  0.00    -0.002 C 
ATOM     15  C   UNL     1      32.732  -6.422 -24.099  0.00  0.00    -0.003 C 
ATOM     16  C   UNL     1      34.640  -6.356 -25.579  0.00  0.00    -0.003 C 
ATOM     17  C   UNL     1      32.136  -5.389 -24.821  0.00  0.00    -0.000 C 
ATOM     18  C   UNL     1      34.044  -5.324 -26.302  0.00  0.00    -0.000 C 
ATOM     19  C   UNL     1      32.791  -4.840 -25.923  0.00  0.00    -0.000 C 
ENDBRANCH  13  14
ENDBRANCH   3  13
BRANCH   4  20
ATOM     20  C   UNL     1      32.319 -12.461 -23.625  0.00  0.00    +0.122 C 
BRANCH  20  21
ATOM     21  C   UNL     1      32.944 -13.418 -22.644  0.00  0.00    -0.002 C 
ATOM     22  C   UNL     1      34.144 -14.037 -22.964  0.00  0.00    -0.003 C 
ATOM     23  C   UNL     1      32.310 -13.668 -21.435  0.00  0.00    -0.003 C 
ATOM     24  C   UNL     1      34.723 -14.924 -22.056  0.00  0.00    -0.000 C 
ATOM     25  C   UNL     1      32.888 -14.555 -20.528  0.00  0.00    -0.000 C 
ATOM     26  C   UNL     1      34.094 -15.183 -20.838  0.00  0.00    -0.000 C 
ENDBRANCH  20  21
ENDBRANCH   4  20
TORSDOF 4
ENDMDL
MODEL 3
REMARK VINA RESULT:      -9.7      2.763      7.364
REMARK  Name = 23576
REMARK  4 active torsions:
REMARK  status: ('A' for Active; 'I' for Inactive)
REMARK    1  A    between atoms: N_3  and  C_13
REMARK    2  A    between atoms: N_4  and  C_20
REMARK    3  A    between atoms: C_13  and  C_14
REMARK    4  A    between atoms: C_20  and  C_21
REMARK                            x       y       z     vdW  Elec       q    Type
REMARK                         _______ _______ _______ _____ _____    ______ ____
ROOT
ATOM      1  S   UNL     1      33.585 -15.929 -24.454  0.00  0.00    -0.177 S 
ATOM      2  O   UNL     1      32.267 -14.168 -19.893  0.00  0.00    -0.252 OA
ATOM      3  N   UNL     1      32.480 -13.211 -22.039  0.00  0.00    -0.259 N 
ATOM      4  N   UNL     1      34.002 -14.747 -21.387  0.00  0.00    -0.259 N 
ATOM      5  C   UNL     1      33.292 -13.470 -23.223  0.00  0.00    +0.105 C 
ATOM      6  C   UNL     1      32.552 -14.417 -24.189  0.00  0.00    +0.059 C 
ATOM      7  C   UNL     1      34.508 -14.190 -22.634  0.00  0.00    +0.106 C 
ATOM      8  C   UNL     1      35.034 -15.169 -23.661  0.00  0.00    +0.070 C 
ATOM      9  C   UNL     1      32.316 -13.806 -25.570  0.00  0.00    +0.013 C 
ATOM     10  C   UNL     1      33.981 -15.451 -26.176  0.00  0.00    +0.048 C 
ATOM     11  C   UNL     1      33.604 -13.990 -26.354  0.00  0.00    +0.012 C 
ATOM     12  C   UNL     1      32.840 -14.059 -20.970  0.00  0.00    +0.308 C 
ENDROOT
BRANCH   3  13
ATOM     13  C   UNL     1      31.351 -12.304 -22.054  0.00  0.00    +0.122 C 
BRANCH  13  14
ATOM     14  C   UNL     1      31.685 -10.983 -21.414  0.00  0.00    -0.002 C 
ATOM     15  C   UNL     1      31.514 -10.823 -20.046  0.00  0.00    -0.003 C 
ATOM     16  C   UNL     1      32.160  -9.943 -22.201  0.00  0.00    -0.003 C 
ATOM     17  C   UNL     1      31.823  -9.599 -19.453  0.00  0.00    -0.000 C 
ATOM     18  C   UNL     1      32.468  -8.719 -21.609  0.00  0.00    -0.000 C 
ATOM     19  C   UNL     1      32.300  -8.547 -20.235  0.00  0.00    -0.000 C 
ENDBRANCH  13  14
ENDBRANCH   3  13
BRANCH   4  20
ATOM     20  C   UNL     1      34.777 -15.639 -20.549  0.00  0.00    +0.122 C 
BRANCH  20  21
ATOM     21  C   UNL     1      34.532 -17.084 -20.892  0.00  0.00    -0.002 C 
ATOM     22  C   UNL     1      33.243 -17.594 -20.818  0.00  0.00    -0.003 C 
ATOM     23  C   UNL     1      35.597 -17.887 -21.275  0.00  0.00    -0.003 C 
ATOM     24  C   UNL     1      33.015 -18.933 -21.134  0.00  0.00    -0.000 C 
ATOM     25  C   UNL     1      35.370 -19.226 -21.591  0.00  0.00    -0.000 C 
ATOM     26  C   UNL     1      34.079 -19.749 -21.521  0.00  0.00    -0.000 C 
ENDBRANCH  20  21
ENDBRANCH   4  20
TORSDOF 4
ENDMDL
MODEL 4
REMARK VINA RESULT:      -9.5      8.330     11.676
REMARK  Name = 23576
REMARK  4 active torsions:
REMARK  status: ('A' for Active; 'I' for Inactive)
REMARK    1  A    between atoms: N_3  and  C_13
REMARK    2  A    between atoms: N_4  and  C_20
REMARK    3  A    between atoms: C_13  and  C_14
REMARK    4  A    between atoms: C_20  and  C_21
REMARK                            x       y       z     vdW  Elec       q    Type
REMARK                         _______ _______ _______ _____ _____    ______ ____
ROOT
ATOM      1  S   UNL     1      31.180 -25.002 -15.688  0.00  0.00    -0.177 S 
ATOM      2  O   UNL     1      35.928 -23.612 -16.768  0.00  0.00    -0.252 OA
ATOM      3  N   UNL     1      34.395 -23.076 -15.057  0.00  0.00    -0.259 N 
ATOM      4  N   UNL     1      33.619 -23.314 -17.165  0.00  0.00    -0.259 N 
ATOM      5  C   UNL     1      32.942 -23.007 -14.939  0.00  0.00    +0.105 C 
ATOM      6  C   UNL     1      32.376 -24.350 -14.436  0.00  0.00    +0.059 C 
ATOM      7  C   UNL     1      32.507 -22.781 -16.390  0.00  0.00    +0.106 C 
ATOM      8  C   UNL     1      31.154 -23.426 -16.594  0.00  0.00    +0.070 C 
ATOM      9  C   UNL     1      31.603 -24.225 -13.123  0.00  0.00    +0.013 C 
ATOM     10  C   UNL     1      29.744 -24.673 -14.602  0.00  0.00    +0.048 C 
ATOM     11  C   UNL     1      30.205 -23.754 -13.484  0.00  0.00    +0.012 C 
ATOM     12  C   UNL     1      34.792 -23.369 -16.379  0.00  0.00    +0.308 C 
ENDROOT
BRANCH   3  13
ATOM     13  C   UNL     1      35.271 -23.007 -13.907  0.00  0.00    +0.122 C 
BRANCH  13  14
ATOM     14  C   UNL     1      36.320 -24.087 -13.937  0.00  0.00    -0.002 C 
ATOM     15  C   UNL     1      35.932 -25.419 -13.887  0.00  0.00    -0.003 C 
ATOM     16  C   UNL     1      37.660 -23.736 -14.012  0.00  0.00    -0.003 C 
ATOM     17  C   UNL     1      36.904 -26.419 -13.915  0.00  0.00    -0.000 C 
ATOM     18  C   UNL     1      38.632 -24.736 -14.039  0.00  0.00    -0.000 C 
ATOM     19  C   UNL     1      38.254 -26.078 -13.990  0.00  0.00    -0.000 C 
ENDBRANCH  13  14
ENDBRANCH   3  13
BRANCH   4  20
ATOM     20  C   UNL     1      33.586 -23.440 -18.607  0.00  0.00    +0.122 C 
BRANCH  20  21
ATOM     21  C   UNL     1      33.968 -22.155 -19.291  0.00  0.00    -0.002 C 
ATOM     22  C   UNL     1      32.973 -21.273 -19.692  0.00  0.00    -0.003 C 
ATOM     23  C   UNL     1      35.307 -21.869 -19.514  0.00  0.00    -0.003 C 
ATOM     24  C   UNL     1      33.325 -20.082 -20.327  0.00  0.00    -0.000 C 
ATOM     25  C   UNL     1      35.660 -20.679 -20.148  0.00  0.00    -0.000 C 
ATOM     26  C   UNL     1      34.670 -19.785 -20.554  0.00  0.00    -0.000 C 
ENDBRANCH  20  21
ENDBRANCH   4  20
TORSDOF 4
ENDMDL
MODEL 5
REMARK VINA RESULT:      -9.3      8.383     12.604
REMARK  Name = 23576
REMARK  4 active torsions:
REMARK  status: ('A' for Active; 'I' for Inactive)
REMARK    1  A    between atoms: N_3  and  C_13
REMARK    2  A    between atoms: N_4  and  C_20
REMARK    3  A    between atoms: C_13  and  C_14
REMARK    4  A    between atoms: C_20  and  C_21
REMARK                            x       y       z     vdW  Elec       q    Type
REMARK                         _______ _______ _______ _____ _____    ______ ____
ROOT
ATOM      1  S   UNL     1      34.972 -25.053 -13.561  0.00  0.00    -0.177 S 
ATOM      2  O   UNL     1      31.832 -23.219 -17.085  0.00  0.00    -0.252 OA
ATOM      3  N   UNL     1      34.176 -23.284 -16.829  0.00  0.00    -0.259 N 
ATOM      4  N   UNL     1      32.902 -22.905 -15.003  0.00  0.00    -0.259 N 
ATOM      5  C   UNL     1      35.104 -23.310 -15.704  0.00  0.00    +0.105 C 
ATOM      6  C   UNL     1      35.453 -24.764 -15.324  0.00  0.00    +0.059 C 
ATOM      7  C   UNL     1      34.278 -22.674 -14.583  0.00  0.00    +0.106 C 
ATOM      8  C   UNL     1      34.705 -23.279 -13.264  0.00  0.00    +0.070 C 
ATOM      9  C   UNL     1      36.948 -25.071 -15.421  0.00  0.00    +0.013 C 
ATOM     10  C   UNL     1      36.718 -25.124 -13.015  0.00  0.00    +0.048 C 
ATOM     11  C   UNL     1      37.580 -24.567 -14.135  0.00  0.00    +0.012 C 
ATOM     12  C   UNL     1      32.841 -23.149 -16.393  0.00  0.00    +0.308 C 
ENDROOT
BRANCH   3  13
ATOM     13  C   UNL     1      34.600 -23.532 -18.191  0.00  0.00    +0.122 C 
BRANCH  13  14
ATOM     14  C   UNL     1      34.654 -22.264 -19.001  0.00  0.00    -0.002 C 
ATOM     15  C   UNL     1      33.474 -21.683 -19.441  0.00  0.00    -0.003 C 
ATOM     16  C   UNL     1      35.885 -21.695 -19.296  0.00  0.00    -0.003 C 
ATOM     17  C   UNL     1      33.525 -20.508 -20.191  0.00  0.00    -0.000 C 
ATOM     18  C   UNL     1      35.937 -20.521 -20.047  0.00  0.00    -0.000 C 
ATOM     19  C   UNL     1      34.756 -19.928 -20.495  0.00  0.00    -0.000 C 
ENDBRANCH  13  14
ENDBRANCH   3  13
BRANCH   4  20
ATOM     20  C   UNL     1      31.760 -22.591 -14.170  0.00  0.00    +0.122 C 
BRANCH  20  21
ATOM     21  C   UNL     1      30.528 -23.341 -14.602  0.00  0.00    -0.002 C 
ATOM     22  C   UNL     1      30.442 -24.706 -14.366  0.00  0.00    -0.003 C 
ATOM     23  C   UNL     1      29.497 -22.657 -15.230  0.00  0.00    -0.003 C 
ATOM     24  C   UNL     1      29.301 -25.402 -14.767  0.00  0.00    -0.000 C 
ATOM     25  C   UNL     1      28.356 -23.352 -15.632  0.00  0.00    -0.000 C 
ATOM     26  C   UNL     1      28.258 -24.724 -15.400  0.00  0.00    -0.000 C 
ENDBRANCH  20  21
ENDBRANCH   4  20
TORSDOF 4
ENDMDL
MODEL 6
REMARK VINA RESULT:      -9.2      3.962      6.313
REMARK  Name = 23576
REMARK  4 active torsions:
REMARK  status: ('A' for Active; 'I' for Inactive)
REMARK    1  A    between atoms: N_3  and  C_13
REMARK    2  A    between atoms: N_4  and  C_20
REMARK    3  A    between atoms: C_13  and  C_14
REMARK    4  A    between atoms: C_20  and  C_21
REMARK                            x       y       z     vdW  Elec       q    Type
REMARK                         _______ _______ _______ _____ _____    ______ ____
ROOT
ATOM      1  S   UNL     1      35.176 -10.084 -24.214  0.00  0.00    -0.177 S 
ATOM      2  O   UNL     1      31.956  -9.826 -20.315  0.00  0.00    -0.252 OA
ATOM      3  N   UNL     1      31.884 -10.809 -22.458  0.00  0.00    -0.259 N 
ATOM      4  N   UNL     1      32.860  -8.785 -22.232  0.00  0.00    -0.259 N 
ATOM      5  C   UNL     1      32.485 -10.528 -23.757  0.00  0.00    +0.105 C 
ATOM      6  C   UNL     1      33.811 -11.298 -23.919  0.00  0.00    +0.059 C 
ATOM      7  C   UNL     1      32.774  -9.027 -23.666  0.00  0.00    +0.106 C 
ATOM      8  C   UNL     1      34.005  -8.721 -24.490  0.00  0.00    +0.070 C 
ATOM      9  C   UNL     1      33.813 -12.252 -25.113  0.00  0.00    +0.013 C 
ATOM     10  C   UNL     1      35.358 -10.597 -25.961  0.00  0.00    +0.048 C 
ATOM     11  C   UNL     1      34.134 -11.414 -26.339  0.00  0.00    +0.012 C 
ATOM     12  C   UNL     1      32.205  -9.810 -21.514  0.00  0.00    +0.308 C 
ENDROOT
BRANCH   3  13
ATOM     13  C   UNL     1      31.192 -12.049 -22.174  0.00  0.00    +0.122 C 
BRANCH  13  14
ATOM     14  C   UNL     1      32.151 -13.181 -21.924  0.00  0.00    -0.002 C 
ATOM     15  C   UNL     1      32.465 -14.052 -22.958  0.00  0.00    -0.003 C 
ATOM     16  C   UNL     1      32.707 -13.340 -20.663  0.00  0.00    -0.003 C 
ATOM     17  C   UNL     1      33.354 -15.102 -22.726  0.00  0.00    -0.000 C 
ATOM     18  C   UNL     1      33.595 -14.390 -20.430  0.00  0.00    -0.000 C 
ATOM     19  C   UNL     1      33.918 -15.271 -21.462  0.00  0.00    -0.000 C 
ENDBRANCH  13  14
ENDBRANCH   3  13
BRANCH   4  20
ATOM     20  C   UNL     1      33.262  -7.512 -21.670  0.00  0.00    +0.122 C 
BRANCH  20  21
ATOM     21  C   UNL     1      32.303  -6.410 -22.034  0.00  0.00    -0.002 C 
ATOM     22  C   UNL     1      31.268  -6.091 -21.166  0.00  0.00    -0.003 C 
ATOM     23  C   UNL     1      32.466  -5.731 -23.233  0.00  0.00    -0.003 C 
ATOM     24  C   UNL     1      30.379  -5.071 -21.503  0.00  0.00    -0.000 C 
ATOM     25  C   UNL     1      31.577  -4.711 -23.571  0.00  0.00    -0.000 C 
ATOM     26  C   UNL     1      30.534  -4.381 -22.706  0.00  0.00    -0.000 C 
ENDBRANCH  20  21
ENDBRANCH   4  20
TORSDOF 4
ENDMDL
MODEL 7
REMARK VINA RESULT:      -9.2      1.921      6.549
REMARK  Name = 23576
REMARK  4 active torsions:
REMARK  status: ('A' for Active; 'I' for Inactive)
REMARK    1  A    between atoms: N_3  and  C_13
REMARK    2  A    between atoms: N_4  and  C_20
REMARK    3  A    between atoms: C_13  and  C_14
REMARK    4  A    between atoms: C_20  and  C_21
REMARK                            x       y       z     vdW  Elec       q    Type
REMARK                         _______ _______ _______ _____ _____    ______ ____
ROOT
ATOM      1  S   UNL     1      32.768 -11.973 -20.344  0.00  0.00    -0.177 S 
ATOM      2  O   UNL     1      35.090 -14.728 -23.902  0.00  0.00    -0.252 OA
ATOM      3  N   UNL     1      32.971 -13.706 -23.721  0.00  0.00    -0.259 N 
ATOM      4  N   UNL     1      33.852 -14.695 -21.891  0.00  0.00    -0.259 N 
ATOM      5  C   UNL     1      32.066 -13.365 -22.629  0.00  0.00    +0.105 C 
ATOM      6  C   UNL     1      32.326 -11.925 -22.140  0.00  0.00    +0.059 C 
ATOM      7  C   UNL     1      32.480 -14.356 -21.538  0.00  0.00    +0.106 C 
ATOM      8  C   UNL     1      32.257 -13.711 -20.188  0.00  0.00    +0.070 C 
ATOM      9  C   UNL     1      31.103 -11.017 -22.262  0.00  0.00    +0.013 C 
ATOM     10  C   UNL     1      31.177 -11.214 -19.853  0.00  0.00    +0.048 C 
ATOM     11  C   UNL     1      30.236 -11.289 -21.044  0.00  0.00    +0.012 C 
ATOM     12  C   UNL     1      34.100 -14.413 -23.254  0.00  0.00    +0.308 C 
ENDROOT
BRANCH   3  13
ATOM     13  C   UNL     1      32.779 -13.220 -25.071  0.00  0.00    +0.122 C 
BRANCH  13  14
ATOM     14  C   UNL     1      33.783 -12.158 -25.432  0.00  0.00    -0.002 C 
ATOM     15  C   UNL     1      34.092 -11.167 -24.511  0.00  0.00    -0.003 C 
ATOM     16  C   UNL     1      34.384 -12.185 -26.682  0.00  0.00    -0.003 C 
ATOM     17  C   UNL     1      35.022 -10.183 -24.847  0.00  0.00    -0.000 C 
ATOM     18  C   UNL     1      35.314 -11.201 -27.019  0.00  0.00    -0.000 C 
ATOM     19  C   UNL     1      35.633 -10.200 -26.101  0.00  0.00    -0.000 C 
ENDBRANCH  13  14
ENDBRANCH   3  13
BRANCH   4  20
ATOM     20  C   UNL     1      34.705 -15.509 -21.049  0.00  0.00    +0.122 C 
BRANCH  20  21
ATOM     21  C   UNL     1      34.672 -16.959 -21.452  0.00  0.00    -0.002 C 
ATOM     22  C   UNL     1      33.716 -17.800 -20.900  0.00  0.00    -0.003 C 
ATOM     23  C   UNL     1      35.599 -17.435 -22.370  0.00  0.00    -0.003 C 
ATOM     24  C   UNL     1      33.686 -19.144 -21.272  0.00  0.00    -0.000 C 
ATOM     25  C   UNL     1      35.569 -18.778 -22.742  0.00  0.00    -0.000 C 
ATOM     26  C   UNL     1      34.613 -19.633 -22.194  0.00  0.00    -0.000 C 
ENDBRANCH  20  21
ENDBRANCH   4  20
TORSDOF 4
ENDMDL
MODEL 8
REMARK VINA RESULT:      -9.0      7.664     11.787
REMARK  Name = 23576
REMARK  4 active torsions:
REMARK  status: ('A' for Active; 'I' for Inactive)
REMARK    1  A    between atoms: N_3  and  C_13
REMARK    2  A    between atoms: N_4  and  C_20
REMARK    3  A    between atoms: C_13  and  C_14
REMARK    4  A    between atoms: C_20  and  C_21
REMARK                            x       y       z     vdW  Elec       q    Type
REMARK                         _______ _______ _______ _____ _____    ______ ____
ROOT
ATOM      1  S   UNL     1      35.710 -24.827 -14.382  0.00  0.00    -0.177 S 
ATOM      2  O   UNL     1      33.348 -23.906 -18.765  0.00  0.00    -0.252 OA
ATOM      3  N   UNL     1      34.896 -22.719 -17.438  0.00  0.00    -0.259 N 
ATOM      4  N   UNL     1      33.261 -23.886 -16.405  0.00  0.00    -0.259 N 
ATOM      5  C   UNL     1      35.218 -22.652 -16.016  0.00  0.00    +0.105 C 
ATOM      6  C   UNL     1      36.337 -23.653 -15.666  0.00  0.00    +0.059 C 
ATOM      7  C   UNL     1      33.908 -23.101 -15.362  0.00  0.00    +0.106 C 
ATOM      8  C   UNL     1      34.234 -23.813 -14.068  0.00  0.00    +0.070 C 
ATOM      9  C   UNL     1      37.580 -22.987 -15.075  0.00  0.00    +0.013 C 
ATOM     10  C   UNL     1      36.777 -24.099 -13.085  0.00  0.00    +0.048 C 
ATOM     11  C   UNL     1      37.295 -22.767 -13.599  0.00  0.00    +0.012 C 
ATOM     12  C   UNL     1      33.781 -23.552 -17.675  0.00  0.00    +0.308 C 
ENDROOT
BRANCH   3  13
ATOM     13  C   UNL     1      35.737 -22.124 -18.454  0.00  0.00    +0.122 C 
BRANCH  13  14
ATOM     14  C   UNL     1      34.948 -21.257 -19.398  0.00  0.00    -0.002 C 
ATOM     15  C   UNL     1      35.610 -20.542 -20.386  0.00  0.00    -0.003 C 
ATOM     16  C   UNL     1      33.568 -21.184 -19.265  0.00  0.00    -0.003 C 
ATOM     17  C   UNL     1      34.878 -19.739 -21.260  0.00  0.00    -0.000 C 
ATOM     18  C   UNL     1      32.836 -20.380 -20.139  0.00  0.00    -0.000 C 
ATOM     19  C   UNL     1      33.491 -19.657 -21.136  0.00  0.00    -0.000 C 
ENDBRANCH  13  14
ENDBRANCH   3  13
BRANCH   4  20
ATOM     20  C   UNL     1      32.041 -24.635 -16.185  0.00  0.00    +0.122 C 
BRANCH  20  21
ATOM     21  C   UNL     1      30.878 -23.733 -15.868  0.00  0.00    -0.002 C 
ATOM     22  C   UNL     1      29.998 -23.371 -16.879  0.00  0.00    -0.003 C 
ATOM     23  C   UNL     1      30.702 -23.275 -14.570  0.00  0.00    -0.003 C 
ATOM     24  C   UNL     1      28.921 -22.535 -16.586  0.00  0.00    -0.000 C 
ATOM     25  C   UNL     1      29.626 -22.438 -14.276  0.00  0.00    -0.000 C 
ATOM     26  C   UNL     1      28.735 -22.069 -15.283  0.00  0.00    -0.000 C 
ENDBRANCH  20  21
ENDBRANCH   4  20
TORSDOF 4
ENDMDL
MODEL 9
REMARK VINA RESULT:      -8.8      8.140     12.543
REMARK  Name = 23576
REMARK  4 active torsions:
REMARK  status: ('A' for Active; 'I' for Inactive)
REMARK    1  A    between atoms: N_3  and  C_13
REMARK    2  A    between atoms: N_4  and  C_20
REMARK    3  A    between atoms: C_13  and  C_14
REMARK    4  A    between atoms: C_20  and  C_21
REMARK                            x       y       z     vdW  Elec       q    Type
REMARK                         _______ _______ _______ _____ _____    ______ ____
ROOT
ATOM      1  S   UNL     1      36.675 -21.830 -19.479  0.00  0.00    -0.177 S 
ATOM      2  O   UNL     1      35.402 -25.053 -15.787  0.00  0.00    -0.252 OA
ATOM      3  N   UNL     1      34.275 -23.334 -16.945  0.00  0.00    -0.259 N 
ATOM      4  N   UNL     1      36.444 -23.023 -16.397  0.00  0.00    -0.259 N 
ATOM      5  C   UNL     1      34.661 -22.090 -17.602  0.00  0.00    +0.105 C 
ATOM      6  C   UNL     1      34.935 -22.332 -19.100  0.00  0.00    +0.059 C 
ATOM      7  C   UNL     1      35.972 -21.738 -16.894  0.00  0.00    +0.106 C 
ATOM      8  C   UNL     1      36.867 -21.006 -17.870  0.00  0.00    +0.070 C 
ATOM      9  C   UNL     1      34.035 -21.506 -20.019  0.00  0.00    +0.013 C 
ATOM     10  C   UNL     1      36.127 -20.365 -20.430  0.00  0.00    +0.048 C 
ATOM     11  C   UNL     1      34.660 -20.124 -20.114  0.00  0.00    +0.012 C 
ATOM     12  C   UNL     1      35.378 -23.947 -16.312  0.00  0.00    +0.308 C 
ENDROOT
BRANCH   3  13
ATOM     13  C   UNL     1      32.955 -23.911 -17.086  0.00  0.00    +0.122 C 
BRANCH  13  14
ATOM     14  C   UNL     1      32.048 -23.520 -15.951  0.00  0.00    -0.002 C 
ATOM     15  C   UNL     1      32.528 -23.554 -14.649  0.00  0.00    -0.003 C 
ATOM     16  C   UNL     1      30.743 -23.131 -16.221  0.00  0.00    -0.003 C 
ATOM     17  C   UNL     1      31.686 -23.192 -13.597  0.00  0.00    -0.000 C 
ATOM     18  C   UNL     1      29.902 -22.770 -15.170  0.00  0.00    -0.000 C 
ATOM     19  C   UNL     1      30.373 -22.800 -13.857  0.00  0.00    -0.000 C 
ENDBRANCH  13  14
ENDBRANCH   3  13
BRANCH   4  20
ATOM     20  C   UNL     1      37.739 -23.199 -15.772  0.00  0.00    +0.122 C 
BRANCH  20  21
ATOM     21  C   UNL     1      37.615 -23.660 -14.345  0.00  0.00    -0.002 C 
ATOM     22  C   UNL     1      36.893 -22.894 -13.440  0.00  0.00    -0.003 C 
ATOM     23  C   UNL     1      38.225 -24.843 -13.953  0.00  0.00    -0.003 C 
ATOM     24  C   UNL     1      36.779 -23.320 -12.117  0.00  0.00    -0.000 C 
ATOM     25  C   UNL     1      38.111 -25.270 -12.630  0.00  0.00    -0.000 C 
ATOM     26  C   UNL     1      37.388 -24.509 -11.712  0.00  0.00    -0.000 C 
ENDBRANCH  20  21
ENDBRANCH   4  20
TORSDOF 4
ENDMDL
