MODEL 1
REMARK VINA RESULT:     -10.6      0.000      0.000
REMARK  Name = 24983461
REMARK  7 active torsions:
REMARK  status: ('A' for Active; 'I' for Inactive)
REMARK    1  A    between atoms: N_1  and  C_26
REMARK    2  A    between atoms: N_2  and  C_12
REMARK    3  A    between atoms: N_15  and  C_17
REMARK    4  A    between atoms: C_17  and  C_19
REMARK    5  A    between atoms: C_26  and  C_27
REMARK    6  A    between atoms: C_26  and  C_31
REMARK    7  A    between atoms: C_27  and  O_29
REMARK                            x       y       z     vdW  Elec       q    Type
REMARK                         _______ _______ _______ _____ _____    ______ ____
ROOT
ATOM      1  N   UNL     1      34.860 -24.557 -14.896  0.00  0.00    -0.258 N 
ATOM      2  N   UNL     1      30.265 -23.540 -15.289  0.00  0.00    -0.262 N 
ATOM      3  N   UNL     1      32.583 -24.154 -14.895  0.00  0.00    -0.311 NA
ATOM      4  N   UNL     1      34.011 -23.456 -16.747  0.00  0.00    -0.311 NA
ATOM      5  N   UNL     1      30.463 -22.553 -17.279  0.00  0.00    -0.240 NA
ATOM      6  C   UNL     1      31.590 -23.608 -15.614  0.00  0.00    +0.220 C 
ATOM      7  C   UNL     1      31.691 -22.990 -16.850  0.00  0.00    +0.167 C 
ATOM      8  C   UNL     1      33.760 -24.030 -15.546  0.00  0.00    +0.202 C 
ATOM      9  C   UNL     1      32.960 -22.924 -17.419  0.00  0.00    +0.215 C 
ATOM     10  C   UNL     1      29.630 -22.899 -16.319  0.00  0.00    +0.222 C 
ATOM     11  H   UNL     1      34.723 -24.981 -14.018  0.00  0.00    +0.160 HD
ATOM     12  N   UNL     1      33.157 -22.314 -18.669  0.00  0.00    -0.302 N 
ATOM     13  H   UNL     1      32.376 -21.936 -19.135  0.00  0.00    +0.150 HD
ENDROOT
BRANCH   2  14
ATOM     14  C   UNL     1      29.642 -24.046 -14.090  0.00  0.00    +0.077 C 
ATOM     15  C   UNL     1      30.584 -23.959 -12.887  0.00  0.00    +0.022 C 
ATOM     16  C   UNL     1      29.132 -25.477 -14.281  0.00  0.00    +0.022 C 
ENDBRANCH   2  14
BRANCH  12  17
ATOM     17  C   UNL     1      34.440 -22.219 -19.300  0.00  0.00    +0.117 C 
BRANCH  17  19
ATOM     18  N   UNL     1      33.474 -19.033 -21.079  0.00  0.00    -0.248 NA
ATOM     19  C   UNL     1      34.574 -20.909 -20.026  0.00  0.00    +0.013 C 
ATOM     20  C   UNL     1      35.816 -20.356 -20.320  0.00  0.00    -0.022 C 
ATOM     21  C   UNL     1      33.444 -20.215 -20.424  0.00  0.00    +0.095 C 
ATOM     22  C   UNL     1      35.887 -19.141 -20.993  0.00  0.00    +0.010 C 
ATOM     23  C   UNL     1      37.079 -21.045 -19.924  0.00  0.00    +0.031 C 
ATOM     24  C   UNL     1      34.697 -18.526 -21.348  0.00  0.00    +0.059 C 
ATOM     25  C   UNL     1      34.736 -17.221 -22.071  0.00  0.00    +0.052 C 
ENDBRANCH  17  19
ENDBRANCH  12  17
BRANCH   1  26
ATOM     26  C   UNL     1      36.204 -24.519 -15.440  0.00  0.00    +0.107 C 
BRANCH  26  27
ATOM     27  C   UNL     1      36.965 -25.799 -15.049  0.00  0.00    +0.129 C 
ATOM     28  C   UNL     1      37.619 -25.710 -13.674  0.00  0.00    +0.034 C 
BRANCH  27  29
ATOM     29  O   UNL     1      36.083 -26.920 -15.077  0.00  0.00    -0.383 OA
ATOM     30  H   UNL     1      35.965 -27.260 -14.176  0.00  0.00    +0.210 HD
ENDBRANCH  27  29
ENDBRANCH  26  27
BRANCH  26  31
ATOM     31  C   UNL     1      36.922 -23.256 -14.934  0.00  0.00    +0.023 C 
ATOM     32  C   UNL     1      37.436 -22.379 -16.069  0.00  0.00    +0.002 C 
ENDBRANCH  26  31
ENDBRANCH   1  26
TORSDOF 7
ENDMDL
MODEL 2
REMARK VINA RESULT:     -10.3      1.124      1.717
REMARK  Name = 24983461
REMARK  7 active torsions:
REMARK  status: ('A' for Active; 'I' for Inactive)
REMARK    1  A    between atoms: N_1  and  C_26
REMARK    2  A    between atoms: N_2  and  C_12
REMARK    3  A    between atoms: N_15  and  C_17
REMARK    4  A    between atoms: C_17  and  C_19
REMARK    5  A    between atoms: C_26  and  C_27
REMARK    6  A    between atoms: C_26  and  C_31
REMARK    7  A    between atoms: C_27  and  O_29
REMARK                            x       y       z     vdW  Elec       q    Type
REMARK                         _______ _______ _______ _____ _____    ______ ____
ROOT
ATOM      1  N   UNL     1      35.554 -24.773 -14.642  0.00  0.00    -0.258 N 
ATOM      2  N   UNL     1      30.963 -23.934 -15.360  0.00  0.00    -0.262 N 
ATOM      3  N   UNL     1      33.267 -24.477 -14.814  0.00  0.00    -0.311 NA
ATOM      4  N   UNL     1      34.812 -23.537 -16.453  0.00  0.00    -0.311 NA
ATOM      5  N   UNL     1      31.280 -22.750 -17.222  0.00  0.00    -0.240 NA
ATOM      6  C   UNL     1      32.313 -23.910 -15.567  0.00  0.00    +0.220 C 
ATOM      7  C   UNL     1      32.488 -23.170 -16.725  0.00  0.00    +0.167 C 
ATOM      8  C   UNL     1      34.489 -24.236 -15.338  0.00  0.00    +0.202 C 
ATOM      9  C   UNL     1      33.797 -22.990 -17.165  0.00  0.00    +0.215 C 
ATOM     10  C   UNL     1      30.386 -23.225 -16.380  0.00  0.00    +0.222 C 
ATOM     11  H   UNL     1      35.365 -25.287 -13.823  0.00  0.00    +0.160 HD
ATOM     12  N   UNL     1      34.068 -22.252 -18.330  0.00  0.00    -0.302 N 
ATOM     13  H   UNL     1      33.311 -21.866 -18.828  0.00  0.00    +0.150 HD
ENDROOT
BRANCH   2  14
ATOM     14  C   UNL     1      30.266 -24.584 -14.276  0.00  0.00    +0.077 C 
ATOM     15  C   UNL     1      28.821 -24.915 -14.654  0.00  0.00    +0.022 C 
ATOM     16  C   UNL     1      30.318 -23.750 -12.993  0.00  0.00    +0.022 C 
ENDBRANCH   2  14
BRANCH  12  17
ATOM     17  C   UNL     1      35.394 -22.037 -18.828  0.00  0.00    +0.117 C 
BRANCH  17  19
ATOM     18  N   UNL     1      36.729 -19.165 -20.884  0.00  0.00    -0.248 NA
ATOM     19  C   UNL     1      35.420 -20.864 -19.769  0.00  0.00    +0.013 C 
ATOM     20  C   UNL     1      34.266 -20.388 -20.381  0.00  0.00    -0.022 C 
ATOM     21  C   UNL     1      36.615 -20.224 -20.051  0.00  0.00    +0.095 C 
ATOM     22  C   UNL     1      34.342 -19.301 -21.244  0.00  0.00    +0.010 C 
ATOM     23  C   UNL     1      32.941 -21.025 -20.127  0.00  0.00    +0.031 C 
ATOM     24  C   UNL     1      35.586 -18.730 -21.460  0.00  0.00    +0.059 C 
ATOM     25  C   UNL     1      35.706 -17.561 -22.380  0.00  0.00    +0.052 C 
ENDBRANCH  17  19
ENDBRANCH  12  17
BRANCH   1  26
ATOM     26  C   UNL     1      36.937 -24.620 -15.053  0.00  0.00    +0.107 C 
BRANCH  26  27
ATOM     27  C   UNL     1      37.663 -25.975 -14.968  0.00  0.00    +0.129 C 
ATOM     28  C   UNL     1      37.440 -26.691 -13.639  0.00  0.00    +0.034 C 
BRANCH  27  29
ATOM     29  O   UNL     1      37.241 -26.823 -16.034  0.00  0.00    -0.383 OA
ATOM     30  H   UNL     1      36.272 -26.856 -16.055  0.00  0.00    +0.210 HD
ENDBRANCH  27  29
ENDBRANCH  26  27
BRANCH  26  31
ATOM     31  C   UNL     1      37.616 -23.557 -14.173  0.00  0.00    +0.023 C 
ATOM     32  C   UNL     1      36.878 -23.324 -12.860  0.00  0.00    +0.002 C 
ENDBRANCH  26  31
ENDBRANCH   1  26
TORSDOF 7
ENDMDL
MODEL 3
REMARK VINA RESULT:     -10.2      2.113      5.220
REMARK  Name = 24983461
REMARK  7 active torsions:
REMARK  status: ('A' for Active; 'I' for Inactive)
REMARK    1  A    between atoms: N_1  and  C_26
REMARK    2  A    between atoms: N_2  and  C_12
REMARK    3  A    between atoms: N_15  and  C_17
REMARK    4  A    between atoms: C_17  and  C_19
REMARK    5  A    between atoms: C_26  and  C_27
REMARK    6  A    between atoms: C_26  and  C_31
REMARK    7  A    between atoms: C_27  and  O_29
REMARK                            x       y       z     vdW  Elec       q    Type
REMARK                         _______ _______ _______ _____ _____    ______ ____
ROOT
ATOM      1  N   UNL     1      31.776 -24.098 -15.031  0.00  0.00    -0.258 N 
ATOM      2  N   UNL     1      36.306 -24.053 -13.697  0.00  0.00    -0.262 N 
ATOM      3  N   UNL     1      33.930 -24.163 -14.191  0.00  0.00    -0.311 NA
ATOM      4  N   UNL     1      33.444 -23.283 -16.414  0.00  0.00    -0.311 NA
ATOM      5  N   UNL     1      37.049 -23.145 -15.594  0.00  0.00    -0.240 NA
ATOM      6  C   UNL     1      35.205 -23.867 -14.484  0.00  0.00    +0.220 C 
ATOM      7  C   UNL     1      35.687 -23.304 -15.655  0.00  0.00    +0.167 C 
ATOM      8  C   UNL     1      33.119 -23.834 -15.220  0.00  0.00    +0.202 C 
ATOM      9  C   UNL     1      34.752 -23.010 -16.643  0.00  0.00    +0.215 C 
ATOM     10  C   UNL     1      37.388 -23.604 -14.407  0.00  0.00    +0.222 C 
ATOM     11  H   UNL     1      31.496 -24.501 -14.178  0.00  0.00    +0.160 HD
ATOM     12  N   UNL     1      35.152 -22.439 -17.863  0.00  0.00    -0.302 N 
ATOM     13  H   UNL     1      36.109 -22.251 -18.003  0.00  0.00    +0.150 HD
ENDROOT
BRANCH   2  14
ATOM     14  C   UNL     1      36.334 -24.613 -12.368  0.00  0.00    +0.077 C 
ATOM     15  C   UNL     1      36.626 -23.544 -11.312  0.00  0.00    +0.022 C 
ATOM     16  C   UNL     1      37.332 -25.769 -12.264  0.00  0.00    +0.022 C 
ENDBRANCH   2  14
BRANCH  12  17
ATOM     17  C   UNL     1      34.233 -22.115 -18.914  0.00  0.00    +0.117 C 
BRANCH  17  19
ATOM     18  N   UNL     1      36.726 -19.802 -20.553  0.00  0.00    -0.248 NA
ATOM     19  C   UNL     1      34.784 -21.014 -19.776  0.00  0.00    +0.013 C 
ATOM     20  C   UNL     1      33.962 -20.214 -20.562  0.00  0.00    -0.022 C 
ATOM     21  C   UNL     1      36.147 -20.770 -19.806  0.00  0.00    +0.095 C 
ATOM     22  C   UNL     1      34.520 -19.209 -21.343  0.00  0.00    +0.010 C 
ATOM     23  C   UNL     1      32.483 -20.416 -20.582  0.00  0.00    +0.031 C 
ATOM     24  C   UNL     1      35.896 -19.045 -21.303  0.00  0.00    +0.059 C 
ATOM     25  C   UNL     1      36.530 -17.976 -22.128  0.00  0.00    +0.052 C 
ENDBRANCH  17  19
ENDBRANCH  12  17
BRANCH   1  26
ATOM     26  C   UNL     1      30.758 -23.811 -16.024  0.00  0.00    +0.107 C 
BRANCH  26  27
ATOM     27  C   UNL     1      30.040 -22.494 -15.675  0.00  0.00    +0.129 C 
ATOM     28  C   UNL     1      28.602 -22.444 -16.184  0.00  0.00    +0.034 C 
BRANCH  27  29
ATOM     29  O   UNL     1      30.044 -22.295 -14.262  0.00  0.00    -0.383 OA
ATOM     30  H   UNL     1      29.320 -22.802 -13.863  0.00  0.00    +0.210 HD
ENDBRANCH  27  29
ENDBRANCH  26  27
BRANCH  26  31
ATOM     31  C   UNL     1      29.773 -24.990 -16.099  0.00  0.00    +0.023 C 
ATOM     32  C   UNL     1      29.674 -25.756 -14.786  0.00  0.00    +0.002 C 
ENDBRANCH  26  31
ENDBRANCH   1  26
TORSDOF 7
ENDMDL
MODEL 4
REMARK VINA RESULT:     -10.2      2.053      5.034
REMARK  Name = 24983461
REMARK  7 active torsions:
REMARK  status: ('A' for Active; 'I' for Inactive)
REMARK    1  A    between atoms: N_1  and  C_26
REMARK    2  A    between atoms: N_2  and  C_12
REMARK    3  A    between atoms: N_15  and  C_17
REMARK    4  A    between atoms: C_17  and  C_19
REMARK    5  A    between atoms: C_26  and  C_27
REMARK    6  A    between atoms: C_26  and  C_31
REMARK    7  A    between atoms: C_27  and  O_29
REMARK                            x       y       z     vdW  Elec       q    Type
REMARK                         _______ _______ _______ _____ _____    ______ ____
ROOT
ATOM      1  N   UNL     1      31.598 -23.941 -15.105  0.00  0.00    -0.258 N 
ATOM      2  N   UNL     1      36.120 -23.468 -13.830  0.00  0.00    -0.262 N 
ATOM      3  N   UNL     1      33.753 -23.774 -14.282  0.00  0.00    -0.311 NA
ATOM      4  N   UNL     1      33.218 -23.238 -16.603  0.00  0.00    -0.311 NA
ATOM      5  N   UNL     1      36.810 -22.795 -15.841  0.00  0.00    -0.240 NA
ATOM      6  C   UNL     1      35.010 -23.453 -14.625  0.00  0.00    +0.220 C 
ATOM      7  C   UNL     1      35.459 -23.034 -15.867  0.00  0.00    +0.167 C 
ATOM      8  C   UNL     1      32.925 -23.635 -15.340  0.00  0.00    +0.202 C 
ATOM      9  C   UNL     1      34.509 -22.930 -16.878  0.00  0.00    +0.215 C 
ATOM     10  C   UNL     1      37.176 -23.065 -14.604  0.00  0.00    +0.222 C 
ATOM     11  H   UNL     1      31.341 -24.236 -14.202  0.00  0.00    +0.160 HD
ATOM     12  N   UNL     1      34.875 -22.514 -18.169  0.00  0.00    -0.302 N 
ATOM     13  H   UNL     1      35.820 -22.296 -18.342  0.00  0.00    +0.150 HD
ENDROOT
BRANCH   2  14
ATOM     14  C   UNL     1      36.180 -23.836 -12.436  0.00  0.00    +0.077 C 
ATOM     15  C   UNL     1      37.134 -22.929 -11.655  0.00  0.00    +0.022 C 
ATOM     16  C   UNL     1      36.560 -25.308 -12.258  0.00  0.00    +0.022 C 
ENDBRANCH   2  14
BRANCH  12  17
ATOM     17  C   UNL     1      33.938 -22.389 -19.247  0.00  0.00    +0.117 C 
BRANCH  17  19
ATOM     18  N   UNL     1      33.062 -19.099 -20.878  0.00  0.00    -0.248 NA
ATOM     19  C   UNL     1      34.108 -21.067 -19.942  0.00  0.00    +0.013 C 
ATOM     20  C   UNL     1      35.361 -20.576 -20.291  0.00  0.00    -0.022 C 
ATOM     21  C   UNL     1      33.000 -20.298 -20.255  0.00  0.00    +0.095 C 
ATOM     22  C   UNL     1      35.466 -19.347 -20.933  0.00  0.00    +0.010 C 
ATOM     23  C   UNL     1      36.602 -21.347 -19.988  0.00  0.00    +0.031 C 
ATOM     24  C   UNL     1      34.296 -18.654 -21.202  0.00  0.00    +0.059 C 
ATOM     25  C   UNL     1      34.370 -17.332 -21.889  0.00  0.00    +0.052 C 
ENDBRANCH  17  19
ENDBRANCH  12  17
BRANCH   1  26
ATOM     26  C   UNL     1      30.564 -23.850 -16.119  0.00  0.00    +0.107 C 
BRANCH  26  27
ATOM     27  C   UNL     1      29.789 -22.530 -15.961  0.00  0.00    +0.129 C 
ATOM     28  C   UNL     1      28.393 -22.579 -16.575  0.00  0.00    +0.034 C 
BRANCH  27  29
ATOM     29  O   UNL     1      29.681 -22.188 -14.580  0.00  0.00    -0.383 OA
ATOM     30  H   UNL     1      30.279 -22.748 -14.062  0.00  0.00    +0.210 HD
ENDBRANCH  27  29
ENDBRANCH  26  27
BRANCH  26  31
ATOM     31  C   UNL     1      29.634 -25.070 -16.009  0.00  0.00    +0.023 C 
ATOM     32  C   UNL     1      29.532 -25.604 -14.585  0.00  0.00    +0.002 C 
ENDBRANCH  26  31
ENDBRANCH   1  26
TORSDOF 7
ENDMDL
MODEL 5
REMARK VINA RESULT:      -9.6      2.326      7.489
REMARK  Name = 24983461
REMARK  7 active torsions:
REMARK  status: ('A' for Active; 'I' for Inactive)
REMARK    1  A    between atoms: N_1  and  C_26
REMARK    2  A    between atoms: N_2  and  C_12
REMARK    3  A    between atoms: N_15  and  C_17
REMARK    4  A    between atoms: C_17  and  C_19
REMARK    5  A    between atoms: C_26  and  C_27
REMARK    6  A    between atoms: C_26  and  C_31
REMARK    7  A    between atoms: C_27  and  O_29
REMARK                            x       y       z     vdW  Elec       q    Type
REMARK                         _______ _______ _______ _____ _____    ______ ____
ROOT
ATOM      1  N   UNL     1      31.557 -23.060 -17.125  0.00  0.00    -0.258 N 
ATOM      2  N   UNL     1      34.617 -20.963 -20.047  0.00  0.00    -0.262 N 
ATOM      3  N   UNL     1      32.886 -21.985 -18.682  0.00  0.00    -0.311 NA
ATOM      4  N   UNL     1      33.828 -23.007 -16.676  0.00  0.00    -0.311 NA
ATOM      5  N   UNL     1      36.409 -21.430 -18.805  0.00  0.00    -0.240 NA
ATOM      6  C   UNL     1      34.155 -21.650 -18.961  0.00  0.00    +0.220 C 
ATOM      7  C   UNL     1      35.281 -21.929 -18.204  0.00  0.00    +0.167 C 
ATOM      8  C   UNL     1      32.822 -22.664 -17.516  0.00  0.00    +0.202 C 
ATOM      9  C   UNL     1      35.085 -22.636 -17.020  0.00  0.00    +0.215 C 
ATOM     10  C   UNL     1      35.975 -20.856 -19.909  0.00  0.00    +0.222 C 
ATOM     11  H   UNL     1      30.796 -22.829 -17.705  0.00  0.00    +0.160 HD
ATOM     12  N   UNL     1      36.171 -22.961 -16.189  0.00  0.00    -0.302 N 
ATOM     13  H   UNL     1      37.073 -22.679 -16.464  0.00  0.00    +0.150 HD
ENDROOT
BRANCH   2  14
ATOM     14  C   UNL     1      33.830 -20.445 -21.140  0.00  0.00    +0.077 C 
ATOM     15  C   UNL     1      34.674 -19.583 -22.083  0.00  0.00    +0.022 C 
ATOM     16  C   UNL     1      32.610 -19.669 -20.639  0.00  0.00    +0.022 C 
ENDBRANCH   2  14
BRANCH  12  17
ATOM     17  C   UNL     1      36.026 -23.686 -14.962  0.00  0.00    +0.117 C 
BRANCH  17  19
ATOM     18  N   UNL     1      39.598 -24.885 -15.205  0.00  0.00    -0.248 NA
ATOM     19  C   UNL     1      37.310 -24.384 -14.607  0.00  0.00    +0.013 C 
ATOM     20  C   UNL     1      37.441 -25.134 -13.444  0.00  0.00    -0.022 C 
ATOM     21  C   UNL     1      38.407 -24.291 -15.447  0.00  0.00    +0.095 C 
ATOM     22  C   UNL     1      38.650 -25.759 -13.160  0.00  0.00    +0.010 C 
ATOM     23  C   UNL     1      36.303 -25.281 -12.490  0.00  0.00    +0.031 C 
ATOM     24  C   UNL     1      39.688 -25.605 -14.065  0.00  0.00    +0.059 C 
ATOM     25  C   UNL     1      41.000 -26.262 -13.793  0.00  0.00    +0.052 C 
ENDBRANCH  17  19
ENDBRANCH  12  17
BRANCH   1  26
ATOM     26  C   UNL     1      31.293 -23.799 -15.905  0.00  0.00    +0.107 C 
BRANCH  26  27
ATOM     27  C   UNL     1      30.053 -24.693 -16.091  0.00  0.00    +0.129 C 
ATOM     28  C   UNL     1      29.668 -25.452 -14.824  0.00  0.00    +0.034 C 
BRANCH  27  29
ATOM     29  O   UNL     1      28.943 -23.907 -16.521  0.00  0.00    -0.383 OA
ATOM     30  H   UNL     1      28.141 -24.206 -16.066  0.00  0.00    +0.210 HD
ENDBRANCH  27  29
ENDBRANCH  26  27
BRANCH  26  31
ATOM     31  C   UNL     1      31.109 -22.811 -14.740  0.00  0.00    +0.023 C 
ATOM     32  C   UNL     1      32.044 -23.101 -13.573  0.00  0.00    +0.002 C 
ENDBRANCH  26  31
ENDBRANCH   1  26
TORSDOF 7
ENDMDL
MODEL 6
REMARK VINA RESULT:      -8.6      2.437      7.568
REMARK  Name = 24983461
REMARK  7 active torsions:
REMARK  status: ('A' for Active; 'I' for Inactive)
REMARK    1  A    between atoms: N_1  and  C_26
REMARK    2  A    between atoms: N_2  and  C_12
REMARK    3  A    between atoms: N_15  and  C_17
REMARK    4  A    between atoms: C_17  and  C_19
REMARK    5  A    between atoms: C_26  and  C_27
REMARK    6  A    between atoms: C_26  and  C_31
REMARK    7  A    between atoms: C_27  and  O_29
REMARK                            x       y       z     vdW  Elec       q    Type
REMARK                         _______ _______ _______ _____ _____    ______ ____
ROOT
ATOM      1  N   UNL     1      30.650 -22.582 -17.227  0.00  0.00    -0.258 N 
ATOM      2  N   UNL     1      34.379 -21.146 -19.743  0.00  0.00    -0.262 N 
ATOM      3  N   UNL     1      32.338 -21.758 -18.575  0.00  0.00    -0.311 NA
ATOM      4  N   UNL     1      32.788 -23.347 -16.778  0.00  0.00    -0.311 NA
ATOM      5  N   UNL     1      35.854 -22.369 -18.603  0.00  0.00    -0.240 NA
ATOM      6  C   UNL     1      33.661 -21.814 -18.792  0.00  0.00    +0.220 C 
ATOM      7  C   UNL     1      34.594 -22.566 -18.096  0.00  0.00    +0.167 C 
ATOM      8  C   UNL     1      31.994 -22.561 -17.545  0.00  0.00    +0.202 C 
ATOM      9  C   UNL     1      34.116 -23.354 -17.054  0.00  0.00    +0.215 C 
ATOM     10  C   UNL     1      35.690 -21.513 -19.590  0.00  0.00    +0.222 C 
ATOM     11  H   UNL     1      30.037 -22.023 -17.757  0.00  0.00    +0.160 HD
ATOM     12  N   UNL     1      34.991 -24.148 -16.293  0.00  0.00    -0.302 N 
ATOM     13  H   UNL     1      35.950 -24.135 -16.515  0.00  0.00    +0.150 HD
ENDROOT
BRANCH   2  14
ATOM     14  C   UNL     1      33.863 -20.227 -20.729  0.00  0.00    +0.077 C 
ATOM     15  C   UNL     1      34.856 -19.099 -21.021  0.00  0.00    +0.022 C 
ATOM     16  C   UNL     1      32.502 -19.661 -20.314  0.00  0.00    +0.022 C 
ENDBRANCH   2  14
BRANCH  12  17
ATOM     17  C   UNL     1      34.552 -24.978 -15.210  0.00  0.00    +0.117 C 
BRANCH  17  19
ATOM     18  N   UNL     1      34.934 -23.654 -11.696  0.00  0.00    -0.248 NA
ATOM     19  C   UNL     1      35.203 -24.553 -13.923  0.00  0.00    +0.013 C 
ATOM     20  C   UNL     1      36.577 -24.639 -13.731  0.00  0.00    -0.022 C 
ATOM     21  C   UNL     1      34.432 -24.058 -12.885  0.00  0.00    +0.095 C 
ATOM     22  C   UNL     1      37.130 -24.233 -12.521  0.00  0.00    +0.010 C 
ATOM     23  C   UNL     1      37.473 -25.161 -14.804  0.00  0.00    +0.031 C 
ATOM     24  C   UNL     1      36.273 -23.752 -11.545  0.00  0.00    +0.059 C 
ATOM     25  C   UNL     1      36.832 -23.308 -10.235  0.00  0.00    +0.052 C 
ENDBRANCH  17  19
ENDBRANCH  12  17
BRANCH   1  26
ATOM     26  C   UNL     1      30.094 -23.384 -16.154  0.00  0.00    +0.107 C 
BRANCH  26  27
ATOM     27  C   UNL     1      28.582 -23.573 -16.368  0.00  0.00    +0.129 C 
ATOM     28  C   UNL     1      27.740 -22.514 -15.661  0.00  0.00    +0.034 C 
BRANCH  27  29
ATOM     29  O   UNL     1      28.280 -23.558 -17.762  0.00  0.00    -0.383 OA
ATOM     30  H   UNL     1      27.447 -24.032 -17.917  0.00  0.00    +0.210 HD
ENDBRANCH  27  29
ENDBRANCH  26  27
BRANCH  26  31
ATOM     31  C   UNL     1      30.396 -22.710 -14.805  0.00  0.00    +0.023 C 
ATOM     32  C   UNL     1      30.807 -23.707 -13.729  0.00  0.00    +0.002 C 
ENDBRANCH  26  31
ENDBRANCH   1  26
TORSDOF 7
ENDMDL
MODEL 7
REMARK VINA RESULT:      -8.4      1.895      6.576
REMARK  Name = 24983461
REMARK  7 active torsions:
REMARK  status: ('A' for Active; 'I' for Inactive)
REMARK    1  A    between atoms: N_1  and  C_26
REMARK    2  A    between atoms: N_2  and  C_12
REMARK    3  A    between atoms: N_15  and  C_17
REMARK    4  A    between atoms: C_17  and  C_19
REMARK    5  A    between atoms: C_26  and  C_27
REMARK    6  A    between atoms: C_26  and  C_31
REMARK    7  A    between atoms: C_27  and  O_29
REMARK                            x       y       z     vdW  Elec       q    Type
REMARK                         _______ _______ _______ _____ _____    ______ ____
ROOT
ATOM      1  N   UNL     1      35.904 -23.681 -15.726  0.00  0.00    -0.258 N 
ATOM      2  N   UNL     1      35.290 -21.013 -19.574  0.00  0.00    -0.262 N 
ATOM      3  N   UNL     1      35.817 -22.339 -17.607  0.00  0.00    -0.311 NA
ATOM      4  N   UNL     1      33.813 -23.366 -16.668  0.00  0.00    -0.311 NA
ATOM      5  N   UNL     1      33.085 -21.330 -19.669  0.00  0.00    -0.240 NA
ATOM      6  C   UNL     1      34.979 -21.826 -18.521  0.00  0.00    +0.220 C 
ATOM      7  C   UNL     1      33.608 -22.011 -18.599  0.00  0.00    +0.167 C 
ATOM      8  C   UNL     1      35.140 -23.097 -16.718  0.00  0.00    +0.202 C 
ATOM      9  C   UNL     1      33.025 -22.816 -17.624  0.00  0.00    +0.215 C 
ATOM     10  C   UNL     1      34.120 -20.742 -20.232  0.00  0.00    +0.222 C 
ATOM     11  H   UNL     1      36.875 -23.514 -15.727  0.00  0.00    +0.160 HD
ATOM     12  N   UNL     1      31.641 -23.059 -17.626  0.00  0.00    -0.302 N 
ATOM     13  H   UNL     1      31.093 -22.646 -18.332  0.00  0.00    +0.150 HD
ENDROOT
BRANCH   2  14
ATOM     14  C   UNL     1      36.600 -20.525 -19.931  0.00  0.00    +0.077 C 
ATOM     15  C   UNL     1      36.514 -19.291 -20.833  0.00  0.00    +0.022 C 
ATOM     16  C   UNL     1      37.450 -21.618 -20.584  0.00  0.00    +0.022 C 
ENDBRANCH   2  14
BRANCH  12  17
ATOM     17  C   UNL     1      30.990 -23.878 -16.647  0.00  0.00    +0.117 C 
BRANCH  17  19
ATOM     18  N   UNL     1      27.332 -23.002 -16.976  0.00  0.00    -0.248 NA
ATOM     19  C   UNL     1      29.634 -23.320 -16.311  0.00  0.00    +0.013 C 
ATOM     20  C   UNL     1      29.391 -22.646 -15.119  0.00  0.00    -0.022 C 
ATOM     21  C   UNL     1      28.581 -23.470 -17.198  0.00  0.00    +0.095 C 
ATOM     22  C   UNL     1      28.120 -22.150 -14.855  0.00  0.00    +0.010 C 
ATOM     23  C   UNL     1      30.476 -22.444 -14.114  0.00  0.00    +0.031 C 
ATOM     24  C   UNL     1      27.134 -22.352 -15.808  0.00  0.00    +0.059 C 
ATOM     25  C   UNL     1      25.757 -21.833 -15.557  0.00  0.00    +0.052 C 
ENDBRANCH  17  19
ENDBRANCH  12  17
BRANCH   1  26
ATOM     26  C   UNL     1      35.352 -24.527 -14.685  0.00  0.00    +0.107 C 
BRANCH  26  27
ATOM     27  C   UNL     1      35.847 -24.053 -13.306  0.00  0.00    +0.129 C 
ATOM     28  C   UNL     1      36.986 -23.041 -13.395  0.00  0.00    +0.034 C 
BRANCH  27  29
ATOM     29  O   UNL     1      34.768 -23.480 -12.569  0.00  0.00    -0.383 OA
ATOM     30  H   UNL     1      34.597 -24.017 -11.780  0.00  0.00    +0.210 HD
ENDBRANCH  27  29
ENDBRANCH  26  27
BRANCH  26  31
ATOM     31  C   UNL     1      35.743 -25.990 -14.955  0.00  0.00    +0.023 C 
ATOM     32  C   UNL     1      37.252 -26.206 -14.942  0.00  0.00    +0.002 C 
ENDBRANCH  26  31
ENDBRANCH   1  26
TORSDOF 7
ENDMDL
MODEL 8
REMARK VINA RESULT:      -8.1      7.316     12.752
REMARK  Name = 24983461
REMARK  7 active torsions:
REMARK  status: ('A' for Active; 'I' for Inactive)
REMARK    1  A    between atoms: N_1  and  C_26
REMARK    2  A    between atoms: N_2  and  C_12
REMARK    3  A    between atoms: N_15  and  C_17
REMARK    4  A    between atoms: C_17  and  C_19
REMARK    5  A    between atoms: C_26  and  C_27
REMARK    6  A    between atoms: C_26  and  C_31
REMARK    7  A    between atoms: C_27  and  O_29
REMARK                            x       y       z     vdW  Elec       q    Type
REMARK                         _______ _______ _______ _____ _____    ______ ____
ROOT
ATOM      1  N   UNL     1      33.586 -11.472 -25.308  0.00  0.00    -0.258 N 
ATOM      2  N   UNL     1      31.845 -11.057 -20.938  0.00  0.00    -0.262 N 
ATOM      3  N   UNL     1      32.694 -11.061 -23.214  0.00  0.00    -0.311 NA
ATOM      4  N   UNL     1      33.533 -13.265 -23.843  0.00  0.00    -0.311 NA
ATOM      5  N   UNL     1      32.222 -13.184 -20.385  0.00  0.00    -0.240 NA
ATOM      6  C   UNL     1      32.413 -11.638 -22.036  0.00  0.00    +0.220 C 
ATOM      7  C   UNL     1      32.638 -12.956 -21.673  0.00  0.00    +0.167 C 
ATOM      8  C   UNL     1      33.254 -11.956 -24.056  0.00  0.00    +0.202 C 
ATOM      9  C   UNL     1      33.221 -13.782 -22.629  0.00  0.00    +0.215 C 
ATOM     10  C   UNL     1      31.751 -12.024 -19.973  0.00  0.00    +0.222 C 
ATOM     11  H   UNL     1      33.398 -10.527 -25.507  0.00  0.00    +0.160 HD
ATOM     12  N   UNL     1      33.485 -15.133 -22.348  0.00  0.00    -0.302 N 
ATOM     13  H   UNL     1      33.248 -15.482 -21.458  0.00  0.00    +0.150 HD
ENDROOT
BRANCH   2  14
ATOM     14  C   UNL     1      31.421  -9.684 -20.808  0.00  0.00    +0.077 C 
ATOM     15  C   UNL     1      32.253  -8.752 -21.693  0.00  0.00    +0.022 C 
ATOM     16  C   UNL     1      31.450  -9.220 -19.349  0.00  0.00    +0.022 C 
ENDBRANCH   2  14
BRANCH  12  17
ATOM     17  C   UNL     1      34.083 -16.026 -23.295  0.00  0.00    +0.117 C 
BRANCH  17  19
ATOM     18  N   UNL     1      35.558 -18.184 -20.570  0.00  0.00    -0.248 NA
ATOM     19  C   UNL     1      34.647 -17.234 -22.597  0.00  0.00    +0.013 C 
ATOM     20  C   UNL     1      34.788 -18.457 -23.243  0.00  0.00    -0.022 C 
ATOM     21  C   UNL     1      35.043 -17.150 -21.273  0.00  0.00    +0.095 C 
ATOM     22  C   UNL     1      35.314 -19.544 -22.554  0.00  0.00    +0.010 C 
ATOM     23  C   UNL     1      34.383 -18.625 -24.670  0.00  0.00    +0.031 C 
ATOM     24  C   UNL     1      35.681 -19.356 -21.231  0.00  0.00    +0.059 C 
ATOM     25  C   UNL     1      36.249 -20.501 -20.460  0.00  0.00    +0.052 C 
ENDBRANCH  17  19
ENDBRANCH  12  17
BRANCH   1  26
ATOM     26  C   UNL     1      34.197 -12.285 -26.343  0.00  0.00    +0.107 C 
BRANCH  26  27
ATOM     27  C   UNL     1      35.045 -11.399 -27.274  0.00  0.00    +0.129 C 
ATOM     28  C   UNL     1      35.894 -10.380 -26.520  0.00  0.00    +0.034 C 
BRANCH  27  29
ATOM     29  O   UNL     1      35.895 -12.212 -28.081  0.00  0.00    -0.383 OA
ATOM     30  H   UNL     1      36.488 -12.724 -27.510  0.00  0.00    +0.210 HD
ENDBRANCH  27  29
ENDBRANCH  26  27
BRANCH  26  31
ATOM     31  C   UNL     1      33.098 -13.033 -27.117  0.00  0.00    +0.023 C 
ATOM     32  C   UNL     1      33.071 -14.524 -26.804  0.00  0.00    +0.002 C 
ENDBRANCH  26  31
ENDBRANCH   1  26
TORSDOF 7
ENDMDL
MODEL 9
REMARK VINA RESULT:      -8.0      8.222     12.997
REMARK  Name = 24983461
REMARK  7 active torsions:
REMARK  status: ('A' for Active; 'I' for Inactive)
REMARK    1  A    between atoms: N_1  and  C_26
REMARK    2  A    between atoms: N_2  and  C_12
REMARK    3  A    between atoms: N_15  and  C_17
REMARK    4  A    between atoms: C_17  and  C_19
REMARK    5  A    between atoms: C_26  and  C_27
REMARK    6  A    between atoms: C_26  and  C_31
REMARK    7  A    between atoms: C_27  and  O_29
REMARK                            x       y       z     vdW  Elec       q    Type
REMARK                         _______ _______ _______ _____ _____    ______ ____
ROOT
ATOM      1  N   UNL     1      34.118 -13.575 -25.221  0.00  0.00    -0.258 N 
ATOM      2  N   UNL     1      34.194 -16.120 -21.243  0.00  0.00    -0.262 N 
ATOM      3  N   UNL     1      34.299 -14.951 -23.371  0.00  0.00    -0.311 NA
ATOM      4  N   UNL     1      32.826 -13.005 -23.387  0.00  0.00    -0.311 NA
ATOM      5  N   UNL     1      32.717 -14.835 -20.174  0.00  0.00    -0.240 NA
ATOM      6  C   UNL     1      33.850 -15.129 -22.119  0.00  0.00    +0.220 C 
ATOM      7  C   UNL     1      32.935 -14.344 -21.437  0.00  0.00    +0.167 C 
ATOM      8  C   UNL     1      33.728 -13.860 -23.927  0.00  0.00    +0.202 C 
ATOM      9  C   UNL     1      32.417 -13.245 -22.117  0.00  0.00    +0.215 C 
ATOM     10  C   UNL     1      33.488 -15.901 -20.091  0.00  0.00    +0.222 C 
ATOM     11  H   UNL     1      34.774 -14.170 -25.651  0.00  0.00    +0.160 HD
ATOM     12  N   UNL     1      31.484 -12.393 -21.502  0.00  0.00    -0.302 N 
ATOM     13  H   UNL     1      31.204 -12.592 -20.578  0.00  0.00    +0.150 HD
ENDROOT
BRANCH   2  14
ATOM     14  C   UNL     1      35.123 -17.198 -21.480  0.00  0.00    +0.077 C 
ATOM     15  C   UNL     1      35.496 -17.305 -22.960  0.00  0.00    +0.022 C 
ATOM     16  C   UNL     1      34.584 -18.532 -20.956  0.00  0.00    +0.022 C 
ENDBRANCH   2  14
BRANCH  12  17
ATOM     17  C   UNL     1      30.919 -11.250 -22.155  0.00  0.00    +0.117 C 
BRANCH  17  19
ATOM     18  N   UNL     1      32.054  -8.802 -19.515  0.00  0.00    -0.248 NA
ATOM     19  C   UNL     1      31.428  -9.981 -21.530  0.00  0.00    +0.013 C 
ATOM     20  C   UNL     1      31.738  -8.859 -22.291  0.00  0.00    -0.022 C 
ATOM     21  C   UNL     1      31.602  -9.902 -20.158  0.00  0.00    +0.095 C 
ATOM     22  C   UNL     1      32.206  -7.709 -21.666  0.00  0.00    +0.010 C 
ATOM     23  C   UNL     1      31.576  -8.867 -23.775  0.00  0.00    +0.031 C 
ATOM     24  C   UNL     1      32.344  -7.732 -20.287  0.00  0.00    +0.059 C 
ATOM     25  C   UNL     1      32.844  -6.515 -19.581  0.00  0.00    +0.052 C 
ENDBRANCH  17  19
ENDBRANCH  12  17
BRANCH   1  26
ATOM     26  C   UNL     1      33.612 -12.447 -25.979  0.00  0.00    +0.107 C 
BRANCH  26  27
ATOM     27  C   UNL     1      33.146 -12.915 -27.370  0.00  0.00    +0.129 C 
ATOM     28  C   UNL     1      32.794 -14.399 -27.415  0.00  0.00    +0.034 C 
BRANCH  27  29
ATOM     29  O   UNL     1      32.015 -12.152 -27.789  0.00  0.00    -0.383 OA
ATOM     30  H   UNL     1      31.890 -12.261 -28.745  0.00  0.00    +0.210 HD
ENDBRANCH  27  29
ENDBRANCH  26  27
BRANCH  26  31
ATOM     31  C   UNL     1      34.705 -11.369 -26.080  0.00  0.00    +0.023 C 
ATOM     32  C   UNL     1      34.717 -10.432 -24.879  0.00  0.00    +0.002 C 
ENDBRANCH  26  31
ENDBRANCH   1  26
TORSDOF 7
ENDMDL
