MODEL 1
REMARK VINA RESULT:     -11.4      0.000      0.000
REMARK  Name = 5472495
REMARK  6 active torsions:
REMARK  status: ('A' for Active; 'I' for Inactive)
REMARK    1  A    between atoms: C_2  and  C_23
REMARK    2  A    between atoms: C_3  and  C_7
REMARK    3  A    between atoms: C_7  and  C_13
REMARK    4  A    between atoms: C_16  and  S_19
REMARK    5  A    between atoms: C_23  and  C_25
REMARK    6  A    between atoms: C_25  and  O_26
REMARK                            x       y       z     vdW  Elec       q    Type
REMARK                         _______ _______ _______ _____ _____    ______ ____
ROOT
ATOM      1  F   UNL     1      31.546 -12.432 -20.887  0.00  0.00    -0.204 F 
ATOM      2  C   UNL     1      33.452 -15.375 -24.383  0.00  0.00    -0.030 C 
ATOM      3  C   UNL     1      34.682 -16.553 -22.844  0.00  0.00    -0.036 C 
ATOM      4  C   UNL     1      34.327 -16.397 -24.254  0.00  0.00    +0.037 C 
ATOM      5  C   UNL     1      33.203 -14.823 -23.039  0.00  0.00    -0.005 C 
ATOM      6  C   UNL     1      33.952 -15.535 -22.087  0.00  0.00    -0.008 C 
ATOM      7  C   UNL     1      32.386 -13.772 -22.648  0.00  0.00    +0.029 C 
ATOM      8  C   UNL     1      33.900 -15.217 -20.740  0.00  0.00    +0.002 C 
ATOM      9  C   UNL     1      34.889 -17.271 -25.323  0.00  0.00    +0.009 C 
ATOM     10  C   UNL     1      32.328 -13.443 -21.291  0.00  0.00    +0.140 C 
ATOM     11  C   UNL     1      33.078 -14.159 -20.345  0.00  0.00    +0.030 C 
ENDROOT
BRANCH   3  12
ATOM     12  C   UNL     1      35.521 -17.451 -22.314  0.00  0.00    +0.049 C 
BRANCH  12  13
ATOM     13  C   UNL     1      35.129 -18.637 -21.534  0.00  0.00    -0.018 C 
ATOM     14  C   UNL     1      36.111 -19.418 -20.946  0.00  0.00    -0.003 C 
ATOM     15  C   UNL     1      33.785 -18.951 -21.402  0.00  0.00    -0.003 C 
ATOM     16  C   UNL     1      34.392 -20.869 -20.064  0.00  0.00    +0.106 C 
ATOM     17  C   UNL     1      35.740 -20.541 -20.205  0.00  0.00    +0.018 C 
ATOM     18  C   UNL     1      33.414 -20.073 -20.662  0.00  0.00    +0.018 C 
BRANCH  16  19
ATOM     19  S   UNL     1      33.929 -22.274 -19.138  0.00  0.00    +0.010 S 
ATOM     20  O   UNL     1      32.586 -22.048 -18.620  0.00  0.00    -0.169 OA
ATOM     21  O   UNL     1      34.209 -23.470 -19.920  0.00  0.00    -0.169 OA
ATOM     22  C   UNL     1      35.051 -22.284 -17.758  0.00  0.00    +0.182 C 
ENDBRANCH  16  19
ENDBRANCH  12  13
ENDBRANCH   3  12
BRANCH   2  23
ATOM     23  C   UNL     1      32.795 -14.819 -25.594  0.00  0.00    +0.132 C 
BRANCH  23  25
ATOM     24  O   UNL     1      33.849 -12.618 -25.457  0.00  0.00    -0.250 OA
ATOM     25  C   UNL     1      33.548 -13.613 -26.100  0.00  0.00    +0.318 C 
BRANCH  25  26
ATOM     26  O   UNL     1      33.857 -13.781 -27.413  0.00  0.00    -0.480 OA
ATOM     27  H   UNL     1      34.340 -13.119 -27.868  0.00  0.00    +0.295 HD
ENDBRANCH  25  26
ENDBRANCH  23  25
ENDBRANCH   2  23
TORSDOF 6
ENDMDL
MODEL 2
REMARK VINA RESULT:     -10.9      5.049     10.450
REMARK  Name = 5472495
REMARK  6 active torsions:
REMARK  status: ('A' for Active; 'I' for Inactive)
REMARK    1  A    between atoms: C_2  and  C_23
REMARK    2  A    between atoms: C_3  and  C_7
REMARK    3  A    between atoms: C_7  and  C_13
REMARK    4  A    between atoms: C_16  and  S_19
REMARK    5  A    between atoms: C_23  and  C_25
REMARK    6  A    between atoms: C_25  and  O_26
REMARK                            x       y       z     vdW  Elec       q    Type
REMARK                         _______ _______ _______ _____ _____    ______ ____
ROOT
ATOM      1  F   UNL     1      37.305 -23.194 -12.870  0.00  0.00    -0.204 F 
ATOM      2  C   UNL     1      32.799 -23.141 -14.921  0.00  0.00    -0.030 C 
ATOM      3  C   UNL     1      33.670 -23.134 -17.045  0.00  0.00    -0.036 C 
ATOM      4  C   UNL     1      32.457 -23.130 -16.228  0.00  0.00    +0.037 C 
ATOM      5  C   UNL     1      34.271 -23.155 -14.841  0.00  0.00    -0.005 C 
ATOM      6  C   UNL     1      34.818 -23.150 -16.135  0.00  0.00    -0.008 C 
ATOM      7  C   UNL     1      35.099 -23.170 -13.728  0.00  0.00    +0.029 C 
ATOM      8  C   UNL     1      36.187 -23.161 -16.343  0.00  0.00    +0.002 C 
ATOM      9  C   UNL     1      31.091 -23.113 -16.826  0.00  0.00    +0.009 C 
ATOM     10  C   UNL     1      36.483 -23.179 -13.928  0.00  0.00    +0.140 C 
ATOM     11  C   UNL     1      37.022 -23.175 -15.224  0.00  0.00    +0.030 C 
ENDROOT
BRANCH   3  12
ATOM     12  C   UNL     1      33.750 -23.125 -18.381  0.00  0.00    +0.049 C 
BRANCH  12  13
ATOM     13  C   UNL     1      34.153 -21.978 -19.211  0.00  0.00    -0.018 C 
ATOM     14  C   UNL     1      33.180 -21.132 -19.720  0.00  0.00    -0.003 C 
ATOM     15  C   UNL     1      35.498 -21.763 -19.467  0.00  0.00    -0.003 C 
ATOM     16  C   UNL     1      34.912 -19.815 -20.770  0.00  0.00    +0.106 C 
ATOM     17  C   UNL     1      33.563 -20.043 -20.505  0.00  0.00    +0.018 C 
ATOM     18  C   UNL     1      35.880 -20.675 -20.251  0.00  0.00    +0.018 C 
BRANCH  16  19
ATOM     19  S   UNL     1      35.390 -18.453 -21.752  0.00  0.00    +0.010 S 
ATOM     20  O   UNL     1      34.689 -17.276 -21.257  0.00  0.00    -0.169 OA
ATOM     21  O   UNL     1      36.842 -18.436 -21.864  0.00  0.00    -0.169 OA
ATOM     22  C   UNL     1      34.751 -18.829 -23.369  0.00  0.00    +0.182 C 
ENDBRANCH  16  19
ENDBRANCH  12  13
ENDBRANCH   3  12
BRANCH   2  23
ATOM     23  C   UNL     1      31.947 -23.141 -13.705  0.00  0.00    +0.132 C 
BRANCH  23  25
ATOM     24  O   UNL     1      30.083 -24.721 -13.764  0.00  0.00    -0.250 OA
ATOM     25  C   UNL     1      31.259 -24.474 -13.540  0.00  0.00    +0.318 C 
BRANCH  25  26
ATOM     26  O   UNL     1      32.148 -25.399 -13.089  0.00  0.00    -0.480 OA
ATOM     27  H   UNL     1      31.864 -26.274 -12.915  0.00  0.00    +0.295 HD
ENDBRANCH  25  26
ENDBRANCH  23  25
ENDBRANCH   2  23
TORSDOF 6
ENDMDL
MODEL 3
REMARK VINA RESULT:     -10.6      5.005     10.505
REMARK  Name = 5472495
REMARK  6 active torsions:
REMARK  status: ('A' for Active; 'I' for Inactive)
REMARK    1  A    between atoms: C_2  and  C_23
REMARK    2  A    between atoms: C_3  and  C_7
REMARK    3  A    between atoms: C_7  and  C_13
REMARK    4  A    between atoms: C_16  and  S_19
REMARK    5  A    between atoms: C_23  and  C_25
REMARK    6  A    between atoms: C_25  and  O_26
REMARK                            x       y       z     vdW  Elec       q    Type
REMARK                         _______ _______ _______ _____ _____    ______ ____
ROOT
ATOM      1  F   UNL     1      29.984 -23.653 -12.942  0.00  0.00    -0.204 F 
ATOM      2  C   UNL     1      34.584 -23.257 -14.730  0.00  0.00    -0.030 C 
ATOM      3  C   UNL     1      33.836 -23.278 -16.900  0.00  0.00    -0.036 C 
ATOM      4  C   UNL     1      34.998 -23.200 -16.014  0.00  0.00    +0.037 C 
ATOM      5  C   UNL     1      33.114 -23.373 -14.734  0.00  0.00    -0.005 C 
ATOM      6  C   UNL     1      32.643 -23.388 -16.058  0.00  0.00    -0.008 C 
ATOM      7  C   UNL     1      32.227 -23.462 -13.671  0.00  0.00    +0.029 C 
ATOM      8  C   UNL     1      31.292 -23.490 -16.344  0.00  0.00    +0.002 C 
ATOM      9  C   UNL     1      36.391 -23.081 -16.532  0.00  0.00    +0.009 C 
ATOM     10  C   UNL     1      30.862 -23.566 -13.950  0.00  0.00    +0.140 C 
ATOM     11  C   UNL     1      30.398 -23.581 -15.275  0.00  0.00    +0.030 C 
ENDROOT
BRANCH   3  12
ATOM     12  C   UNL     1      33.833 -23.256 -18.238  0.00  0.00    +0.049 C 
BRANCH  12  13
ATOM     13  C   UNL     1      34.130 -22.086 -19.080  0.00  0.00    -0.018 C 
ATOM     14  C   UNL     1      35.444 -21.811 -19.423  0.00  0.00    -0.003 C 
ATOM     15  C   UNL     1      33.090 -21.279 -19.516  0.00  0.00    -0.003 C 
ATOM     16  C   UNL     1      34.689 -19.883 -20.668  0.00  0.00    +0.106 C 
ATOM     17  C   UNL     1      35.726 -20.703 -20.222  0.00  0.00    +0.018 C 
ATOM     18  C   UNL     1      33.371 -20.172 -20.315  0.00  0.00    +0.018 C 
BRANCH  16  19
ATOM     19  S   UNL     1      35.043 -18.497 -21.668  0.00  0.00    +0.010 S 
ATOM     20  O   UNL     1      34.132 -17.426 -21.288  0.00  0.00    -0.169 OA
ATOM     21  O   UNL     1      36.480 -18.260 -21.658  0.00  0.00    -0.169 OA
ATOM     22  C   UNL     1      34.616 -19.018 -23.314  0.00  0.00    +0.182 C 
ENDBRANCH  16  19
ENDBRANCH  12  13
ENDBRANCH   3  12
BRANCH   2  23
ATOM     23  C   UNL     1      35.364 -23.217 -13.466  0.00  0.00    +0.132 C 
BRANCH  23  25
ATOM     24  O   UNL     1      36.536 -25.361 -13.465  0.00  0.00    -0.250 OA
ATOM     25  C   UNL     1      35.688 -24.615 -12.999  0.00  0.00    +0.318 C 
BRANCH  25  26
ATOM     26  O   UNL     1      34.883 -24.951 -11.957  0.00  0.00    -0.480 OA
ATOM     27  H   UNL     1      34.142 -25.506 -12.098  0.00  0.00    +0.295 HD
ENDBRANCH  25  26
ENDBRANCH  23  25
ENDBRANCH   2  23
TORSDOF 6
ENDMDL
MODEL 4
REMARK VINA RESULT:      -9.9      2.334      3.640
REMARK  Name = 5472495
REMARK  6 active torsions:
REMARK  status: ('A' for Active; 'I' for Inactive)
REMARK    1  A    between atoms: C_2  and  C_23
REMARK    2  A    between atoms: C_3  and  C_7
REMARK    3  A    between atoms: C_7  and  C_13
REMARK    4  A    between atoms: C_16  and  S_19
REMARK    5  A    between atoms: C_23  and  C_25
REMARK    6  A    between atoms: C_25  and  O_26
REMARK                            x       y       z     vdW  Elec       q    Type
REMARK                         _______ _______ _______ _____ _____    ______ ____
ROOT
ATOM      1  F   UNL     1      32.449 -14.133 -26.788  0.00  0.00    -0.204 F 
ATOM      2  C   UNL     1      33.970 -14.770 -22.120  0.00  0.00    -0.030 C 
ATOM      3  C   UNL     1      34.862 -16.830 -22.600  0.00  0.00    -0.036 C 
ATOM      4  C   UNL     1      34.628 -15.815 -21.573  0.00  0.00    +0.037 C 
ATOM      5  C   UNL     1      33.751 -15.072 -23.546  0.00  0.00    -0.005 C 
ATOM      6  C   UNL     1      34.292 -16.332 -23.853  0.00  0.00    -0.008 C 
ATOM      7  C   UNL     1      33.125 -14.318 -24.528  0.00  0.00    +0.029 C 
ATOM      8  C   UNL     1      34.221 -16.859 -25.132  0.00  0.00    +0.002 C 
ATOM      9  C   UNL     1      35.078 -15.987 -20.162  0.00  0.00    +0.009 C 
ATOM     10  C   UNL     1      33.048 -14.841 -25.822  0.00  0.00    +0.140 C 
ATOM     11  C   UNL     1      33.591 -16.100 -26.121  0.00  0.00    +0.030 C 
ENDROOT
BRANCH   3  12
ATOM     12  C   UNL     1      35.480 -18.008 -22.451  0.00  0.00    +0.049 C 
BRANCH  12  13
ATOM     13  C   UNL     1      35.044 -19.102 -21.569  0.00  0.00    -0.018 C 
ATOM     14  C   UNL     1      33.691 -19.359 -21.422  0.00  0.00    -0.003 C 
ATOM     15  C   UNL     1      35.996 -19.858 -20.900  0.00  0.00    -0.003 C 
ATOM     16  C   UNL     1      34.223 -21.165 -19.909  0.00  0.00    +0.106 C 
ATOM     17  C   UNL     1      33.277 -20.398 -20.587  0.00  0.00    +0.018 C 
ATOM     18  C   UNL     1      35.583 -20.896 -20.066  0.00  0.00    +0.018 C 
BRANCH  16  19
ATOM     19  S   UNL     1      33.705 -22.465 -18.864  0.00  0.00    +0.010 S 
ATOM     20  O   UNL     1      32.384 -22.127 -18.351  0.00  0.00    -0.169 OA
ATOM     21  O   UNL     1      33.911 -23.734 -19.549  0.00  0.00    -0.169 OA
ATOM     22  C   UNL     1      34.848 -22.420 -17.503  0.00  0.00    +0.182 C 
ENDBRANCH  16  19
ENDBRANCH  12  13
ENDBRANCH   3  12
BRANCH   2  23
ATOM     23  C   UNL     1      33.502 -13.501 -21.507  0.00  0.00    +0.132 C 
BRANCH  23  25
ATOM     24  O   UNL     1      32.009 -14.861 -20.132  0.00  0.00    -0.250 OA
ATOM     25  C   UNL     1      32.400 -13.768 -20.512  0.00  0.00    +0.318 C 
BRANCH  25  26
ATOM     26  O   UNL     1      31.874 -12.591 -20.079  0.00  0.00    -0.480 OA
ATOM     27  H   UNL     1      31.049 -12.296 -20.411  0.00  0.00    +0.295 HD
ENDBRANCH  25  26
ENDBRANCH  23  25
ENDBRANCH   2  23
TORSDOF 6
ENDMDL
MODEL 5
REMARK VINA RESULT:      -9.7      4.365      6.452
REMARK  Name = 5472495
REMARK  6 active torsions:
REMARK  status: ('A' for Active; 'I' for Inactive)
REMARK    1  A    between atoms: C_2  and  C_23
REMARK    2  A    between atoms: C_3  and  C_7
REMARK    3  A    between atoms: C_7  and  C_13
REMARK    4  A    between atoms: C_16  and  S_19
REMARK    5  A    between atoms: C_23  and  C_25
REMARK    6  A    between atoms: C_25  and  O_26
REMARK                            x       y       z     vdW  Elec       q    Type
REMARK                         _______ _______ _______ _____ _____    ______ ____
ROOT
ATOM      1  F   UNL     1      35.528  -7.365 -24.505  0.00  0.00    -0.204 F 
ATOM      2  C   UNL     1      32.005  -9.620 -21.856  0.00  0.00    -0.030 C 
ATOM      3  C   UNL     1      32.242 -11.572 -23.040  0.00  0.00    -0.036 C 
ATOM      4  C   UNL     1      31.535 -10.882 -21.961  0.00  0.00    +0.037 C 
ATOM      5  C   UNL     1      33.053  -9.442 -22.878  0.00  0.00    -0.005 C 
ATOM      6  C   UNL     1      33.207 -10.631 -23.611  0.00  0.00    -0.008 C 
ATOM      7  C   UNL     1      33.830  -8.331 -23.169  0.00  0.00    +0.029 C 
ATOM      8  C   UNL     1      34.131 -10.733 -24.638  0.00  0.00    +0.002 C 
ATOM      9  C   UNL     1      30.471 -11.542 -21.151  0.00  0.00    +0.009 C 
ATOM     10  C   UNL     1      34.764  -8.424 -24.204  0.00  0.00    +0.140 C 
ATOM     11  C   UNL     1      34.914  -9.615 -24.932  0.00  0.00    +0.030 C 
ENDROOT
BRANCH   3  12
ATOM     12  C   UNL     1      32.061 -12.833 -23.453  0.00  0.00    +0.049 C 
BRANCH  12  13
ATOM     13  C   UNL     1      32.830 -14.004 -23.002  0.00  0.00    -0.018 C 
ATOM     14  C   UNL     1      33.764 -14.572 -23.854  0.00  0.00    -0.003 C 
ATOM     15  C   UNL     1      32.607 -14.518 -21.734  0.00  0.00    -0.003 C 
ATOM     16  C   UNL     1      34.280 -16.209 -22.153  0.00  0.00    +0.106 C 
ATOM     17  C   UNL     1      34.494 -15.682 -23.426  0.00  0.00    +0.018 C 
ATOM     18  C   UNL     1      33.337 -15.627 -21.307  0.00  0.00    +0.018 C 
BRANCH  16  19
ATOM     19  S   UNL     1      35.194 -17.597 -21.619  0.00  0.00    +0.010 S 
ATOM     20  O   UNL     1      36.087 -17.990 -22.701  0.00  0.00    -0.169 OA
ATOM     21  O   UNL     1      35.739 -17.325 -20.296  0.00  0.00    -0.169 OA
ATOM     22  C   UNL     1      33.977 -18.879 -21.423  0.00  0.00    +0.182 C 
ENDBRANCH  16  19
ENDBRANCH  12  13
ENDBRANCH   3  12
BRANCH   2  23
ATOM     23  C   UNL     1      31.622  -8.525 -20.927  0.00  0.00    +0.132 C 
BRANCH  23  25
ATOM     24  O   UNL     1      32.416  -9.546 -18.853  0.00  0.00    -0.250 OA
ATOM     25  C   UNL     1      32.414  -8.616 -19.646  0.00  0.00    +0.318 C 
BRANCH  25  26
ATOM     26  O   UNL     1      33.150  -7.485 -19.479  0.00  0.00    -0.480 OA
ATOM     27  H   UNL     1      34.052  -7.472 -19.732  0.00  0.00    +0.295 HD
ENDBRANCH  25  26
ENDBRANCH  23  25
ENDBRANCH   2  23
TORSDOF 6
ENDMDL
MODEL 6
REMARK VINA RESULT:      -9.7      4.473      9.986
REMARK  Name = 5472495
REMARK  6 active torsions:
REMARK  status: ('A' for Active; 'I' for Inactive)
REMARK    1  A    between atoms: C_2  and  C_23
REMARK    2  A    between atoms: C_3  and  C_7
REMARK    3  A    between atoms: C_7  and  C_13
REMARK    4  A    between atoms: C_16  and  S_19
REMARK    5  A    between atoms: C_23  and  C_25
REMARK    6  A    between atoms: C_25  and  O_26
REMARK                            x       y       z     vdW  Elec       q    Type
REMARK                         _______ _______ _______ _____ _____    ______ ____
ROOT
ATOM      1  F   UNL     1      31.671 -24.401 -13.122  0.00  0.00    -0.204 F 
ATOM      2  C   UNL     1      35.505 -22.837 -15.835  0.00  0.00    -0.030 C 
ATOM      3  C   UNL     1      34.227 -22.730 -17.739  0.00  0.00    -0.036 C 
ATOM      4  C   UNL     1      35.551 -22.531 -17.150  0.00  0.00    +0.037 C 
ATOM      5  C   UNL     1      34.126 -23.252 -15.517  0.00  0.00    -0.005 C 
ATOM      6  C   UNL     1      33.333 -23.191 -16.675  0.00  0.00    -0.008 C 
ATOM      7  C   UNL     1      33.578 -23.658 -14.309  0.00  0.00    +0.029 C 
ATOM      8  C   UNL     1      31.991 -23.532 -16.651  0.00  0.00    +0.002 C 
ATOM      9  C   UNL     1      36.718 -22.061 -17.950  0.00  0.00    +0.009 C 
ATOM     10  C   UNL     1      32.225 -24.005 -14.276  0.00  0.00    +0.140 C 
ATOM     11  C   UNL     1      31.438 -23.942 -15.436  0.00  0.00    +0.030 C 
ENDROOT
BRANCH   3  12
ATOM     12  C   UNL     1      33.867 -22.535 -19.014  0.00  0.00    +0.049 C 
BRANCH  12  13
ATOM     13  C   UNL     1      34.088 -21.305 -19.791  0.00  0.00    -0.018 C 
ATOM     14  C   UNL     1      33.014 -20.477 -20.073  0.00  0.00    -0.003 C 
ATOM     15  C   UNL     1      35.368 -20.997 -20.229  0.00  0.00    -0.003 C 
ATOM     16  C   UNL     1      34.505 -18.988 -21.254  0.00  0.00    +0.106 C 
ATOM     17  C   UNL     1      33.223 -19.310 -20.808  0.00  0.00    +0.018 C 
ATOM     18  C   UNL     1      35.577 -19.831 -20.964  0.00  0.00    +0.018 C 
BRANCH  16  19
ATOM     19  S   UNL     1      34.766 -17.527 -22.175  0.00  0.00    +0.010 S 
ATOM     20  O   UNL     1      36.198 -17.264 -22.201  0.00  0.00    -0.169 OA
ATOM     21  O   UNL     1      34.025 -17.618 -23.426  0.00  0.00    -0.169 OA
ATOM     22  C   UNL     1      33.993 -16.251 -21.208  0.00  0.00    +0.182 C 
ENDBRANCH  16  19
ENDBRANCH  12  13
ENDBRANCH   3  12
BRANCH   2  23
ATOM     23  C   UNL     1      36.572 -22.802 -14.803  0.00  0.00    +0.132 C 
BRANCH  23  25
ATOM     24  O   UNL     1      37.125 -25.157 -14.451  0.00  0.00    -0.250 OA
ATOM     25  C   UNL     1      37.420 -24.049 -14.874  0.00  0.00    +0.318 C 
BRANCH  25  26
ATOM     26  O   UNL     1      38.599 -23.769 -15.489  0.00  0.00    -0.480 OA
ATOM     27  H   UNL     1      38.735 -24.028 -16.379  0.00  0.00    +0.295 HD
ENDBRANCH  25  26
ENDBRANCH  23  25
ENDBRANCH   2  23
TORSDOF 6
ENDMDL
MODEL 7
REMARK VINA RESULT:      -9.6      3.941      5.667
REMARK  Name = 5472495
REMARK  6 active torsions:
REMARK  status: ('A' for Active; 'I' for Inactive)
REMARK    1  A    between atoms: C_2  and  C_23
REMARK    2  A    between atoms: C_3  and  C_7
REMARK    3  A    between atoms: C_7  and  C_13
REMARK    4  A    between atoms: C_16  and  S_19
REMARK    5  A    between atoms: C_23  and  C_25
REMARK    6  A    between atoms: C_25  and  O_26
REMARK                            x       y       z     vdW  Elec       q    Type
REMARK                         _______ _______ _______ _____ _____    ______ ____
ROOT
ATOM      1  F   UNL     1      31.018  -9.440 -19.800  0.00  0.00    -0.204 F 
ATOM      2  C   UNL     1      34.106  -9.459 -23.670  0.00  0.00    -0.030 C 
ATOM      3  C   UNL     1      33.471 -11.580 -24.277  0.00  0.00    -0.036 C 
ATOM      4  C   UNL     1      34.323 -10.431 -24.583  0.00  0.00    +0.037 C 
ATOM      5  C   UNL     1      33.088  -9.950 -22.723  0.00  0.00    -0.005 C 
ATOM      6  C   UNL     1      32.691 -11.249 -23.083  0.00  0.00    -0.008 C 
ATOM      7  C   UNL     1      32.531  -9.326 -21.616  0.00  0.00    +0.029 C 
ATOM      8  C   UNL     1      31.740 -11.944 -22.354  0.00  0.00    +0.002 C 
ATOM      9  C   UNL     1      35.259 -10.416 -25.743  0.00  0.00    +0.009 C 
ATOM     10  C   UNL     1      31.572 -10.020 -20.873  0.00  0.00    +0.140 C 
ATOM     11  C   UNL     1      31.180 -11.317 -21.239  0.00  0.00    +0.030 C 
ENDROOT
BRANCH   3  12
ATOM     12  C   UNL     1      33.398 -12.737 -24.947  0.00  0.00    +0.049 C 
BRANCH  12  13
ATOM     13  C   UNL     1      33.807 -14.055 -24.434  0.00  0.00    -0.018 C 
ATOM     14  C   UNL     1      33.718 -15.163 -25.260  0.00  0.00    -0.003 C 
ATOM     15  C   UNL     1      34.274 -14.163 -23.133  0.00  0.00    -0.003 C 
ATOM     16  C   UNL     1      34.579 -16.536 -23.469  0.00  0.00    +0.106 C 
ATOM     17  C   UNL     1      34.107 -16.412 -24.775  0.00  0.00    +0.018 C 
ATOM     18  C   UNL     1      34.663 -15.411 -22.648  0.00  0.00    +0.018 C 
BRANCH  16  19
ATOM     19  S   UNL     1      35.066 -18.099 -22.862  0.00  0.00    +0.010 S 
ATOM     20  O   UNL     1      34.495 -19.116 -23.734  0.00  0.00    -0.169 OA
ATOM     21  O   UNL     1      36.501 -18.084 -22.613  0.00  0.00    -0.169 OA
ATOM     22  C   UNL     1      34.267 -18.227 -21.278  0.00  0.00    +0.182 C 
ENDBRANCH  16  19
ENDBRANCH  12  13
ENDBRANCH   3  12
BRANCH   2  23
ATOM     23  C   UNL     1      34.714  -8.110 -23.539  0.00  0.00    +0.132 C 
BRANCH  23  25
ATOM     24  O   UNL     1      32.702  -6.812 -24.030  0.00  0.00    -0.250 OA
ATOM     25  C   UNL     1      33.874  -7.079 -24.251  0.00  0.00    +0.318 C 
BRANCH  25  26
ATOM     26  O   UNL     1      34.616  -6.464 -25.211  0.00  0.00    -0.480 OA
ATOM     27  H   UNL     1      35.487  -6.758 -25.389  0.00  0.00    +0.295 HD
ENDBRANCH  25  26
ENDBRANCH  23  25
ENDBRANCH   2  23
TORSDOF 6
ENDMDL
MODEL 8
REMARK VINA RESULT:      -9.3      7.495     12.177
REMARK  Name = 5472495
REMARK  6 active torsions:
REMARK  status: ('A' for Active; 'I' for Inactive)
REMARK    1  A    between atoms: C_2  and  C_23
REMARK    2  A    between atoms: C_3  and  C_7
REMARK    3  A    between atoms: C_7  and  C_13
REMARK    4  A    between atoms: C_16  and  S_19
REMARK    5  A    between atoms: C_23  and  C_25
REMARK    6  A    between atoms: C_25  and  O_26
REMARK                            x       y       z     vdW  Elec       q    Type
REMARK                         _______ _______ _______ _____ _____    ______ ____
ROOT
ATOM      1  F   UNL     1      33.398 -13.859 -24.999  0.00  0.00    -0.204 F 
ATOM      2  C   UNL     1      31.947 -10.228 -21.962  0.00  0.00    -0.030 C 
ATOM      3  C   UNL     1      33.385  -8.724 -22.930  0.00  0.00    -0.036 C 
ATOM      4  C   UNL     1      32.365  -8.945 -21.906  0.00  0.00    +0.037 C 
ATOM      5  C   UNL     1      32.692 -10.898 -23.044  0.00  0.00    -0.005 C 
ATOM      6  C   UNL     1      33.577  -9.988 -23.645  0.00  0.00    -0.008 C 
ATOM      7  C   UNL     1      32.620 -12.209 -23.491  0.00  0.00    +0.029 C 
ATOM      8  C   UNL     1      34.400 -10.363 -24.694  0.00  0.00    +0.002 C 
ATOM      9  C   UNL     1      31.914  -7.866 -20.981  0.00  0.00    +0.009 C 
ATOM     10  C   UNL     1      33.448 -12.598 -24.548  0.00  0.00    +0.140 C 
ATOM     11  C   UNL     1      34.330 -11.683 -25.144  0.00  0.00    +0.030 C 
ENDROOT
BRANCH   3  12
ATOM     12  C   UNL     1      34.041  -7.587 -23.190  0.00  0.00    +0.049 C 
BRANCH  12  13
ATOM     13  C   UNL     1      33.739  -6.650 -24.285  0.00  0.00    -0.018 C 
ATOM     14  C   UNL     1      34.682  -6.439 -25.278  0.00  0.00    -0.003 C 
ATOM     15  C   UNL     1      32.517  -5.997 -24.304  0.00  0.00    -0.003 C 
ATOM     16  C   UNL     1      33.170  -4.889 -26.348  0.00  0.00    +0.106 C 
ATOM     17  C   UNL     1      34.396  -5.553 -26.317  0.00  0.00    +0.018 C 
ATOM     18  C   UNL     1      32.230  -5.111 -25.342  0.00  0.00    +0.018 C 
BRANCH  16  19
ATOM     19  S   UNL     1      32.812  -3.780 -27.649  0.00  0.00    +0.010 S 
ATOM     20  O   UNL     1      32.827  -4.531 -28.896  0.00  0.00    -0.169 OA
ATOM     21  O   UNL     1      31.637  -2.996 -27.292  0.00  0.00    -0.169 OA
ATOM     22  C   UNL     1      34.194  -2.661 -27.668  0.00  0.00    +0.182 C 
ENDBRANCH  16  19
ENDBRANCH  12  13
ENDBRANCH   3  12
BRANCH   2  23
ATOM     23  C   UNL     1      30.935 -10.947 -21.144  0.00  0.00    +0.132 C 
BRANCH  23  25
ATOM     24  O   UNL     1      31.549 -10.795 -18.784  0.00  0.00    -0.250 OA
ATOM     25  C   UNL     1      31.538 -11.408 -19.841  0.00  0.00    +0.318 C 
BRANCH  25  26
ATOM     26  O   UNL     1      32.092 -12.640 -19.999  0.00  0.00    -0.480 OA
ATOM     27  H   UNL     1      31.555 -13.366 -20.247  0.00  0.00    +0.295 HD
ENDBRANCH  25  26
ENDBRANCH  23  25
ENDBRANCH   2  23
TORSDOF 6
ENDMDL
MODEL 9
REMARK VINA RESULT:      -9.3      3.513      5.424
REMARK  Name = 5472495
REMARK  6 active torsions:
REMARK  status: ('A' for Active; 'I' for Inactive)
REMARK    1  A    between atoms: C_2  and  C_23
REMARK    2  A    between atoms: C_3  and  C_7
REMARK    3  A    between atoms: C_7  and  C_13
REMARK    4  A    between atoms: C_16  and  S_19
REMARK    5  A    between atoms: C_23  and  C_25
REMARK    6  A    between atoms: C_25  and  O_26
REMARK                            x       y       z     vdW  Elec       q    Type
REMARK                         _______ _______ _______ _____ _____    ______ ____
ROOT
ATOM      1  F   UNL     1      34.123 -11.352 -26.270  0.00  0.00    -0.204 F 
ATOM      2  C   UNL     1      32.045 -10.290 -21.904  0.00  0.00    -0.030 C 
ATOM      3  C   UNL     1      32.208 -12.467 -21.197  0.00  0.00    -0.036 C 
ATOM      4  C   UNL     1      31.779 -11.110 -20.863  0.00  0.00    +0.037 C 
ATOM      5  C   UNL     1      32.669 -11.098 -22.967  0.00  0.00    -0.005 C 
ATOM      6  C   UNL     1      32.774 -12.435 -22.547  0.00  0.00    -0.008 C 
ATOM      7  C   UNL     1      33.120 -10.718 -24.222  0.00  0.00    +0.029 C 
ATOM      8  C   UNL     1      33.326 -13.409 -23.363  0.00  0.00    +0.002 C 
ATOM      9  C   UNL     1      31.151 -10.768 -19.555  0.00  0.00    +0.009 C 
ATOM     10  C   UNL     1      33.679 -11.694 -25.053  0.00  0.00    +0.140 C 
ATOM     11  C   UNL     1      33.781 -13.027 -24.626  0.00  0.00    +0.030 C 
ENDROOT
BRANCH   3  12
ATOM     12  C   UNL     1      32.113 -13.560 -20.430  0.00  0.00    +0.049 C 
BRANCH  12  13
ATOM     13  C   UNL     1      32.825 -14.830 -20.649  0.00  0.00    -0.018 C 
ATOM     14  C   UNL     1      34.210 -14.849 -20.604  0.00  0.00    -0.003 C 
ATOM     15  C   UNL     1      32.098 -15.984 -20.897  0.00  0.00    -0.003 C 
ATOM     16  C   UNL     1      34.166 -17.221 -21.060  0.00  0.00    +0.106 C 
ATOM     17  C   UNL     1      34.885 -16.053 -20.811  0.00  0.00    +0.018 C 
ATOM     18  C   UNL     1      32.772 -17.187 -21.103  0.00  0.00    +0.018 C 
BRANCH  16  19
ATOM     19  S   UNL     1      35.011 -18.727 -21.319  0.00  0.00    +0.010 S 
ATOM     20  O   UNL     1      35.143 -18.926 -22.756  0.00  0.00    -0.169 OA
ATOM     21  O   UNL     1      36.198 -18.754 -20.474  0.00  0.00    -0.169 OA
ATOM     22  C   UNL     1      33.903 -19.969 -20.695  0.00  0.00    +0.182 C 
ENDBRANCH  16  19
ENDBRANCH  12  13
ENDBRANCH   3  12
BRANCH   2  23
ATOM     23  C   UNL     1      31.804  -8.833 -22.066  0.00  0.00    +0.132 C 
BRANCH  23  25
ATOM     24  O   UNL     1      33.885  -7.603 -22.424  0.00  0.00    -0.250 OA
ATOM     25  C   UNL     1      33.029  -8.046 -21.672  0.00  0.00    +0.318 C 
BRANCH  25  26
ATOM     26  O   UNL     1      33.063  -7.889 -20.322  0.00  0.00    -0.480 OA
ATOM     27  H   UNL     1      33.328  -8.602 -19.775  0.00  0.00    +0.295 HD
ENDBRANCH  25  26
ENDBRANCH  23  25
ENDBRANCH   2  23
TORSDOF 6
ENDMDL
