MODEL 1
REMARK VINA RESULT:      -7.8      0.000      0.000
REMARK  Name = 16133778
REMARK  4 active torsions:
REMARK  status: ('A' for Active; 'I' for Inactive)
REMARK    1  A    between atoms: C_1  and  C_3
REMARK    2  A    between atoms: C_1  and  C_11
REMARK    3  A    between atoms: C_2  and  O_12
REMARK    4  A    between atoms: O_12  and  P_13
REMARK                            x       y       z     vdW  Elec       q    Type
REMARK                         _______ _______ _______ _____ _____    ______ ____
ROOT
ATOM      1  C   UNL     1      34.687 -18.220 -21.766  0.00  0.00    +0.117 C 
ATOM      2  C   UNL     1      35.104 -18.207 -23.049  0.00  0.00    +0.187 C 
ENDROOT
BRANCH   1   3
ATOM      3  C   UNL     1      34.512 -19.425 -20.971  0.00  0.00    +0.009 C 
ATOM      4  C   UNL     1      33.230 -19.843 -20.612  0.00  0.00    +0.000 C 
ATOM      5  C   UNL     1      35.625 -20.163 -20.567  0.00  0.00    +0.000 C 
ATOM      6  C   UNL     1      33.062 -21.000 -19.849  0.00  0.00    +0.000 C 
ATOM      7  C   UNL     1      35.456 -21.319 -19.805  0.00  0.00    +0.000 C 
ATOM      8  C   UNL     1      34.175 -21.738 -19.446  0.00  0.00    +0.000 C 
ENDBRANCH   1   3
BRANCH   1  11
ATOM      9  O   UNL     1      35.257 -16.461 -20.267  0.00  0.00    -0.240 OA
ATOM     10  O   UNL     1      33.270 -16.331 -21.377  0.00  0.00    -0.240 OA
ATOM     11  C   UNL     1      34.372 -16.874 -21.072  0.00  0.00    +0.391 C 
ENDBRANCH   1  11
BRANCH   2  12
ATOM     12  O   UNL     1      35.284 -17.101 -23.836  0.00  0.00    -0.419 OA
BRANCH  12  13
ATOM     13  P   UNL     1      34.206 -16.758 -24.985  0.00  0.00    +0.459 P 
ATOM     14  O   UNL     1      33.933 -18.124 -25.429  0.00  0.00    -0.132 OA
ATOM     15  O   UNL     1      35.153 -16.394 -26.034  0.00  0.00    -0.132 OA
ENDBRANCH  12  13
ENDBRANCH   2  12
TORSDOF 4
ENDMDL
MODEL 2
REMARK VINA RESULT:      -7.8      0.059      1.501
REMARK  Name = 16133778
REMARK  4 active torsions:
REMARK  status: ('A' for Active; 'I' for Inactive)
REMARK    1  A    between atoms: C_1  and  C_3
REMARK    2  A    between atoms: C_1  and  C_11
REMARK    3  A    between atoms: C_2  and  O_12
REMARK    4  A    between atoms: O_12  and  P_13
REMARK                            x       y       z     vdW  Elec       q    Type
REMARK                         _______ _______ _______ _____ _____    ______ ____
ROOT
ATOM      1  C   UNL     1      34.675 -18.161 -21.753  0.00  0.00    +0.117 C 
ATOM      2  C   UNL     1      35.073 -18.134 -23.041  0.00  0.00    +0.187 C 
ENDROOT
BRANCH   1   3
ATOM      3  C   UNL     1      34.516 -19.374 -20.967  0.00  0.00    +0.009 C 
ATOM      4  C   UNL     1      35.639 -20.092 -20.556  0.00  0.00    +0.000 C 
ATOM      5  C   UNL     1      33.239 -19.820 -20.624  0.00  0.00    +0.000 C 
ATOM      6  C   UNL     1      35.486 -21.256 -19.802  0.00  0.00    +0.000 C 
ATOM      7  C   UNL     1      33.087 -20.984 -19.870  0.00  0.00    +0.000 C 
ATOM      8  C   UNL     1      34.210 -21.702 -19.459  0.00  0.00    +0.000 C 
ENDBRANCH   1   3
BRANCH   1  11
ATOM      9  O   UNL     1      33.274 -16.275 -21.373  0.00  0.00    -0.240 OA
ATOM     10  O   UNL     1      35.231 -16.416 -20.212  0.00  0.00    -0.240 OA
ATOM     11  C   UNL     1      34.366 -16.822 -21.042  0.00  0.00    +0.391 C 
ENDBRANCH   1  11
BRANCH   2  12
ATOM     12  O   UNL     1      35.238 -17.020 -23.820  0.00  0.00    -0.419 OA
BRANCH  12  13
ATOM     13  P   UNL     1      34.197 -16.724 -25.016  0.00  0.00    +0.459 P 
ATOM     14  O   UNL     1      33.945 -18.105 -25.419  0.00  0.00    -0.132 OA
ATOM     15  O   UNL     1      35.177 -16.392 -26.045  0.00  0.00    -0.132 OA
ENDBRANCH  12  13
ENDBRANCH   2  12
TORSDOF 4
ENDMDL
MODEL 3
REMARK VINA RESULT:      -7.7      1.752      3.103
REMARK  Name = 16133778
REMARK  4 active torsions:
REMARK  status: ('A' for Active; 'I' for Inactive)
REMARK    1  A    between atoms: C_1  and  C_3
REMARK    2  A    between atoms: C_1  and  C_11
REMARK    3  A    between atoms: C_2  and  O_12
REMARK    4  A    between atoms: O_12  and  P_13
REMARK                            x       y       z     vdW  Elec       q    Type
REMARK                         _______ _______ _______ _____ _____    ______ ____
ROOT
ATOM      1  C   UNL     1      34.533 -18.679 -21.499  0.00  0.00    +0.117 C 
ATOM      2  C   UNL     1      33.917 -17.524 -21.175  0.00  0.00    +0.187 C 
ENDROOT
BRANCH   1   3
ATOM      3  C   UNL     1      34.506 -19.881 -20.682  0.00  0.00    +0.009 C 
ATOM      4  C   UNL     1      33.287 -20.402 -20.248  0.00  0.00    +0.000 C 
ATOM      5  C   UNL     1      35.699 -20.515 -20.333  0.00  0.00    +0.000 C 
ATOM      6  C   UNL     1      33.260 -21.557 -19.465  0.00  0.00    +0.000 C 
ATOM      7  C   UNL     1      35.672 -21.669 -19.549  0.00  0.00    +0.000 C 
ATOM      8  C   UNL     1      34.453 -22.190 -19.115  0.00  0.00    +0.000 C 
ENDBRANCH   1   3
BRANCH   1  11
ATOM      9  O   UNL     1      36.474 -18.221 -22.799  0.00  0.00    -0.240 OA
ATOM     10  O   UNL     1      34.747 -19.331 -23.792  0.00  0.00    -0.240 OA
ATOM     11  C   UNL     1      35.326 -18.753 -22.825  0.00  0.00    +0.391 C 
ENDBRANCH   1  11
BRANCH   2  12
ATOM     12  O   UNL     1      33.913 -16.368 -21.910  0.00  0.00    -0.419 OA
BRANCH  12  13
ATOM     13  P   UNL     1      33.944 -14.944 -21.154  0.00  0.00    +0.459 P 
ATOM     14  O   UNL     1      34.949 -15.266 -20.143  0.00  0.00    -0.132 OA
ATOM     15  O   UNL     1      32.759 -15.142 -20.325  0.00  0.00    -0.132 OA
ENDBRANCH  12  13
ENDBRANCH   2  12
TORSDOF 4
ENDMDL
MODEL 4
REMARK VINA RESULT:      -7.7      5.540      7.107
REMARK  Name = 16133778
REMARK  4 active torsions:
REMARK  status: ('A' for Active; 'I' for Inactive)
REMARK    1  A    between atoms: C_1  and  C_3
REMARK    2  A    between atoms: C_1  and  C_11
REMARK    3  A    between atoms: C_2  and  O_12
REMARK    4  A    between atoms: O_12  and  P_13
REMARK                            x       y       z     vdW  Elec       q    Type
REMARK                         _______ _______ _______ _____ _____    ______ ____
ROOT
ATOM      1  C   UNL     1      34.997 -21.835 -18.887  0.00  0.00    +0.117 C 
ATOM      2  C   UNL     1      35.811 -22.035 -17.830  0.00  0.00    +0.187 C 
ENDROOT
BRANCH   1   3
ATOM      3  C   UNL     1      35.178 -20.783 -19.875  0.00  0.00    +0.009 C 
ATOM      4  C   UNL     1      34.086 -20.319 -20.608  0.00  0.00    +0.000 C 
ATOM      5  C   UNL     1      36.444 -20.238 -20.089  0.00  0.00    +0.000 C 
ATOM      6  C   UNL     1      34.259 -19.310 -21.556  0.00  0.00    +0.000 C 
ATOM      7  C   UNL     1      36.617 -19.229 -21.037  0.00  0.00    +0.000 C 
ATOM      8  C   UNL     1      35.525 -18.764 -21.770  0.00  0.00    +0.000 C 
ENDBRANCH   1   3
BRANCH   1  11
ATOM      9  O   UNL     1      34.017 -23.818 -19.767  0.00  0.00    -0.240 OA
ATOM     10  O   UNL     1      32.699 -22.411 -18.549  0.00  0.00    -0.240 OA
ATOM     11  C   UNL     1      33.786 -22.777 -19.084  0.00  0.00    +0.391 C 
ENDBRANCH   1  11
BRANCH   2  12
ATOM     12  O   UNL     1      35.681 -23.010 -16.876  0.00  0.00    -0.419 OA
BRANCH  12  13
ATOM     13  P   UNL     1      36.561 -22.924 -15.527  0.00  0.00    +0.459 P 
ATOM     14  O   UNL     1      37.838 -22.555 -16.134  0.00  0.00    -0.132 OA
ATOM     15  O   UNL     1      36.819 -24.353 -15.375  0.00  0.00    -0.132 OA
ENDBRANCH  12  13
ENDBRANCH   2  12
TORSDOF 4
ENDMDL
MODEL 5
REMARK VINA RESULT:      -7.5      1.321      1.768
REMARK  Name = 16133778
REMARK  4 active torsions:
REMARK  status: ('A' for Active; 'I' for Inactive)
REMARK    1  A    between atoms: C_1  and  C_3
REMARK    2  A    between atoms: C_1  and  C_11
REMARK    3  A    between atoms: C_2  and  O_12
REMARK    4  A    between atoms: O_12  and  P_13
REMARK                            x       y       z     vdW  Elec       q    Type
REMARK                         _______ _______ _______ _____ _____    ______ ____
ROOT
ATOM      1  C   UNL     1      34.636 -17.052 -21.899  0.00  0.00    +0.117 C 
ATOM      2  C   UNL     1      34.922 -16.771 -23.187  0.00  0.00    +0.187 C 
ENDROOT
BRANCH   1   3
ATOM      3  C   UNL     1      34.811 -18.358 -21.285  0.00  0.00    +0.009 C 
ATOM      4  C   UNL     1      33.695 -19.127 -20.952  0.00  0.00    +0.000 C 
ATOM      5  C   UNL     1      36.093 -18.843 -21.030  0.00  0.00    +0.000 C 
ATOM      6  C   UNL     1      33.863 -20.381 -20.363  0.00  0.00    +0.000 C 
ATOM      7  C   UNL     1      36.261 -20.097 -20.442  0.00  0.00    +0.000 C 
ATOM      8  C   UNL     1      35.145 -20.866 -20.108  0.00  0.00    +0.000 C 
ENDBRANCH   1   3
BRANCH   1  11
ATOM      9  O   UNL     1      32.859 -15.657 -21.148  0.00  0.00    -0.240 OA
ATOM     10  O   UNL     1      34.917 -15.385 -20.205  0.00  0.00    -0.240 OA
ATOM     11  C   UNL     1      34.087 -15.923 -20.995  0.00  0.00    +0.391 C 
ENDBRANCH   1  11
BRANCH   2  12
ATOM     12  O   UNL     1      34.775 -15.559 -23.808  0.00  0.00    -0.419 OA
BRANCH  12  13
ATOM     13  P   UNL     1      33.538 -15.327 -24.817  0.00  0.00    +0.459 P 
ATOM     14  O   UNL     1      34.164 -15.836 -26.035  0.00  0.00    -0.132 OA
ATOM     15  O   UNL     1      33.754 -13.904 -25.061  0.00  0.00    -0.132 OA
ENDBRANCH  12  13
ENDBRANCH   2  12
TORSDOF 4
ENDMDL
MODEL 6
REMARK VINA RESULT:      -7.3      9.921     11.251
REMARK  Name = 16133778
REMARK  4 active torsions:
REMARK  status: ('A' for Active; 'I' for Inactive)
REMARK    1  A    between atoms: C_1  and  C_3
REMARK    2  A    between atoms: C_1  and  C_11
REMARK    3  A    between atoms: C_2  and  O_12
REMARK    4  A    between atoms: O_12  and  P_13
REMARK                            x       y       z     vdW  Elec       q    Type
REMARK                         _______ _______ _______ _____ _____    ______ ____
ROOT
ATOM      1  C   UNL     1      36.975 -24.731 -13.572  0.00  0.00    +0.117 C 
ATOM      2  C   UNL     1      37.707 -25.696 -14.166  0.00  0.00    +0.187 C 
ENDROOT
BRANCH   1   3
ATOM      3  C   UNL     1      35.652 -24.317 -14.011  0.00  0.00    +0.009 C 
ATOM      4  C   UNL     1      34.584 -24.328 -13.113  0.00  0.00    +0.000 C 
ATOM      5  C   UNL     1      35.451 -23.908 -15.329  0.00  0.00    +0.000 C 
ATOM      6  C   UNL     1      33.315 -23.930 -13.533  0.00  0.00    +0.000 C 
ATOM      7  C   UNL     1      34.181 -23.510 -15.749  0.00  0.00    +0.000 C 
ATOM      8  C   UNL     1      33.113 -23.521 -14.852  0.00  0.00    +0.000 C 
ENDBRANCH   1   3
BRANCH   1  11
ATOM      9  O   UNL     1      37.956 -22.820 -12.546  0.00  0.00    -0.240 OA
ATOM     10  O   UNL     1      37.588 -24.666 -11.259  0.00  0.00    -0.240 OA
ATOM     11  C   UNL     1      37.561 -24.005 -12.338  0.00  0.00    +0.391 C 
ENDBRANCH   1  11
BRANCH   2  12
ATOM     12  O   UNL     1      38.954 -26.119 -13.789  0.00  0.00    -0.419 OA
BRANCH  12  13
ATOM     13  P   UNL     1      40.231 -25.741 -14.700  0.00  0.00    +0.459 P 
ATOM     14  O   UNL     1      41.156 -26.753 -14.193  0.00  0.00    -0.132 OA
ATOM     15  O   UNL     1      40.710 -24.617 -13.901  0.00  0.00    -0.132 OA
ENDBRANCH  12  13
ENDBRANCH   2  12
TORSDOF 4
ENDMDL
MODEL 7
REMARK VINA RESULT:      -7.2      7.740      9.476
REMARK  Name = 16133778
REMARK  4 active torsions:
REMARK  status: ('A' for Active; 'I' for Inactive)
REMARK    1  A    between atoms: C_1  and  C_3
REMARK    2  A    between atoms: C_1  and  C_11
REMARK    3  A    between atoms: C_2  and  O_12
REMARK    4  A    between atoms: O_12  and  P_13
REMARK                            x       y       z     vdW  Elec       q    Type
REMARK                         _______ _______ _______ _____ _____    ______ ____
ROOT
ATOM      1  C   UNL     1      34.580 -23.780 -15.681  0.00  0.00    +0.117 C 
ATOM      2  C   UNL     1      35.179 -24.898 -15.222  0.00  0.00    +0.187 C 
ENDROOT
BRANCH   1   3
ATOM      3  C   UNL     1      33.171 -23.470 -15.502  0.00  0.00    +0.009 C 
ATOM      4  C   UNL     1      32.359 -23.245 -16.614  0.00  0.00    +0.000 C 
ATOM      5  C   UNL     1      32.630 -23.399 -14.218  0.00  0.00    +0.000 C 
ATOM      6  C   UNL     1      31.006 -22.949 -16.442  0.00  0.00    +0.000 C 
ATOM      7  C   UNL     1      31.277 -23.103 -14.046  0.00  0.00    +0.000 C 
ATOM      8  C   UNL     1      30.465 -22.878 -15.158  0.00  0.00    +0.000 C 
ENDBRANCH   1   3
BRANCH   1  11
ATOM      9  O   UNL     1      36.174 -22.012 -15.729  0.00  0.00    -0.240 OA
ATOM     10  O   UNL     1      35.294 -22.727 -17.708  0.00  0.00    -0.240 OA
ATOM     11  C   UNL     1      35.431 -22.741 -16.450  0.00  0.00    +0.391 C 
ENDBRANCH   1  11
BRANCH   2  12
ATOM     12  O   UNL     1      36.500 -25.232 -15.366  0.00  0.00    -0.419 OA
BRANCH  12  13
ATOM     13  P   UNL     1      36.995 -26.710 -14.954  0.00  0.00    +0.459 P 
ATOM     14  O   UNL     1      38.433 -26.497 -15.102  0.00  0.00    -0.132 OA
ATOM     15  O   UNL     1      36.757 -27.357 -16.241  0.00  0.00    -0.132 OA
ENDBRANCH  12  13
ENDBRANCH   2  12
TORSDOF 4
ENDMDL
MODEL 8
REMARK VINA RESULT:      -7.2      8.766     10.807
REMARK  Name = 16133778
REMARK  4 active torsions:
REMARK  status: ('A' for Active; 'I' for Inactive)
REMARK    1  A    between atoms: C_1  and  C_3
REMARK    2  A    between atoms: C_1  and  C_11
REMARK    3  A    between atoms: C_2  and  O_12
REMARK    4  A    between atoms: O_12  and  P_13
REMARK                            x       y       z     vdW  Elec       q    Type
REMARK                         _______ _______ _______ _____ _____    ______ ____
ROOT
ATOM      1  C   UNL     1      34.653 -24.202 -14.300  0.00  0.00    +0.117 C 
ATOM      2  C   UNL     1      34.682 -24.298 -12.955  0.00  0.00    +0.187 C 
ENDROOT
BRANCH   1   3
ATOM      3  C   UNL     1      33.513 -23.723 -15.065  0.00  0.00    +0.009 C 
ATOM      4  C   UNL     1      32.288 -23.510 -14.433  0.00  0.00    +0.000 C 
ATOM      5  C   UNL     1      33.644 -23.474 -16.431  0.00  0.00    +0.000 C 
ATOM      6  C   UNL     1      31.194 -23.050 -15.166  0.00  0.00    +0.000 C 
ATOM      7  C   UNL     1      32.551 -23.014 -17.165  0.00  0.00    +0.000 C 
ATOM      8  C   UNL     1      31.325 -22.801 -16.532  0.00  0.00    +0.000 C 
ENDBRANCH   1   3
BRANCH   1  11
ATOM      9  O   UNL     1      35.901 -25.814 -15.529  0.00  0.00    -0.240 OA
ATOM     10  O   UNL     1      36.801 -23.738 -15.248  0.00  0.00    -0.240 OA
ATOM     11  C   UNL     1      35.906 -24.622 -15.103  0.00  0.00    +0.391 C 
ENDBRANCH   1  11
BRANCH   2  12
ATOM     12  O   UNL     1      35.729 -24.742 -12.192  0.00  0.00    -0.419 OA
BRANCH  12  13
ATOM     13  P   UNL     1      36.608 -23.682 -11.353  0.00  0.00    +0.459 P 
ATOM     14  O   UNL     1      37.872 -24.414 -11.350  0.00  0.00    -0.132 OA
ATOM     15  O   UNL     1      36.152 -24.067 -10.021  0.00  0.00    -0.132 OA
ENDBRANCH  12  13
ENDBRANCH   2  12
TORSDOF 4
ENDMDL
MODEL 9
REMARK VINA RESULT:      -7.2      1.516      2.879
REMARK  Name = 16133778
REMARK  4 active torsions:
REMARK  status: ('A' for Active; 'I' for Inactive)
REMARK    1  A    between atoms: C_1  and  C_3
REMARK    2  A    between atoms: C_1  and  C_11
REMARK    3  A    between atoms: C_2  and  O_12
REMARK    4  A    between atoms: O_12  and  P_13
REMARK                            x       y       z     vdW  Elec       q    Type
REMARK                         _______ _______ _______ _____ _____    ______ ____
ROOT
ATOM      1  C   UNL     1      34.861 -18.075 -22.348  0.00  0.00    +0.117 C 
ATOM      2  C   UNL     1      34.943 -16.776 -21.991  0.00  0.00    +0.187 C 
ENDROOT
BRANCH   1   3
ATOM      3  C   UNL     1      34.670 -19.172 -21.413  0.00  0.00    +0.009 C 
ATOM      4  C   UNL     1      35.775 -19.840 -20.885  0.00  0.00    +0.000 C 
ATOM      5  C   UNL     1      33.381 -19.557 -21.044  0.00  0.00    +0.000 C 
ATOM      6  C   UNL     1      35.591 -20.893 -19.988  0.00  0.00    +0.000 C 
ATOM      7  C   UNL     1      33.197 -20.610 -20.147  0.00  0.00    +0.000 C 
ATOM      8  C   UNL     1      34.302 -21.278 -19.619  0.00  0.00    +0.000 C 
ENDBRANCH   1   3
BRANCH   1  11
ATOM      9  O   UNL     1      35.070 -17.462 -24.638  0.00  0.00    -0.240 OA
ATOM     10  O   UNL     1      34.954 -19.680 -24.120  0.00  0.00    -0.240 OA
ATOM     11  C   UNL     1      34.973 -18.444 -23.845  0.00  0.00    +0.391 C 
ENDBRANCH   1  11
BRANCH   2  12
ATOM     12  O   UNL     1      35.122 -15.711 -22.833  0.00  0.00    -0.419 OA
BRANCH  12  13
ATOM     13  P   UNL     1      34.105 -14.461 -22.762  0.00  0.00    +0.459 P 
ATOM     14  O   UNL     1      32.994 -15.134 -22.092  0.00  0.00    -0.132 OA
ATOM     15  O   UNL     1      33.596 -14.550 -24.127  0.00  0.00    -0.132 OA
ENDBRANCH  12  13
ENDBRANCH   2  12
TORSDOF 4
ENDMDL
