MODEL 1
REMARK VINA RESULT:     -12.1      0.000      0.000
REMARK  Name = 4566
REMARK  6 active torsions:
REMARK  status: ('A' for Active; 'I' for Inactive)
REMARK    1  A    between atoms: N_4  and  C_14
REMARK    2  A    between atoms: C_6  and  O_26
REMARK    3  A    between atoms: C_15  and  S_20
REMARK    4  A    between atoms: S_20  and  N_23
REMARK    5  A    between atoms: O_26  and  C_27
REMARK    6  A    between atoms: C_27  and  C_28
REMARK                            x       y       z     vdW  Elec       q    Type
REMARK                         _______ _______ _______ _____ _____    ______ ____
ROOT
ATOM      1  N   UNL     1      32.680 -23.467 -15.959  0.00  0.00    -0.293 NA
ATOM      2  N   UNL     1      29.311 -22.477 -17.055  0.00  0.00    -0.266 NA
ATOM      3  N   UNL     1      30.923 -23.940 -14.334  0.00  0.00    -0.316 NA
ATOM      4  N   UNL     1      33.160 -24.466 -13.897  0.00  0.00    -0.238 N 
ATOM      5  N   UNL     1      28.701 -23.281 -15.068  0.00  0.00    -0.296 N 
ATOM      6  C   UNL     1      31.790 -22.944 -16.832  0.00  0.00    +0.288 C 
ATOM      7  C   UNL     1      30.462 -22.914 -16.462  0.00  0.00    +0.215 C 
ATOM      8  C   UNL     1      30.057 -23.409 -15.230  0.00  0.00    +0.196 C 
ATOM      9  C   UNL     1      32.197 -23.927 -14.780  0.00  0.00    +0.207 C 
ATOM     10  C   UNL     1      28.283 -22.718 -16.181  0.00  0.00    +0.164 C 
ATOM     11  H   UNL     1      29.234 -22.065 -17.945  0.00  0.00    +0.126 HD
ATOM     12  H   UNL     1      32.781 -24.793 -13.049  0.00  0.00    +0.166 HD
ATOM     13  H   UNL     1      28.160 -23.551 -14.290  0.00  0.00    +0.150 HD
ENDROOT
BRANCH   4  14
ATOM     14  C   UNL     1      34.553 -24.628 -13.993  0.00  0.00    +0.059 C 
ATOM     15  C   UNL     1      37.323 -24.951 -14.181  0.00  0.00    +0.122 C 
ATOM     16  C   UNL     1      35.099 -25.443 -14.987  0.00  0.00    +0.017 C 
ATOM     17  C   UNL     1      35.399 -23.975 -13.092  0.00  0.00    +0.017 C 
ATOM     18  C   UNL     1      36.482 -25.605 -15.082  0.00  0.00    +0.021 C 
ATOM     19  C   UNL     1      36.782 -24.136 -13.187  0.00  0.00    +0.021 C 
BRANCH  15  20
ATOM     20  S   UNL     1      39.053 -25.153 -14.299  0.00  0.00    +0.057 S 
ATOM     21  O   UNL     1      39.668 -24.544 -13.127  0.00  0.00    -0.153 OA
ATOM     22  O   UNL     1      39.334 -26.545 -14.622  0.00  0.00    -0.153 OA
BRANCH  20  23
ATOM     23  N   UNL     1      39.401 -24.192 -15.667  0.00  0.00    -0.203 NA
ATOM     24  H   UNL     1      38.530 -23.929 -16.129  0.00  0.00    +0.144 HD
ATOM     25  H   UNL     1      39.982 -24.722 -16.316  0.00  0.00    +0.144 HD
ENDBRANCH  20  23
ENDBRANCH  15  20
ENDBRANCH   4  14
BRANCH   6  26
ATOM     26  O   UNL     1      32.246 -22.467 -18.036  0.00  0.00    -0.453 OA
BRANCH  26  27
ATOM     27  C   UNL     1      33.618 -22.661 -18.327  0.00  0.00    +0.208 C 
BRANCH  27  28
ATOM     28  C   UNL     1      33.970 -21.843 -19.568  0.00  0.00    +0.044 C 
ATOM     29  C   UNL     1      32.951 -20.715 -19.781  0.00  0.00    +0.004 C 
ATOM     30  C   UNL     1      35.394 -21.281 -19.461  0.00  0.00    +0.004 C 
ATOM     31  C   UNL     1      33.312 -19.849 -20.987  0.00  0.00    +0.000 C 
ATOM     32  C   UNL     1      35.750 -20.415 -20.668  0.00  0.00    +0.000 C 
ATOM     33  C   UNL     1      34.731 -19.299 -20.880  0.00  0.00    +0.000 C 
ENDBRANCH  27  28
ENDBRANCH  26  27
ENDBRANCH   6  26
TORSDOF 6
ENDMDL
MODEL 2
REMARK VINA RESULT:     -12.1      1.099      1.501
REMARK  Name = 4566
REMARK  6 active torsions:
REMARK  status: ('A' for Active; 'I' for Inactive)
REMARK    1  A    between atoms: N_4  and  C_14
REMARK    2  A    between atoms: C_6  and  O_26
REMARK    3  A    between atoms: C_15  and  S_20
REMARK    4  A    between atoms: S_20  and  N_23
REMARK    5  A    between atoms: O_26  and  C_27
REMARK    6  A    between atoms: C_27  and  C_28
REMARK                            x       y       z     vdW  Elec       q    Type
REMARK                         _______ _______ _______ _____ _____    ______ ____
ROOT
ATOM      1  N   UNL     1      33.846 -23.814 -15.891  0.00  0.00    -0.293 NA
ATOM      2  N   UNL     1      30.441 -22.819 -16.864  0.00  0.00    -0.266 NA
ATOM      3  N   UNL     1      32.226 -23.889 -14.068  0.00  0.00    -0.316 NA
ATOM      4  N   UNL     1      34.466 -24.471 -13.731  0.00  0.00    -0.238 N 
ATOM      5  N   UNL     1      29.979 -23.228 -14.723  0.00  0.00    -0.296 N 
ATOM      6  C   UNL     1      32.905 -23.394 -16.767  0.00  0.00    +0.288 C 
ATOM      7  C   UNL     1      31.620 -23.218 -16.300  0.00  0.00    +0.215 C 
ATOM      8  C   UNL     1      31.306 -23.467 -14.970  0.00  0.00    +0.196 C 
ATOM      9  C   UNL     1      33.452 -24.032 -14.613  0.00  0.00    +0.207 C 
ATOM     10  C   UNL     1      29.488 -22.841 -15.880  0.00  0.00    +0.164 C 
ATOM     11  H   UNL     1      30.302 -22.563 -17.804  0.00  0.00    +0.126 HD
ATOM     12  H   UNL     1      34.151 -24.622 -12.810  0.00  0.00    +0.166 HD
ATOM     13  H   UNL     1      29.500 -23.326 -13.868  0.00  0.00    +0.150 HD
ENDROOT
BRANCH   4  14
ATOM     14  C   UNL     1      35.835 -24.733 -13.911  0.00  0.00    +0.059 C 
ATOM     15  C   UNL     1      38.556 -25.256 -14.271  0.00  0.00    +0.122 C 
ATOM     16  C   UNL     1      36.791 -23.979 -13.227  0.00  0.00    +0.017 C 
ATOM     17  C   UNL     1      36.246 -25.751 -14.776  0.00  0.00    +0.017 C 
ATOM     18  C   UNL     1      38.150 -24.240 -13.406  0.00  0.00    +0.021 C 
ATOM     19  C   UNL     1      37.605 -26.011 -14.955  0.00  0.00    +0.021 C 
BRANCH  15  20
ATOM     20  S   UNL     1      40.257 -25.582 -14.496  0.00  0.00    +0.057 S 
ATOM     21  O   UNL     1      41.004 -24.379 -14.157  0.00  0.00    -0.153 OA
ATOM     22  O   UNL     1      40.577 -26.842 -13.838  0.00  0.00    -0.153 OA
BRANCH  20  23
ATOM     23  N   UNL     1      40.323 -25.815 -16.187  0.00  0.00    -0.203 NA
ATOM     24  H   UNL     1      39.427 -25.557 -16.601  0.00  0.00    +0.144 HD
ATOM     25  H   UNL     1      40.520 -26.796 -16.387  0.00  0.00    +0.144 HD
ENDBRANCH  20  23
ENDBRANCH  15  20
ENDBRANCH   4  14
BRANCH   6  26
ATOM     26  O   UNL     1      33.271 -23.163 -18.070  0.00  0.00    -0.453 OA
BRANCH  26  27
ATOM     27  C   UNL     1      34.522 -22.536 -18.286  0.00  0.00    +0.208 C 
BRANCH  27  28
ATOM     28  C   UNL     1      34.440 -21.724 -19.577  0.00  0.00    +0.044 C 
ATOM     29  C   UNL     1      33.142 -20.907 -19.622  0.00  0.00    +0.004 C 
ATOM     30  C   UNL     1      35.666 -20.812 -19.722  0.00  0.00    +0.004 C 
ATOM     31  C   UNL     1      33.061 -20.044 -20.880  0.00  0.00    +0.000 C 
ATOM     32  C   UNL     1      35.581 -19.950 -20.980  0.00  0.00    +0.000 C 
ATOM     33  C   UNL     1      34.285 -19.145 -21.024  0.00  0.00    +0.000 C 
ENDBRANCH  27  28
ENDBRANCH  26  27
ENDBRANCH   6  26
TORSDOF 6
ENDMDL
MODEL 3
REMARK VINA RESULT:     -11.5      3.093      6.793
REMARK  Name = 4566
REMARK  6 active torsions:
REMARK  status: ('A' for Active; 'I' for Inactive)
REMARK    1  A    between atoms: N_4  and  C_14
REMARK    2  A    between atoms: C_6  and  O_26
REMARK    3  A    between atoms: C_15  and  S_20
REMARK    4  A    between atoms: S_20  and  N_23
REMARK    5  A    between atoms: O_26  and  C_27
REMARK    6  A    between atoms: C_27  and  C_28
REMARK                            x       y       z     vdW  Elec       q    Type
REMARK                         _______ _______ _______ _____ _____    ______ ____
ROOT
ATOM      1  N   UNL     1      34.629 -23.388 -15.857  0.00  0.00    -0.293 NA
ATOM      2  N   UNL     1      38.301 -23.528 -15.700  0.00  0.00    -0.266 NA
ATOM      3  N   UNL     1      35.499 -24.653 -13.960  0.00  0.00    -0.316 NA
ATOM      4  N   UNL     1      33.199 -24.403 -14.305  0.00  0.00    -0.238 N 
ATOM      5  N   UNL     1      37.927 -24.739 -13.867  0.00  0.00    -0.296 N 
ATOM      6  C   UNL     1      35.876 -23.108 -16.297  0.00  0.00    +0.288 C 
ATOM      7  C   UNL     1      36.943 -23.599 -15.573  0.00  0.00    +0.215 C 
ATOM      8  C   UNL     1      36.736 -24.356 -14.427  0.00  0.00    +0.196 C 
ATOM      9  C   UNL     1      34.520 -24.134 -14.731  0.00  0.00    +0.207 C 
ATOM     10  C   UNL     1      38.847 -24.226 -14.655  0.00  0.00    +0.164 C 
ATOM     11  H   UNL     1      38.797 -23.061 -16.411  0.00  0.00    +0.126 HD
ATOM     12  H   UNL     1      33.150 -24.945 -13.484  0.00  0.00    +0.166 HD
ATOM     13  H   UNL     1      38.063 -25.279 -13.054  0.00  0.00    +0.150 HD
ENDROOT
BRANCH   4  14
ATOM     14  C   UNL     1      31.941 -24.048 -14.823  0.00  0.00    +0.059 C 
ATOM     15  C   UNL     1      29.441 -23.342 -15.851  0.00  0.00    +0.122 C 
ATOM     16  C   UNL     1      31.849 -23.147 -15.886  0.00  0.00    +0.017 C 
ATOM     17  C   UNL     1      30.777 -24.594 -14.276  0.00  0.00    +0.017 C 
ATOM     18  C   UNL     1      30.601 -22.794 -16.400  0.00  0.00    +0.021 C 
ATOM     19  C   UNL     1      29.529 -24.241 -14.790  0.00  0.00    +0.021 C 
BRANCH  15  20
ATOM     20  S   UNL     1      27.879 -22.899 -16.494  0.00  0.00    +0.057 S 
ATOM     21  O   UNL     1      26.907 -22.942 -15.410  0.00  0.00    -0.153 OA
ATOM     22  O   UNL     1      28.031 -21.684 -17.282  0.00  0.00    -0.153 OA
BRANCH  20  23
ATOM     23  N   UNL     1      27.581 -24.206 -17.554  0.00  0.00    -0.203 NA
ATOM     24  H   UNL     1      27.855 -23.944 -18.501  0.00  0.00    +0.144 HD
ATOM     25  H   UNL     1      26.587 -24.435 -17.539  0.00  0.00    +0.144 HD
ENDBRANCH  20  23
ENDBRANCH  15  20
ENDBRANCH   4  14
BRANCH   6  26
ATOM     26  O   UNL     1      36.022 -22.356 -17.436  0.00  0.00    -0.453 OA
BRANCH  26  27
ATOM     27  C   UNL     1      35.075 -22.560 -18.468  0.00  0.00    +0.208 C 
BRANCH  27  28
ATOM     28  C   UNL     1      34.817 -21.223 -19.159  0.00  0.00    +0.044 C 
ATOM     29  C   UNL     1      35.913 -20.925 -20.191  0.00  0.00    +0.004 C 
ATOM     30  C   UNL     1      33.430 -21.211 -19.816  0.00  0.00    +0.004 C 
ATOM     31  C   UNL     1      35.649 -19.617 -20.934  0.00  0.00    +0.000 C 
ATOM     32  C   UNL     1      33.170 -19.903 -20.560  0.00  0.00    +0.000 C 
ATOM     33  C   UNL     1      34.266 -19.607 -21.579  0.00  0.00    +0.000 C 
ENDBRANCH  27  28
ENDBRANCH  26  27
ENDBRANCH   6  26
TORSDOF 6
ENDMDL
MODEL 4
REMARK VINA RESULT:     -11.3      3.053      6.831
REMARK  Name = 4566
REMARK  6 active torsions:
REMARK  status: ('A' for Active; 'I' for Inactive)
REMARK    1  A    between atoms: N_4  and  C_14
REMARK    2  A    between atoms: C_6  and  O_26
REMARK    3  A    between atoms: C_15  and  S_20
REMARK    4  A    between atoms: S_20  and  N_23
REMARK    5  A    between atoms: O_26  and  C_27
REMARK    6  A    between atoms: C_27  and  C_28
REMARK                            x       y       z     vdW  Elec       q    Type
REMARK                         _______ _______ _______ _____ _____    ______ ____
ROOT
ATOM      1  N   UNL     1      34.617 -23.963 -14.631  0.00  0.00    -0.293 NA
ATOM      2  N   UNL     1      38.163 -24.260 -13.697  0.00  0.00    -0.266 NA
ATOM      3  N   UNL     1      34.989 -24.474 -12.274  0.00  0.00    -0.316 NA
ATOM      4  N   UNL     1      32.830 -24.229 -13.142  0.00  0.00    -0.238 N 
ATOM      5  N   UNL     1      37.335 -24.669 -11.668  0.00  0.00    -0.296 N 
ATOM      6  C   UNL     1      35.946 -23.946 -14.881  0.00  0.00    +0.288 C 
ATOM      7  C   UNL     1      36.804 -24.194 -13.830  0.00  0.00    +0.215 C 
ATOM      8  C   UNL     1      36.314 -24.450 -12.557  0.00  0.00    +0.196 C 
ATOM      9  C   UNL     1      34.227 -24.222 -13.360  0.00  0.00    +0.207 C 
ATOM     10  C   UNL     1      38.432 -24.547 -12.384  0.00  0.00    +0.164 C 
ATOM     11  H   UNL     1      38.826 -24.126 -14.412  0.00  0.00    +0.126 HD
ATOM     12  H   UNL     1      32.576 -24.420 -12.210  0.00  0.00    +0.166 HD
ATOM     13  H   UNL     1      37.263 -24.871 -10.707  0.00  0.00    +0.150 HD
ENDROOT
BRANCH   4  14
ATOM     14  C   UNL     1      31.733 -24.018 -13.996  0.00  0.00    +0.059 C 
ATOM     15  C   UNL     1      29.551 -23.599 -15.690  0.00  0.00    +0.122 C 
ATOM     16  C   UNL     1      31.497 -22.752 -14.536  0.00  0.00    +0.017 C 
ATOM     17  C   UNL     1      30.872 -25.074 -14.307  0.00  0.00    +0.017 C 
ATOM     18  C   UNL     1      30.408 -22.542 -15.382  0.00  0.00    +0.021 C 
ATOM     19  C   UNL     1      29.784 -24.864 -15.153  0.00  0.00    +0.021 C 
BRANCH  15  20
ATOM     20  S   UNL     1      28.188 -23.336 -16.749  0.00  0.00    +0.057 S 
ATOM     21  O   UNL     1      28.490 -22.205 -17.615  0.00  0.00    -0.153 OA
ATOM     22  O   UNL     1      27.805 -24.614 -17.334  0.00  0.00    -0.153 OA
BRANCH  20  23
ATOM     23  N   UNL     1      26.989 -22.867 -15.626  0.00  0.00    -0.203 NA
ATOM     24  H   UNL     1      27.303 -22.039 -15.120  0.00  0.00    +0.144 HD
ATOM     25  H   UNL     1      26.826 -23.628 -14.965  0.00  0.00    +0.144 HD
ENDBRANCH  20  23
ENDBRANCH  15  20
ENDBRANCH   4  14
BRANCH   6  26
ATOM     26  O   UNL     1      36.376 -23.688 -16.159  0.00  0.00    -0.453 OA
BRANCH  26  27
ATOM     27  C   UNL     1      36.373 -22.336 -16.578  0.00  0.00    +0.208 C 
BRANCH  27  28
ATOM     28  C   UNL     1      35.820 -22.271 -18.000  0.00  0.00    +0.044 C 
ATOM     29  C   UNL     1      34.289 -22.163 -17.982  0.00  0.00    +0.004 C 
ATOM     30  C   UNL     1      36.442 -21.098 -18.770  0.00  0.00    +0.004 C 
ATOM     31  C   UNL     1      33.715 -22.043 -19.392  0.00  0.00    +0.000 C 
ATOM     32  C   UNL     1      35.864 -20.980 -20.179  0.00  0.00    +0.000 C 
ATOM     33  C   UNL     1      34.341 -20.881 -20.157  0.00  0.00    +0.000 C 
ENDBRANCH  27  28
ENDBRANCH  26  27
ENDBRANCH   6  26
TORSDOF 6
ENDMDL
MODEL 5
REMARK VINA RESULT:     -10.3      3.576      7.585
REMARK  Name = 4566
REMARK  6 active torsions:
REMARK  status: ('A' for Active; 'I' for Inactive)
REMARK    1  A    between atoms: N_4  and  C_14
REMARK    2  A    between atoms: C_6  and  O_26
REMARK    3  A    between atoms: C_15  and  S_20
REMARK    4  A    between atoms: S_20  and  N_23
REMARK    5  A    between atoms: O_26  and  C_27
REMARK    6  A    between atoms: C_27  and  C_28
REMARK                            x       y       z     vdW  Elec       q    Type
REMARK                         _______ _______ _______ _____ _____    ______ ____
ROOT
ATOM      1  N   UNL     1      35.530 -23.413 -15.995  0.00  0.00    -0.293 NA
ATOM      2  N   UNL     1      36.060 -25.490 -13.006  0.00  0.00    -0.266 NA
ATOM      3  N   UNL     1      37.859 -23.561 -15.283  0.00  0.00    -0.316 NA
ATOM      4  N   UNL     1      37.236 -22.306 -17.156  0.00  0.00    -0.238 N 
ATOM      5  N   UNL     1      38.197 -24.936 -13.306  0.00  0.00    -0.296 N 
ATOM      6  C   UNL     1      35.125 -24.210 -14.981  0.00  0.00    +0.288 C 
ATOM      7  C   UNL     1      36.083 -24.687 -14.111  0.00  0.00    +0.215 C 
ATOM      8  C   UNL     1      37.421 -24.357 -14.278  0.00  0.00    +0.196 C 
ATOM      9  C   UNL     1      36.854 -23.142 -16.082  0.00  0.00    +0.207 C 
ATOM     10  C   UNL     1      37.350 -25.609 -12.559  0.00  0.00    +0.164 C 
ATOM     11  H   UNL     1      35.263 -25.906 -12.604  0.00  0.00    +0.126 HD
ATOM     12  H   UNL     1      38.203 -22.126 -17.194  0.00  0.00    +0.166 HD
ATOM     13  H   UNL     1      39.173 -24.863 -13.194  0.00  0.00    +0.150 HD
ENDROOT
BRANCH   4  14
ATOM     14  C   UNL     1      36.503 -21.680 -18.180  0.00  0.00    +0.059 C 
ATOM     15  C   UNL     1      35.051 -20.437 -20.218  0.00  0.00    +0.122 C 
ATOM     16  C   UNL     1      35.175 -22.041 -18.416  0.00  0.00    +0.017 C 
ATOM     17  C   UNL     1      37.103 -20.694 -18.969  0.00  0.00    +0.017 C 
ATOM     18  C   UNL     1      34.449 -21.421 -19.433  0.00  0.00    +0.021 C 
ATOM     19  C   UNL     1      36.376 -20.074 -19.986  0.00  0.00    +0.021 C 
BRANCH  15  20
ATOM     20  S   UNL     1      34.142 -19.661 -21.491  0.00  0.00    +0.057 S 
ATOM     21  O   UNL     1      34.817 -19.913 -22.757  0.00  0.00    -0.153 OA
ATOM     22  O   UNL     1      32.738 -20.015 -21.338  0.00  0.00    -0.153 OA
BRANCH  20  23
ATOM     23  N   UNL     1      34.341 -18.016 -21.077  0.00  0.00    -0.203 NA
ATOM     24  H   UNL     1      35.196 -17.903 -20.533  0.00  0.00    +0.144 HD
ATOM     25  H   UNL     1      33.543 -17.706 -20.523  0.00  0.00    +0.144 HD
ENDBRANCH  20  23
ENDBRANCH  15  20
ENDBRANCH   4  14
BRANCH   6  26
ATOM     26  O   UNL     1      33.789 -24.504 -14.864  0.00  0.00    -0.453 OA
BRANCH  26  27
ATOM     27  C   UNL     1      33.076 -23.856 -13.827  0.00  0.00    +0.208 C 
BRANCH  27  28
ATOM     28  C   UNL     1      31.625 -23.684 -14.271  0.00  0.00    +0.044 C 
ATOM     29  C   UNL     1      31.557 -23.141 -15.704  0.00  0.00    +0.004 C 
ATOM     30  C   UNL     1      30.861 -25.010 -14.151  0.00  0.00    +0.004 C 
ATOM     31  C   UNL     1      30.115 -23.011 -16.191  0.00  0.00    +0.000 C 
ATOM     32  C   UNL     1      29.420 -24.876 -14.640  0.00  0.00    +0.000 C 
ATOM     33  C   UNL     1      29.357 -24.328 -16.063  0.00  0.00    +0.000 C 
ENDBRANCH  27  28
ENDBRANCH  26  27
ENDBRANCH   6  26
TORSDOF 6
ENDMDL
MODEL 6
REMARK VINA RESULT:      -9.5      5.530      8.005
REMARK  Name = 4566
REMARK  6 active torsions:
REMARK  status: ('A' for Active; 'I' for Inactive)
REMARK    1  A    between atoms: N_4  and  C_14
REMARK    2  A    between atoms: C_6  and  O_26
REMARK    3  A    between atoms: C_15  and  S_20
REMARK    4  A    between atoms: S_20  and  N_23
REMARK    5  A    between atoms: O_26  and  C_27
REMARK    6  A    between atoms: C_27  and  C_28
REMARK                            x       y       z     vdW  Elec       q    Type
REMARK                         _______ _______ _______ _____ _____    ______ ____
ROOT
ATOM      1  N   UNL     1      34.967 -18.542 -21.021  0.00  0.00    -0.293 NA
ATOM      2  N   UNL     1      34.452 -16.118 -23.738  0.00  0.00    -0.266 NA
ATOM      3  N   UNL     1      35.063 -19.514 -23.256  0.00  0.00    -0.316 NA
ATOM      4  N   UNL     1      35.356 -20.828 -21.344  0.00  0.00    -0.238 N 
ATOM      5  N   UNL     1      34.721 -17.903 -25.045  0.00  0.00    -0.296 N 
ATOM      6  C   UNL     1      34.735 -17.308 -21.521  0.00  0.00    +0.288 C 
ATOM      7  C   UNL     1      34.664 -17.169 -22.892  0.00  0.00    +0.215 C 
ATOM      8  C   UNL     1      34.829 -18.266 -23.727  0.00  0.00    +0.196 C 
ATOM      9  C   UNL     1      35.115 -19.555 -21.908  0.00  0.00    +0.207 C 
ATOM     10  C   UNL     1      34.495 -16.607 -25.018  0.00  0.00    +0.164 C 
ATOM     11  H   UNL     1      34.297 -15.181 -23.478  0.00  0.00    +0.126 HD
ATOM     12  H   UNL     1      35.461 -21.545 -22.012  0.00  0.00    +0.166 HD
ATOM     13  H   UNL     1      34.797 -18.484 -25.836  0.00  0.00    +0.150 HD
ENDROOT
BRANCH   4  14
ATOM     14  C   UNL     1      35.478 -21.272 -20.015  0.00  0.00    +0.059 C 
ATOM     15  C   UNL     1      35.720 -22.152 -17.374  0.00  0.00    +0.122 C 
ATOM     16  C   UNL     1      34.408 -21.915 -19.389  0.00  0.00    +0.017 C 
ATOM     17  C   UNL     1      36.671 -21.071 -19.314  0.00  0.00    +0.017 C 
ATOM     18  C   UNL     1      34.528 -22.354 -18.070  0.00  0.00    +0.021 C 
ATOM     19  C   UNL     1      36.791 -21.511 -17.996  0.00  0.00    +0.021 C 
BRANCH  15  20
ATOM     20  S   UNL     1      35.871 -22.702 -15.723  0.00  0.00    +0.057 S 
ATOM     21  O   UNL     1      37.072 -22.111 -15.150  0.00  0.00    -0.153 OA
ATOM     22  O   UNL     1      34.588 -22.523 -15.058  0.00  0.00    -0.153 OA
BRANCH  20  23
ATOM     23  N   UNL     1      36.136 -24.373 -15.960  0.00  0.00    -0.203 NA
ATOM     24  H   UNL     1      36.322 -24.551 -16.947  0.00  0.00    +0.144 HD
ATOM     25  H   UNL     1      35.307 -24.893 -15.671  0.00  0.00    +0.144 HD
ENDBRANCH  20  23
ENDBRANCH  15  20
ENDBRANCH   4  14
BRANCH   6  26
ATOM     26  O   UNL     1      34.579 -16.259 -20.649  0.00  0.00    -0.453 OA
BRANCH  26  27
ATOM     27  C   UNL     1      33.257 -15.818 -20.403  0.00  0.00    +0.208 C 
BRANCH  27  28
ATOM     28  C   UNL     1      33.141 -14.363 -20.854  0.00  0.00    +0.044 C 
ATOM     29  C   UNL     1      32.565 -14.279 -22.274  0.00  0.00    +0.004 C 
ATOM     30  C   UNL     1      32.285 -13.557 -19.868  0.00  0.00    +0.004 C 
ATOM     31  C   UNL     1      32.389 -12.831 -22.727  0.00  0.00    +0.000 C 
ATOM     32  C   UNL     1      32.110 -12.110 -20.326  0.00  0.00    +0.000 C 
ATOM     33  C   UNL     1      31.544 -12.031 -21.740  0.00  0.00    +0.000 C 
ENDBRANCH  27  28
ENDBRANCH  26  27
ENDBRANCH   6  26
TORSDOF 6
ENDMDL
MODEL 7
REMARK VINA RESULT:      -9.5      2.927      6.846
REMARK  Name = 4566
REMARK  6 active torsions:
REMARK  status: ('A' for Active; 'I' for Inactive)
REMARK    1  A    between atoms: N_4  and  C_14
REMARK    2  A    between atoms: C_6  and  O_26
REMARK    3  A    between atoms: C_15  and  S_20
REMARK    4  A    between atoms: S_20  and  N_23
REMARK    5  A    between atoms: O_26  and  C_27
REMARK    6  A    between atoms: C_27  and  C_28
REMARK                            x       y       z     vdW  Elec       q    Type
REMARK                         _______ _______ _______ _____ _____    ______ ____
ROOT
ATOM      1  N   UNL     1      35.572 -24.054 -14.842  0.00  0.00    -0.293 NA
ATOM      2  N   UNL     1      39.179 -24.705 -14.542  0.00  0.00    -0.266 NA
ATOM      3  N   UNL     1      36.193 -25.333 -12.860  0.00  0.00    -0.316 NA
ATOM      4  N   UNL     1      33.964 -24.776 -13.301  0.00  0.00    -0.238 N 
ATOM      5  N   UNL     1      38.579 -25.758 -12.672  0.00  0.00    -0.296 N 
ATOM      6  C   UNL     1      36.859 -23.976 -15.247  0.00  0.00    +0.288 C 
ATOM      7  C   UNL     1      37.821 -24.576 -14.463  0.00  0.00    +0.215 C 
ATOM      8  C   UNL     1      37.473 -25.238 -13.293  0.00  0.00    +0.196 C 
ATOM      9  C   UNL     1      35.322 -24.719 -13.689  0.00  0.00    +0.207 C 
ATOM     10  C   UNL     1      39.587 -25.421 -13.447  0.00  0.00    +0.164 C 
ATOM     11  H   UNL     1      39.758 -24.350 -15.254  0.00  0.00    +0.126 HD
ATOM     12  H   UNL     1      33.813 -25.264 -12.459  0.00  0.00    +0.166 HD
ATOM     13  H   UNL     1      38.612 -26.270 -11.831  0.00  0.00    +0.150 HD
ENDROOT
BRANCH   4  14
ATOM     14  C   UNL     1      32.787 -24.272 -13.882  0.00  0.00    +0.059 C 
ATOM     15  C   UNL     1      30.448 -23.268 -15.035  0.00  0.00    +0.122 C 
ATOM     16  C   UNL     1      32.289 -24.833 -15.060  0.00  0.00    +0.017 C 
ATOM     17  C   UNL     1      32.109 -23.207 -13.282  0.00  0.00    +0.017 C 
ATOM     18  C   UNL     1      31.122 -24.332 -15.637  0.00  0.00    +0.021 C 
ATOM     19  C   UNL     1      30.942 -22.706 -13.859  0.00  0.00    +0.021 C 
BRANCH  15  20
ATOM     20  S   UNL     1      28.987 -22.641 -15.757  0.00  0.00    +0.057 S 
ATOM     21  O   UNL     1      28.380 -21.702 -14.825  0.00  0.00    -0.153 OA
ATOM     22  O   UNL     1      29.290 -22.216 -17.117  0.00  0.00    -0.153 OA
BRANCH  20  23
ATOM     23  N   UNL     1      28.026 -24.052 -15.825  0.00  0.00    -0.203 NA
ATOM     24  H   UNL     1      27.962 -24.465 -14.895  0.00  0.00    +0.144 HD
ATOM     25  H   UNL     1      28.452 -24.722 -16.466  0.00  0.00    +0.144 HD
ENDBRANCH  20  23
ENDBRANCH  15  20
ENDBRANCH   4  14
BRANCH   6  26
ATOM     26  O   UNL     1      37.146 -23.310 -16.413  0.00  0.00    -0.453 OA
BRANCH  26  27
ATOM     27  C   UNL     1      36.933 -21.911 -16.425  0.00  0.00    +0.208 C 
BRANCH  27  28
ATOM     28  C   UNL     1      35.921 -21.585 -17.521  0.00  0.00    +0.044 C 
ATOM     29  C   UNL     1      36.613 -21.483 -18.887  0.00  0.00    +0.004 C 
ATOM     30  C   UNL     1      34.800 -22.633 -17.553  0.00  0.00    +0.004 C 
ATOM     31  C   UNL     1      35.613 -21.210 -20.008  0.00  0.00    +0.000 C 
ATOM     32  C   UNL     1      33.803 -22.357 -18.677  0.00  0.00    +0.000 C 
ATOM     33  C   UNL     1      34.497 -22.250 -20.031  0.00  0.00    +0.000 C 
ENDBRANCH  27  28
ENDBRANCH  26  27
ENDBRANCH   6  26
TORSDOF 6
ENDMDL
MODEL 8
REMARK VINA RESULT:      -9.1      7.854     11.067
REMARK  Name = 4566
REMARK  6 active torsions:
REMARK  status: ('A' for Active; 'I' for Inactive)
REMARK    1  A    between atoms: N_4  and  C_14
REMARK    2  A    between atoms: C_6  and  O_26
REMARK    3  A    between atoms: C_15  and  S_20
REMARK    4  A    between atoms: S_20  and  N_23
REMARK    5  A    between atoms: O_26  and  C_27
REMARK    6  A    between atoms: C_27  and  C_28
REMARK                            x       y       z     vdW  Elec       q    Type
REMARK                         _______ _______ _______ _____ _____    ______ ____
ROOT
ATOM      1  N   UNL     1      34.157 -15.618 -23.530  0.00  0.00    -0.293 NA
ATOM      2  N   UNL     1      33.064 -12.707 -25.494  0.00  0.00    -0.266 NA
ATOM      3  N   UNL     1      34.100 -16.004 -25.938  0.00  0.00    -0.316 NA
ATOM      4  N   UNL     1      34.757 -17.685 -24.451  0.00  0.00    -0.238 N 
ATOM      5  N   UNL     1      33.375 -14.073 -27.226  0.00  0.00    -0.296 N 
ATOM      6  C   UNL     1      33.733 -14.344 -23.681  0.00  0.00    +0.288 C 
ATOM      7  C   UNL     1      33.488 -13.891 -24.961  0.00  0.00    +0.215 C 
ATOM      8  C   UNL     1      33.675 -14.723 -26.056  0.00  0.00    +0.196 C 
ATOM      9  C   UNL     1      34.312 -16.359 -24.653  0.00  0.00    +0.207 C 
ATOM     10  C   UNL     1      33.011 -12.865 -26.854  0.00  0.00    +0.164 C 
ATOM     11  H   UNL     1      32.838 -11.890 -24.993  0.00  0.00    +0.126 HD
ATOM     12  H   UNL     1      34.862 -18.200 -25.284  0.00  0.00    +0.166 HD
ATOM     13  H   UNL     1      33.422 -14.432 -28.142  0.00  0.00    +0.150 HD
ENDROOT
BRANCH   4  14
ATOM     14  C   UNL     1      35.081 -18.414 -23.293  0.00  0.00    +0.059 C 
ATOM     15  C   UNL     1      35.723 -19.864 -20.992  0.00  0.00    +0.122 C 
ATOM     16  C   UNL     1      36.328 -18.250 -22.686  0.00  0.00    +0.017 C 
ATOM     17  C   UNL     1      34.156 -19.306 -22.744  0.00  0.00    +0.017 C 
ATOM     18  C   UNL     1      36.649 -18.974 -21.537  0.00  0.00    +0.021 C 
ATOM     19  C   UNL     1      34.477 -20.030 -21.595  0.00  0.00    +0.021 C 
BRANCH  15  20
ATOM     20  S   UNL     1      36.125 -20.770 -19.554  0.00  0.00    +0.057 S 
ATOM     21  O   UNL     1      37.004 -19.954 -18.728  0.00  0.00    -0.153 OA
ATOM     22  O   UNL     1      34.896 -21.310 -18.990  0.00  0.00    -0.153 OA
BRANCH  20  23
ATOM     23  N   UNL     1      37.032 -22.055 -20.222  0.00  0.00    -0.203 NA
ATOM     24  H   UNL     1      37.174 -21.889 -21.219  0.00  0.00    +0.144 HD
ATOM     25  H   UNL     1      36.525 -22.931 -20.093  0.00  0.00    +0.144 HD
ENDBRANCH  20  23
ENDBRANCH  15  20
ENDBRANCH   4  14
BRANCH   6  26
ATOM     26  O   UNL     1      33.564 -13.565 -22.562  0.00  0.00    -0.453 OA
BRANCH  26  27
ATOM     27  C   UNL     1      32.415 -13.812 -21.774  0.00  0.00    +0.208 C 
BRANCH  27  28
ATOM     28  C   UNL     1      31.726 -12.477 -21.492  0.00  0.00    +0.044 C 
ATOM     29  C   UNL     1      31.892 -12.081 -20.019  0.00  0.00    +0.004 C 
ATOM     30  C   UNL     1      32.271 -11.381 -22.418  0.00  0.00    +0.004 C 
ATOM     31  C   UNL     1      31.258 -10.724 -19.725  0.00  0.00    +0.000 C 
ATOM     32  C   UNL     1      31.635 -10.024 -22.119  0.00  0.00    +0.000 C 
ATOM     33  C   UNL     1      31.796  -9.639 -20.652  0.00  0.00    +0.000 C 
ENDBRANCH  27  28
ENDBRANCH  26  27
ENDBRANCH   6  26
TORSDOF 6
ENDMDL
