MODEL 1
REMARK VINA RESULT:      -6.5      0.000      0.000
REMARK  Name = 9661
REMARK  4 active torsions:
REMARK  status: ('A' for Active; 'I' for Inactive)
REMARK    1  A    between atoms: C_1  and  O_7
REMARK    2  A    between atoms: C_1  and  C_13
REMARK    3  A    between atoms: O_7  and  C_10
REMARK    4  A    between atoms: C_13  and  C_14
REMARK                            x       y       z     vdW  Elec       q    Type
REMARK                         _______ _______ _______ _____ _____    ______ ____
ROOT
ATOM      1  C   UNL     1      35.274 -18.056 -21.745  0.00  0.00    +0.149 C 
ATOM      2  C   UNL     1      36.638 -18.747 -21.601  0.00  0.00    +0.041 C 
ATOM      3  C   UNL     1      34.133 -19.087 -21.735  0.00  0.00    +0.041 C 
ATOM      4  C   UNL     1      36.696 -19.674 -20.384  0.00  0.00    +0.004 C 
ATOM      5  C   UNL     1      34.198 -20.010 -20.517  0.00  0.00    +0.004 C 
ATOM      6  C   UNL     1      35.558 -20.689 -20.398  0.00  0.00    +0.000 C 
ENDROOT
BRANCH   1   7
ATOM      7  O   UNL     1      35.110 -17.169 -20.634  0.00  0.00    -0.441 OA
BRANCH   7  10
ATOM      8  O   UNL     1      32.979 -16.373 -20.985  0.00  0.00    -0.227 OA
ATOM      9  N   UNL     1      34.762 -14.948 -20.705  0.00  0.00    -0.295 N 
ATOM     10  C   UNL     1      34.176 -16.187 -20.792  0.00  0.00    +0.398 C 
ATOM     11  H   UNL     1      35.732 -14.873 -20.547  0.00  0.00    +0.148 HD
ATOM     12  H   UNL     1      34.214 -14.136 -20.798  0.00  0.00    +0.148 HD
ENDBRANCH   7  10
ENDBRANCH   1   7
BRANCH   1  13
ATOM     13  C   UNL     1      35.233 -17.216 -23.023  0.00  0.00    +0.117 C 
BRANCH  13  14
ATOM     14  C   UNL     1      34.765 -18.014 -24.158  0.00  0.00    -0.074 C 
ATOM     15  C   UNL     1      34.379 -18.677 -25.081  0.00  0.00    -0.014 C 
ENDBRANCH  13  14
ENDBRANCH   1  13
TORSDOF 4
ENDMDL
MODEL 2
REMARK VINA RESULT:      -5.9      8.852     10.683
REMARK  Name = 9661
REMARK  4 active torsions:
REMARK  status: ('A' for Active; 'I' for Inactive)
REMARK    1  A    between atoms: C_1  and  O_7
REMARK    2  A    between atoms: C_1  and  C_13
REMARK    3  A    between atoms: O_7  and  C_10
REMARK    4  A    between atoms: C_13  and  C_14
REMARK                            x       y       z     vdW  Elec       q    Type
REMARK                         _______ _______ _______ _____ _____    ______ ____
ROOT
ATOM      1  C   UNL     1      32.629  -7.916 -22.682  0.00  0.00    +0.149 C 
ATOM      2  C   UNL     1      33.701  -7.052 -23.364  0.00  0.00    +0.041 C 
ATOM      3  C   UNL     1      32.391  -9.216 -23.467  0.00  0.00    +0.041 C 
ATOM      4  C   UNL     1      34.995  -7.827 -23.621  0.00  0.00    +0.004 C 
ATOM      5  C   UNL     1      33.690  -9.984 -23.722  0.00  0.00    +0.004 C 
ATOM      6  C   UNL     1      34.735  -9.110 -24.405  0.00  0.00    +0.000 C 
ENDROOT
BRANCH   1   7
ATOM      7  O   UNL     1      33.096  -8.244 -21.369  0.00  0.00    -0.441 OA
BRANCH   7  10
ATOM      8  O   UNL     1      31.542  -9.812 -20.718  0.00  0.00    -0.227 OA
ATOM      9  N   UNL     1      32.020  -7.981 -19.412  0.00  0.00    -0.295 N 
ATOM     10  C   UNL     1      32.166  -8.774 -20.524  0.00  0.00    +0.398 C 
ATOM     11  H   UNL     1      32.556  -7.159 -19.321  0.00  0.00    +0.148 HD
ATOM     12  H   UNL     1      31.382  -8.233 -18.707  0.00  0.00    +0.148 HD
ENDBRANCH   7  10
ENDBRANCH   1   7
BRANCH   1  13
ATOM     13  C   UNL     1      31.326  -7.129 -22.530  0.00  0.00    +0.117 C 
BRANCH  13  14
ATOM     14  C   UNL     1      31.164  -6.171 -23.625  0.00  0.00    -0.074 C 
ATOM     15  C   UNL     1      31.019  -5.383 -24.519  0.00  0.00    -0.014 C 
ENDBRANCH  13  14
ENDBRANCH   1  13
TORSDOF 4
ENDMDL
MODEL 3
REMARK VINA RESULT:      -5.9      8.480     10.607
REMARK  Name = 9661
REMARK  4 active torsions:
REMARK  status: ('A' for Active; 'I' for Inactive)
REMARK    1  A    between atoms: C_1  and  O_7
REMARK    2  A    between atoms: C_1  and  C_13
REMARK    3  A    between atoms: O_7  and  C_10
REMARK    4  A    between atoms: C_13  and  C_14
REMARK                            x       y       z     vdW  Elec       q    Type
REMARK                         _______ _______ _______ _____ _____    ______ ____
ROOT
ATOM      1  C   UNL     1      37.316 -23.990 -14.084  0.00  0.00    +0.149 C 
ATOM      2  C   UNL     1      35.842 -24.363 -14.308  0.00  0.00    +0.041 C 
ATOM      3  C   UNL     1      37.973 -23.536 -15.399  0.00  0.00    +0.041 C 
ATOM      4  C   UNL     1      35.059 -23.245 -15.001  0.00  0.00    +0.004 C 
ATOM      5  C   UNL     1      37.183 -22.420 -16.085  0.00  0.00    +0.004 C 
ATOM      6  C   UNL     1      35.727 -22.815 -16.303  0.00  0.00    +0.000 C 
ENDROOT
BRANCH   1   7
ATOM      7  O   UNL     1      37.360 -22.911 -13.145  0.00  0.00    -0.441 OA
BRANCH   7  10
ATOM      8  O   UNL     1      39.037 -23.217 -11.599  0.00  0.00    -0.227 OA
ATOM      9  N   UNL     1      36.827 -23.538 -11.052  0.00  0.00    -0.295 N 
ATOM     10  C   UNL     1      37.851 -23.220 -11.910  0.00  0.00    +0.398 C 
ATOM     11  H   UNL     1      35.895 -23.519 -11.370  0.00  0.00    +0.148 HD
ATOM     12  H   UNL     1      37.024 -23.783 -10.120  0.00  0.00    +0.148 HD
ENDBRANCH   7  10
ENDBRANCH   1   7
BRANCH   1  13
ATOM     13  C   UNL     1      38.078 -25.169 -13.477  0.00  0.00    +0.117 C 
BRANCH  13  14
ATOM     14  C   UNL     1      39.298 -25.450 -14.237  0.00  0.00    -0.074 C 
ATOM     15  C   UNL     1      40.302 -25.688 -14.851  0.00  0.00    -0.014 C 
ENDBRANCH  13  14
ENDBRANCH   1  13
TORSDOF 4
ENDMDL
MODEL 4
REMARK VINA RESULT:      -5.9      2.045      4.206
REMARK  Name = 9661
REMARK  4 active torsions:
REMARK  status: ('A' for Active; 'I' for Inactive)
REMARK    1  A    between atoms: C_1  and  O_7
REMARK    2  A    between atoms: C_1  and  C_13
REMARK    3  A    between atoms: O_7  and  C_10
REMARK    4  A    between atoms: C_13  and  C_14
REMARK                            x       y       z     vdW  Elec       q    Type
REMARK                         _______ _______ _______ _____ _____    ______ ____
ROOT
ATOM      1  C   UNL     1      34.406 -17.989 -21.685  0.00  0.00    +0.149 C 
ATOM      2  C   UNL     1      33.218 -17.295 -21.001  0.00  0.00    +0.041 C 
ATOM      3  C   UNL     1      34.772 -17.280 -22.999  0.00  0.00    +0.041 C 
ATOM      4  C   UNL     1      33.452 -15.794 -20.812  0.00  0.00    +0.004 C 
ATOM      5  C   UNL     1      35.003 -15.780 -22.803  0.00  0.00    +0.004 C 
ATOM      6  C   UNL     1      33.811 -15.112 -22.129  0.00  0.00    +0.000 C 
ENDROOT
BRANCH   1   7
ATOM      7  O   UNL     1      35.525 -17.928 -20.795  0.00  0.00    -0.441 OA
BRANCH   7  10
ATOM      8  O   UNL     1      37.278 -18.642 -22.105  0.00  0.00    -0.227 OA
ATOM      9  N   UNL     1      36.740 -19.703 -20.138  0.00  0.00    -0.295 N 
ATOM     10  C   UNL     1      36.574 -18.743 -21.106  0.00  0.00    +0.398 C 
ATOM     11  H   UNL     1      36.137 -19.725 -19.359  0.00  0.00    +0.148 HD
ATOM     12  H   UNL     1      37.461 -20.367 -20.221  0.00  0.00    +0.148 HD
ENDBRANCH   7  10
ENDBRANCH   1   7
BRANCH   1  13
ATOM     13  C   UNL     1      34.089 -19.464 -21.936  0.00  0.00    +0.117 C 
BRANCH  13  14
ATOM     14  C   UNL     1      33.393 -20.052 -20.790  0.00  0.00    -0.074 C 
ATOM     15  C   UNL     1      32.829 -20.527 -19.842  0.00  0.00    -0.014 C 
ENDBRANCH  13  14
ENDBRANCH   1  13
TORSDOF 4
ENDMDL
MODEL 5
REMARK VINA RESULT:      -5.9      2.305      3.501
REMARK  Name = 9661
REMARK  4 active torsions:
REMARK  status: ('A' for Active; 'I' for Inactive)
REMARK    1  A    between atoms: C_1  and  O_7
REMARK    2  A    between atoms: C_1  and  C_13
REMARK    3  A    between atoms: O_7  and  C_10
REMARK    4  A    between atoms: C_13  and  C_14
REMARK                            x       y       z     vdW  Elec       q    Type
REMARK                         _______ _______ _______ _____ _____    ______ ____
ROOT
ATOM      1  C   UNL     1      35.132 -18.319 -21.987  0.00  0.00    +0.149 C 
ATOM      2  C   UNL     1      33.727 -18.579 -21.425  0.00  0.00    +0.041 C 
ATOM      3  C   UNL     1      36.214 -18.824 -21.018  0.00  0.00    +0.041 C 
ATOM      4  C   UNL     1      33.522 -20.044 -21.029  0.00  0.00    +0.004 C 
ATOM      5  C   UNL     1      36.001 -20.288 -20.627  0.00  0.00    +0.004 C 
ATOM      6  C   UNL     1      34.603 -20.522 -20.065  0.00  0.00    +0.000 C 
ENDROOT
BRANCH   1   7
ATOM      7  O   UNL     1      35.250 -19.025 -23.226  0.00  0.00    -0.441 OA
BRANCH   7  10
ATOM      8  O   UNL     1      35.159 -17.279 -24.723  0.00  0.00    -0.227 OA
ATOM      9  N   UNL     1      33.799 -19.119 -24.942  0.00  0.00    -0.295 N 
ATOM     10  C   UNL     1      34.775 -18.374 -24.327  0.00  0.00    +0.398 C 
ATOM     11  H   UNL     1      33.539 -19.994 -24.569  0.00  0.00    +0.148 HD
ATOM     12  H   UNL     1      33.359 -18.781 -25.754  0.00  0.00    +0.148 HD
ENDBRANCH   7  10
ENDBRANCH   1   7
BRANCH   1  13
ATOM     13  C   UNL     1      35.322 -16.829 -22.280  0.00  0.00    +0.117 C 
BRANCH  13  14
ATOM     14  C   UNL     1      34.745 -16.009 -21.213  0.00  0.00    -0.074 C 
ATOM     15  C   UNL     1      34.276 -15.327 -20.344  0.00  0.00    -0.014 C 
ENDBRANCH  13  14
ENDBRANCH   1  13
TORSDOF 4
ENDMDL
MODEL 6
REMARK VINA RESULT:      -5.8      9.080     10.974
REMARK  Name = 9661
REMARK  4 active torsions:
REMARK  status: ('A' for Active; 'I' for Inactive)
REMARK    1  A    between atoms: C_1  and  O_7
REMARK    2  A    between atoms: C_1  and  C_13
REMARK    3  A    between atoms: O_7  and  C_10
REMARK    4  A    between atoms: C_13  and  C_14
REMARK                            x       y       z     vdW  Elec       q    Type
REMARK                         _______ _______ _______ _____ _____    ______ ____
ROOT
ATOM      1  C   UNL     1      36.496 -24.540 -13.865  0.00  0.00    +0.149 C 
ATOM      2  C   UNL     1      35.331 -23.978 -13.038  0.00  0.00    +0.041 C 
ATOM      3  C   UNL     1      37.828 -23.898 -13.444  0.00  0.00    +0.041 C 
ATOM      4  C   UNL     1      35.583 -24.084 -11.532  0.00  0.00    +0.004 C 
ATOM      5  C   UNL     1      38.072 -24.006 -11.938  0.00  0.00    +0.004 C 
ATOM      6  C   UNL     1      36.906 -23.437 -11.138  0.00  0.00    +0.000 C 
ENDROOT
BRANCH   1   7
ATOM      7  O   UNL     1      36.564 -25.950 -13.630  0.00  0.00    -0.441 OA
BRANCH   7  10
ATOM      8  O   UNL     1      38.402 -26.864 -14.674  0.00  0.00    -0.227 OA
ATOM      9  N   UNL     1      36.274 -27.197 -15.480  0.00  0.00    -0.295 N 
ATOM     10  C   UNL     1      37.191 -26.683 -14.596  0.00  0.00    +0.398 C 
ATOM     11  H   UNL     1      35.314 -27.011 -15.356  0.00  0.00    +0.148 HD
ATOM     12  H   UNL     1      36.575 -27.751 -16.235  0.00  0.00    +0.148 HD
ENDBRANCH   7  10
ENDBRANCH   1   7
BRANCH   1  13
ATOM     13  C   UNL     1      36.241 -24.328 -15.359  0.00  0.00    +0.117 C 
BRANCH  13  14
ATOM     14  C   UNL     1      36.829 -23.067 -15.816  0.00  0.00    -0.074 C 
ATOM     15  C   UNL     1      37.311 -22.037 -16.201  0.00  0.00    -0.014 C 
ENDBRANCH  13  14
ENDBRANCH   1  13
TORSDOF 4
ENDMDL
MODEL 7
REMARK VINA RESULT:      -5.7      8.544     10.951
REMARK  Name = 9661
REMARK  4 active torsions:
REMARK  status: ('A' for Active; 'I' for Inactive)
REMARK    1  A    between atoms: C_1  and  O_7
REMARK    2  A    between atoms: C_1  and  C_13
REMARK    3  A    between atoms: O_7  and  C_10
REMARK    4  A    between atoms: C_13  and  C_14
REMARK                            x       y       z     vdW  Elec       q    Type
REMARK                         _______ _______ _______ _____ _____    ______ ____
ROOT
ATOM      1  C   UNL     1      32.679  -8.318 -23.077  0.00  0.00    +0.149 C 
ATOM      2  C   UNL     1      34.044  -7.620 -23.172  0.00  0.00    +0.041 C 
ATOM      3  C   UNL     1      31.537  -7.329 -23.362  0.00  0.00    +0.041 C 
ATOM      4  C   UNL     1      34.228  -6.880 -24.499  0.00  0.00    +0.004 C 
ATOM      5  C   UNL     1      31.728  -6.592 -24.689  0.00  0.00    +0.004 C 
ATOM      6  C   UNL     1      33.086  -5.903 -24.759  0.00  0.00    +0.000 C 
ENDROOT
BRANCH   1   7
ATOM      7  O   UNL     1      32.647  -9.361 -24.055  0.00  0.00    -0.441 OA
BRANCH   7  10
ATOM      8  O   UNL     1      32.739 -11.439 -23.068  0.00  0.00    -0.227 OA
ATOM      9  N   UNL     1      34.559 -10.542 -24.150  0.00  0.00    -0.295 N 
ATOM     10  C   UNL     1      33.262 -10.526 -23.700  0.00  0.00    +0.398 C 
ATOM     11  H   UNL     1      34.914  -9.773 -24.653  0.00  0.00    +0.148 HD
ATOM     12  H   UNL     1      35.133 -11.321 -23.971  0.00  0.00    +0.148 HD
ENDBRANCH   7  10
ENDBRANCH   1   7
BRANCH   1  13
ATOM     13  C   UNL     1      32.504  -8.963 -21.700  0.00  0.00    +0.117 C 
BRANCH  13  14
ATOM     14  C   UNL     1      32.539  -7.953 -20.641  0.00  0.00    -0.074 C 
ATOM     15  C   UNL     1      32.569  -7.116 -19.781  0.00  0.00    -0.014 C 
ENDBRANCH  13  14
ENDBRANCH   1  13
TORSDOF 4
ENDMDL
MODEL 8
REMARK VINA RESULT:      -5.6      8.496     10.216
REMARK  Name = 9661
REMARK  4 active torsions:
REMARK  status: ('A' for Active; 'I' for Inactive)
REMARK    1  A    between atoms: C_1  and  O_7
REMARK    2  A    between atoms: C_1  and  C_13
REMARK    3  A    between atoms: O_7  and  C_10
REMARK    4  A    between atoms: C_13  and  C_14
REMARK                            x       y       z     vdW  Elec       q    Type
REMARK                         _______ _______ _______ _____ _____    ______ ____
ROOT
ATOM      1  C   UNL     1      36.487 -24.225 -14.183  0.00  0.00    +0.149 C 
ATOM      2  C   UNL     1      37.368 -23.482 -13.168  0.00  0.00    +0.041 C 
ATOM      3  C   UNL     1      37.341 -25.113 -15.103  0.00  0.00    +0.041 C 
ATOM      4  C   UNL     1      38.281 -24.429 -12.386  0.00  0.00    +0.004 C 
ATOM      5  C   UNL     1      38.252 -26.056 -14.315  0.00  0.00    +0.004 C 
ATOM      6  C   UNL     1      39.120 -25.296 -13.319  0.00  0.00    +0.000 C 
ENDROOT
BRANCH   1   7
ATOM      7  O   UNL     1      35.575 -25.052 -13.454  0.00  0.00    -0.441 OA
BRANCH   7  10
ATOM      8  O   UNL     1      34.534 -23.665 -11.940  0.00  0.00    -0.227 OA
ATOM      9  N   UNL     1      33.356 -24.719 -13.610  0.00  0.00    -0.295 N 
ATOM     10  C   UNL     1      34.498 -24.412 -12.912  0.00  0.00    +0.398 C 
ATOM     11  H   UNL     1      33.401 -25.327 -14.383  0.00  0.00    +0.148 HD
ATOM     12  H   UNL     1      32.493 -24.331 -13.338  0.00  0.00    +0.148 HD
ENDBRANCH   7  10
ENDBRANCH   1   7
BRANCH   1  13
ATOM     13  C   UNL     1      35.663 -23.231 -15.003  0.00  0.00    +0.117 C 
BRANCH  13  14
ATOM     14  C   UNL     1      36.526 -22.425 -15.869  0.00  0.00    -0.074 C 
ATOM     15  C   UNL     1      37.232 -21.754 -16.571  0.00  0.00    -0.014 C 
ENDBRANCH  13  14
ENDBRANCH   1  13
TORSDOF 4
ENDMDL
MODEL 9
REMARK VINA RESULT:      -5.6      8.410     10.181
REMARK  Name = 9661
REMARK  4 active torsions:
REMARK  status: ('A' for Active; 'I' for Inactive)
REMARK    1  A    between atoms: C_1  and  O_7
REMARK    2  A    between atoms: C_1  and  C_13
REMARK    3  A    between atoms: O_7  and  C_10
REMARK    4  A    between atoms: C_13  and  C_14
REMARK                            x       y       z     vdW  Elec       q    Type
REMARK                         _______ _______ _______ _____ _____    ______ ____
ROOT
ATOM      1  C   UNL     1      32.159  -9.047 -22.707  0.00  0.00    +0.149 C 
ATOM      2  C   UNL     1      31.635  -8.153 -23.841  0.00  0.00    +0.041 C 
ATOM      3  C   UNL     1      33.059  -8.248 -21.750  0.00  0.00    +0.041 C 
ATOM      4  C   UNL     1      30.955  -6.886 -23.316  0.00  0.00    +0.004 C 
ATOM      5  C   UNL     1      32.374  -6.983 -21.231  0.00  0.00    +0.004 C 
ATOM      6  C   UNL     1      31.868  -6.109 -22.374  0.00  0.00    +0.000 C 
ENDROOT
BRANCH   1   7
ATOM      7  O   UNL     1      31.031  -9.543 -21.980  0.00  0.00    -0.441 OA
BRANCH   7  10
ATOM      8  O   UNL     1      31.848 -10.565 -20.086  0.00  0.00    -0.227 OA
ATOM      9  N   UNL     1      30.778 -11.764 -21.730  0.00  0.00    -0.295 N 
ATOM     10  C   UNL     1      31.272 -10.612 -21.168  0.00  0.00    +0.398 C 
ATOM     11  H   UNL     1      30.325 -11.728 -22.605  0.00  0.00    +0.148 HD
ATOM     12  H   UNL     1      30.875 -12.623 -21.261  0.00  0.00    +0.148 HD
ENDBRANCH   7  10
ENDBRANCH   1   7
BRANCH   1  13
ATOM     13  C   UNL     1      32.911 -10.250 -23.280  0.00  0.00    +0.117 C 
BRANCH  13  14
ATOM     14  C   UNL     1      34.124  -9.824 -23.980  0.00  0.00    -0.074 C 
ATOM     15  C   UNL     1      35.117  -9.483 -24.562  0.00  0.00    -0.014 C 
ENDBRANCH  13  14
ENDBRANCH   1  13
TORSDOF 4
ENDMDL
