MODEL 1
REMARK VINA RESULT:     -10.3      0.000      0.000
REMARK  Name = 22591684
REMARK  8 active torsions:
REMARK  status: ('A' for Active; 'I' for Inactive)
REMARK    1  A    between atoms: C_1  and  C_25
REMARK    2  A    between atoms: C_2  and  C_12
REMARK    3  A    between atoms: C_13  and  C_15
REMARK    4  A    between atoms: C_16  and  C_24
REMARK    5  A    between atoms: C_25  and  C_26
REMARK    6  A    between atoms: C_26  and  C_27
REMARK    7  A    between atoms: C_27  and  S_28
REMARK    8  A    between atoms: S_28  and  C_31
REMARK                            x       y       z     vdW  Elec       q    Type
REMARK                         _______ _______ _______ _____ _____    ______ ____
ROOT
ATOM      1  C   UNL     1      32.308  -7.057 -22.217  0.00  0.00    +0.000 C 
ATOM      2  C   UNL     1      32.285  -9.706 -22.351  0.00  0.00    +0.053 C 
ATOM      3  C   UNL     1      33.632  -7.587 -22.803  0.00  0.00    +0.000 C 
ATOM      4  C   UNL     1      32.130  -7.666 -20.815  0.00  0.00    +0.000 C 
ATOM      5  C   UNL     1      31.147  -7.551 -23.103  0.00  0.00    +0.000 C 
ATOM      6  C   UNL     1      33.626  -9.120 -22.874  0.00  0.00    +0.007 C 
ATOM      7  C   UNL     1      32.116  -9.199 -20.889  0.00  0.00    +0.007 C 
ATOM      8  C   UNL     1      31.126  -9.084 -23.176  0.00  0.00    +0.007 C 
ENDROOT
BRANCH   2  12
ATOM      9  N   UNL     1      32.955 -11.893 -23.361  0.00  0.00    -0.297 N 
ATOM     10  N   UNL     1      31.633 -12.010 -21.621  0.00  0.00    -0.133 NA
ATOM     11  N   UNL     1      31.902 -13.294 -22.049  0.00  0.00    -0.129 NA
ATOM     12  C   UNL     1      32.272 -11.185 -22.419  0.00  0.00    +0.142 A 
ATOM     13  C   UNL     1      32.696 -13.203 -23.093  0.00  0.00    +0.166 A 
ATOM     14  C   UNL     1      33.779 -11.358 -24.418  0.00  0.00    +0.133 C 
BRANCH  13  15
ATOM     15  C   UNL     1      33.225 -14.304 -23.861  0.00  0.00    +0.040 C 
ATOM     16  C   UNL     1      34.017 -15.284 -23.263  0.00  0.00    +0.074 C 
ATOM     17  C   UNL     1      32.932 -14.378 -25.223  0.00  0.00    +0.003 C 
ATOM     18  C   UNL     1      34.516 -16.339 -24.028  0.00  0.00    +0.004 C 
ATOM     19  C   UNL     1      33.431 -15.433 -25.987  0.00  0.00    +0.000 C 
ATOM     20  C   UNL     1      34.223 -16.413 -25.390  0.00  0.00    -0.000 C 
BRANCH  16  24
ATOM     21  F   UNL     1      34.892 -14.049 -21.410  0.00  0.00    -0.166 F 
ATOM     22  F   UNL     1      33.275 -15.434 -20.995  0.00  0.00    -0.166 F 
ATOM     23  F   UNL     1      35.261 -16.193 -21.451  0.00  0.00    -0.166 F 
ATOM     24  C   UNL     1      34.353 -15.239 -21.807  0.00  0.00    +0.419 C 
ENDBRANCH  16  24
ENDBRANCH  13  15
ENDBRANCH   2  12
BRANCH   1  25
ATOM     25  C   UNL     1      32.322  -5.530 -22.146  0.00  0.00    +0.002 C 
BRANCH  25  26
ATOM     26  C   UNL     1      31.064  -4.939 -22.772  0.00  0.00    +0.025 C 
BRANCH  26  27
ATOM     27  C   UNL     1      31.248  -3.459 -23.068  0.00  0.00    +0.151 C 
BRANCH  27  28
ATOM     28  S   UNL     1      31.221  -3.141 -24.804  0.00  0.00    -0.010 S 
ATOM     29  O   UNL     1      29.867  -2.770 -25.179  0.00  0.00    -0.173 OA
ATOM     30  O   UNL     1      32.342  -2.272 -25.125  0.00  0.00    -0.173 OA
BRANCH  28  31
ATOM     31  C   UNL     1      31.558  -4.735 -25.518  0.00  0.00    +0.151 C 
ATOM     32  C   UNL     1      33.004  -4.856 -25.947  0.00  0.00    +0.027 C 
ENDBRANCH  28  31
ENDBRANCH  27  28
ENDBRANCH  26  27
ENDBRANCH  25  26
ENDBRANCH   1  25
TORSDOF 8
ENDMDL
MODEL 2
REMARK VINA RESULT:     -10.0      7.509     11.546
REMARK  Name = 22591684
REMARK  8 active torsions:
REMARK  status: ('A' for Active; 'I' for Inactive)
REMARK    1  A    between atoms: C_1  and  C_25
REMARK    2  A    between atoms: C_2  and  C_12
REMARK    3  A    between atoms: C_13  and  C_15
REMARK    4  A    between atoms: C_16  and  C_24
REMARK    5  A    between atoms: C_25  and  C_26
REMARK    6  A    between atoms: C_26  and  C_27
REMARK    7  A    between atoms: C_27  and  S_28
REMARK    8  A    between atoms: S_28  and  C_31
REMARK                            x       y       z     vdW  Elec       q    Type
REMARK                         _______ _______ _______ _____ _____    ______ ____
ROOT
ATOM      1  C   UNL     1      35.062 -19.095 -21.743  0.00  0.00    +0.000 C 
ATOM      2  C   UNL     1      34.376 -16.860 -22.997  0.00  0.00    +0.053 C 
ATOM      3  C   UNL     1      33.899 -18.393 -21.014  0.00  0.00    +0.000 C 
ATOM      4  C   UNL     1      36.251 -18.120 -21.795  0.00  0.00    +0.000 C 
ATOM      5  C   UNL     1      34.624 -19.392 -23.191  0.00  0.00    +0.000 C 
ATOM      6  C   UNL     1      33.505 -17.095 -21.731  0.00  0.00    +0.007 C 
ATOM      7  C   UNL     1      35.857 -16.825 -22.520  0.00  0.00    +0.007 C 
ATOM      8  C   UNL     1      34.234 -18.099 -23.923  0.00  0.00    +0.007 C 
ENDROOT
BRANCH   2  12
ATOM      9  N   UNL     1      34.163 -14.374 -23.150  0.00  0.00    -0.297 N 
ATOM     10  N   UNL     1      33.475 -15.501 -24.895  0.00  0.00    -0.133 NA
ATOM     11  N   UNL     1      33.289 -14.156 -25.145  0.00  0.00    -0.129 NA
ATOM     12  C   UNL     1      33.999 -15.612 -23.696  0.00  0.00    +0.142 A 
ATOM     13  C   UNL     1      33.708 -13.497 -24.088  0.00  0.00    +0.166 A 
ATOM     14  C   UNL     1      34.709 -14.066 -21.850  0.00  0.00    +0.133 C 
BRANCH  13  15
ATOM     15  C   UNL     1      33.695 -12.065 -23.915  0.00  0.00    +0.040 C 
ATOM     16  C   UNL     1      32.799 -11.454 -23.039  0.00  0.00    +0.074 C 
ATOM     17  C   UNL     1      34.600 -11.290 -24.640  0.00  0.00    +0.003 C 
ATOM     18  C   UNL     1      32.807 -10.066 -22.888  0.00  0.00    +0.004 C 
ATOM     19  C   UNL     1      34.608  -9.903 -24.490  0.00  0.00    +0.000 C 
ATOM     20  C   UNL     1      33.712  -9.292 -23.614  0.00  0.00    -0.000 C 
BRANCH  16  24
ATOM     21  F   UNL     1      31.518 -13.461 -22.801  0.00  0.00    -0.166 F 
ATOM     22  F   UNL     1      32.238 -12.531 -20.979  0.00  0.00    -0.166 F 
ATOM     23  F   UNL     1      30.619 -11.608 -22.100  0.00  0.00    -0.166 F 
ATOM     24  C   UNL     1      31.814 -12.251 -22.244  0.00  0.00    +0.419 C 
ENDBRANCH  16  24
ENDBRANCH  13  15
ENDBRANCH   2  12
BRANCH   1  25
ATOM     25  C   UNL     1      35.451 -20.386 -21.021  0.00  0.00    +0.002 C 
BRANCH  25  26
ATOM     26  C   UNL     1      34.370 -20.813 -20.036  0.00  0.00    +0.025 C 
BRANCH  26  27
ATOM     27  C   UNL     1      34.921 -21.797 -19.016  0.00  0.00    +0.151 C 
BRANCH  27  28
ATOM     28  S   UNL     1      33.665 -22.893 -18.435  0.00  0.00    -0.010 S 
ATOM     29  O   UNL     1      32.398 -22.181 -18.447  0.00  0.00    -0.173 OA
ATOM     30  O   UNL     1      33.807 -24.159 -19.135  0.00  0.00    -0.173 OA
BRANCH  28  31
ATOM     31  C   UNL     1      34.112 -23.167 -16.736  0.00  0.00    +0.151 C 
ATOM     32  C   UNL     1      35.548 -22.772 -16.470  0.00  0.00    +0.027 C 
ENDBRANCH  28  31
ENDBRANCH  27  28
ENDBRANCH  26  27
ENDBRANCH  25  26
ENDBRANCH   1  25
TORSDOF 8
ENDMDL
MODEL 3
REMARK VINA RESULT:      -9.6      7.478     11.611
REMARK  Name = 22591684
REMARK  8 active torsions:
REMARK  status: ('A' for Active; 'I' for Inactive)
REMARK    1  A    between atoms: C_1  and  C_25
REMARK    2  A    between atoms: C_2  and  C_12
REMARK    3  A    between atoms: C_13  and  C_15
REMARK    4  A    between atoms: C_16  and  C_24
REMARK    5  A    between atoms: C_25  and  C_26
REMARK    6  A    between atoms: C_26  and  C_27
REMARK    7  A    between atoms: C_27  and  S_28
REMARK    8  A    between atoms: S_28  and  C_31
REMARK                            x       y       z     vdW  Elec       q    Type
REMARK                         _______ _______ _______ _____ _____    ______ ____
ROOT
ATOM      1  C   UNL     1      35.141 -19.168 -21.819  0.00  0.00    +0.000 C 
ATOM      2  C   UNL     1      34.191 -16.863 -22.727  0.00  0.00    +0.053 C 
ATOM      3  C   UNL     1      36.195 -18.051 -21.687  0.00  0.00    +0.000 C 
ATOM      4  C   UNL     1      34.759 -19.290 -23.305  0.00  0.00    +0.000 C 
ATOM      5  C   UNL     1      33.881 -18.747 -21.035  0.00  0.00    +0.000 C 
ATOM      6  C   UNL     1      35.653 -16.718 -22.219  0.00  0.00    +0.007 C 
ATOM      7  C   UNL     1      34.209 -17.958 -23.833  0.00  0.00    +0.007 C 
ATOM      8  C   UNL     1      33.324 -17.417 -21.564  0.00  0.00    +0.007 C 
ENDROOT
BRANCH   2  12
ATOM      9  N   UNL     1      33.380 -14.516 -22.436  0.00  0.00    -0.297 N 
ATOM     10  N   UNL     1      33.391 -15.275 -24.488  0.00  0.00    -0.133 NA
ATOM     11  N   UNL     1      32.921 -13.978 -24.507  0.00  0.00    -0.129 NA
ATOM     12  C   UNL     1      33.661 -15.580 -23.239  0.00  0.00    +0.142 A 
ATOM     13  C   UNL     1      32.922 -13.540 -23.268  0.00  0.00    +0.166 A 
ATOM     14  C   UNL     1      33.541 -14.447 -21.003  0.00  0.00    +0.133 C 
BRANCH  13  15
ATOM     15  C   UNL     1      32.503 -12.232 -22.824  0.00  0.00    +0.040 C 
ATOM     16  C   UNL     1      32.995 -11.075 -23.427  0.00  0.00    +0.074 C 
ATOM     17  C   UNL     1      31.589 -12.138 -21.775  0.00  0.00    +0.003 C 
ATOM     18  C   UNL     1      32.573  -9.822 -22.980  0.00  0.00    +0.004 C 
ATOM     19  C   UNL     1      31.168 -10.885 -21.328  0.00  0.00    +0.000 C 
ATOM     20  C   UNL     1      31.660  -9.728 -21.931  0.00  0.00    -0.000 C 
BRANCH  16  24
ATOM     21  F   UNL     1      34.909 -12.122 -24.411  0.00  0.00    -0.166 F 
ATOM     22  F   UNL     1      33.395 -11.366 -25.767  0.00  0.00    -0.166 F 
ATOM     23  F   UNL     1      34.681  -9.978 -24.696  0.00  0.00    -0.166 F 
ATOM     24  C   UNL     1      33.976 -11.137 -24.555  0.00  0.00    +0.419 C 
ENDBRANCH  16  24
ENDBRANCH  13  15
ENDBRANCH   2  12
BRANCH   1  25
ATOM     25  C   UNL     1      35.688 -20.494 -21.290  0.00  0.00    +0.002 C 
BRANCH  25  26
ATOM     26  C   UNL     1      35.413 -20.646 -19.798  0.00  0.00    +0.025 C 
BRANCH  26  27
ATOM     27  C   UNL     1      35.539 -22.100 -19.368  0.00  0.00    +0.151 C 
BRANCH  27  28
ATOM     28  S   UNL     1      33.956 -22.830 -19.097  0.00  0.00    -0.010 S 
ATOM     29  O   UNL     1      32.938 -21.864 -19.474  0.00  0.00    -0.173 OA
ATOM     30  O   UNL     1      33.963 -24.161 -19.682  0.00  0.00    -0.173 OA
BRANCH  28  31
ATOM     31  C   UNL     1      33.887 -23.022 -17.330  0.00  0.00    +0.151 C 
ATOM     32  C   UNL     1      32.472 -23.260 -16.853  0.00  0.00    +0.027 C 
ENDBRANCH  28  31
ENDBRANCH  27  28
ENDBRANCH  26  27
ENDBRANCH  25  26
ENDBRANCH   1  25
TORSDOF 8
ENDMDL
MODEL 4
REMARK VINA RESULT:      -9.5      5.830      9.756
REMARK  Name = 22591684
REMARK  8 active torsions:
REMARK  status: ('A' for Active; 'I' for Inactive)
REMARK    1  A    between atoms: C_1  and  C_25
REMARK    2  A    between atoms: C_2  and  C_12
REMARK    3  A    between atoms: C_13  and  C_15
REMARK    4  A    between atoms: C_16  and  C_24
REMARK    5  A    between atoms: C_25  and  C_26
REMARK    6  A    between atoms: C_26  and  C_27
REMARK    7  A    between atoms: C_27  and  S_28
REMARK    8  A    between atoms: S_28  and  C_31
REMARK                            x       y       z     vdW  Elec       q    Type
REMARK                         _______ _______ _______ _____ _____    ______ ____
ROOT
ATOM      1  C   UNL     1      33.796 -15.410 -23.598  0.00  0.00    +0.000 C 
ATOM      2  C   UNL     1      32.652 -13.142 -22.833  0.00  0.00    +0.053 C 
ATOM      3  C   UNL     1      32.916 -15.633 -22.352  0.00  0.00    +0.000 C 
ATOM      4  C   UNL     1      34.864 -14.360 -23.245  0.00  0.00    +0.000 C 
ATOM      5  C   UNL     1      32.914 -14.833 -24.724  0.00  0.00    +0.000 C 
ATOM      6  C   UNL     1      32.259 -14.322 -21.901  0.00  0.00    +0.007 C 
ATOM      7  C   UNL     1      34.206 -13.046 -22.802  0.00  0.00    +0.007 C 
ATOM      8  C   UNL     1      32.257 -13.516 -24.287  0.00  0.00    +0.007 C 
ENDROOT
BRANCH   2  12
ATOM      9  N   UNL     1      32.347 -10.663 -22.935  0.00  0.00    -0.297 N 
ATOM     10  N   UNL     1      31.087 -11.721 -21.493  0.00  0.00    -0.133 NA
ATOM     11  N   UNL     1      30.793 -10.375 -21.420  0.00  0.00    -0.129 NA
ATOM     12  C   UNL     1      32.020 -11.874 -22.405  0.00  0.00    +0.142 A 
ATOM     13  C   UNL     1      31.558  -9.757 -22.292  0.00  0.00    +0.166 A 
ATOM     14  C   UNL     1      33.325 -10.403 -23.964  0.00  0.00    +0.133 C 
BRANCH  13  15
ATOM     15  C   UNL     1      31.584  -8.337 -22.549  0.00  0.00    +0.040 C 
ATOM     16  C   UNL     1      31.995  -7.435 -21.568  0.00  0.00    +0.074 C 
ATOM     17  C   UNL     1      31.192  -7.872 -23.805  0.00  0.00    +0.003 C 
ATOM     18  C   UNL     1      32.012  -6.067 -21.842  0.00  0.00    +0.004 C 
ATOM     19  C   UNL     1      31.210  -6.504 -24.079  0.00  0.00    +0.000 C 
ATOM     20  C   UNL     1      31.620  -5.602 -23.097  0.00  0.00    -0.000 C 
BRANCH  16  24
ATOM     21  F   UNL     1      33.134  -9.060 -20.231  0.00  0.00    -0.166 F 
ATOM     22  F   UNL     1      33.215  -6.999 -19.559  0.00  0.00    -0.166 F 
ATOM     23  F   UNL     1      31.363  -8.125 -19.381  0.00  0.00    -0.166 F 
ATOM     24  C   UNL     1      32.422  -7.896 -20.211  0.00  0.00    +0.419 C 
ENDBRANCH  16  24
ENDBRANCH  13  15
ENDBRANCH   2  12
BRANCH   1  25
ATOM     25  C   UNL     1      34.450 -16.719 -24.041  0.00  0.00    +0.002 C 
BRANCH  25  26
ATOM     26  C   UNL     1      35.679 -17.033 -23.196  0.00  0.00    +0.025 C 
BRANCH  26  27
ATOM     27  C   UNL     1      35.675 -18.488 -22.750  0.00  0.00    +0.151 C 
BRANCH  27  28
ATOM     28  S   UNL     1      35.325 -18.632 -21.027  0.00  0.00    -0.010 S 
ATOM     29  O   UNL     1      36.199 -19.648 -20.467  0.00  0.00    -0.173 OA
ATOM     30  O   UNL     1      35.287 -17.294 -20.457  0.00  0.00    -0.173 OA
BRANCH  28  31
ATOM     31  C   UNL     1      33.666 -19.274 -20.996  0.00  0.00    +0.151 C 
ATOM     32  C   UNL     1      33.580 -20.547 -20.185  0.00  0.00    +0.027 C 
ENDBRANCH  28  31
ENDBRANCH  27  28
ENDBRANCH  26  27
ENDBRANCH  25  26
ENDBRANCH   1  25
TORSDOF 8
ENDMDL
MODEL 5
REMARK VINA RESULT:      -9.3     10.105     14.048
REMARK  Name = 22591684
REMARK  8 active torsions:
REMARK  status: ('A' for Active; 'I' for Inactive)
REMARK    1  A    between atoms: C_1  and  C_25
REMARK    2  A    between atoms: C_2  and  C_12
REMARK    3  A    between atoms: C_13  and  C_15
REMARK    4  A    between atoms: C_16  and  C_24
REMARK    5  A    between atoms: C_25  and  C_26
REMARK    6  A    between atoms: C_26  and  C_27
REMARK    7  A    between atoms: C_27  and  S_28
REMARK    8  A    between atoms: S_28  and  C_31
REMARK                            x       y       z     vdW  Elec       q    Type
REMARK                         _______ _______ _______ _____ _____    ______ ____
ROOT
ATOM      1  C   UNL     1      33.725 -23.187 -17.820  0.00  0.00    +0.000 C 
ATOM      2  C   UNL     1      34.710 -21.388 -19.502  0.00  0.00    +0.053 C 
ATOM      3  C   UNL     1      35.002 -22.542 -17.245  0.00  0.00    +0.000 C 
ATOM      4  C   UNL     1      34.086 -23.846 -19.163  0.00  0.00    +0.000 C 
ATOM      5  C   UNL     1      32.695 -22.073 -18.096  0.00  0.00    +0.000 C 
ATOM      6  C   UNL     1      35.580 -21.507 -18.219  0.00  0.00    +0.007 C 
ATOM      7  C   UNL     1      34.656 -22.807 -20.139  0.00  0.00    +0.007 C 
ATOM      8  C   UNL     1      33.259 -21.034 -19.075  0.00  0.00    +0.007 C 
ENDROOT
BRANCH   2  12
ATOM      9  N   UNL     1      34.485 -19.668 -21.302  0.00  0.00    -0.297 N 
ATOM     10  N   UNL     1      36.520 -20.050 -20.595  0.00  0.00    -0.133 NA
ATOM     11  N   UNL     1      36.576 -19.083 -21.579  0.00  0.00    -0.129 NA
ATOM     12  C   UNL     1      35.260 -20.388 -20.444  0.00  0.00    +0.142 A 
ATOM     13  C   UNL     1      35.347 -18.867 -21.990  0.00  0.00    +0.166 A 
ATOM     14  C   UNL     1      33.051 -19.743 -21.445  0.00  0.00    +0.133 C 
BRANCH  13  15
ATOM     15  C   UNL     1      34.940 -17.936 -23.014  0.00  0.00    +0.040 C 
ATOM     16  C   UNL     1      34.512 -16.649 -22.688  0.00  0.00    +0.074 C 
ATOM     17  C   UNL     1      34.982 -18.341 -24.348  0.00  0.00    +0.003 C 
ATOM     18  C   UNL     1      34.124 -15.767 -23.697  0.00  0.00    +0.004 C 
ATOM     19  C   UNL     1      34.595 -17.458 -25.357  0.00  0.00    +0.000 C 
ATOM     20  C   UNL     1      34.166 -16.172 -25.032  0.00  0.00    -0.000 C 
BRANCH  16  24
ATOM     21  F   UNL     1      33.259 -16.437 -20.660  0.00  0.00    -0.166 F 
ATOM     22  F   UNL     1      35.396 -16.752 -20.469  0.00  0.00    -0.166 F 
ATOM     23  F   UNL     1      34.642 -14.833 -21.158  0.00  0.00    -0.166 F 
ATOM     24  C   UNL     1      34.453 -16.180 -21.270  0.00  0.00    +0.419 C 
ENDBRANCH  16  24
ENDBRANCH  13  15
ENDBRANCH   2  12
BRANCH   1  25
ATOM     25  C   UNL     1      33.156 -24.220 -16.846  0.00  0.00    +0.002 C 
BRANCH  25  26
ATOM     26  C   UNL     1      32.945 -23.614 -15.463  0.00  0.00    +0.025 C 
BRANCH  26  27
ATOM     27  C   UNL     1      32.564 -24.685 -14.453  0.00  0.00    +0.151 C 
BRANCH  27  28
ATOM     28  S   UNL     1      30.829 -24.676 -14.130  0.00  0.00    -0.010 S 
ATOM     29  O   UNL     1      30.225 -25.782 -14.854  0.00  0.00    -0.173 OA
ATOM     30  O   UNL     1      30.633 -24.537 -12.696  0.00  0.00    -0.173 OA
BRANCH  28  31
ATOM     31  C   UNL     1      30.276 -23.168 -14.895  0.00  0.00    +0.151 C 
ATOM     32  C   UNL     1      29.292 -23.441 -16.011  0.00  0.00    +0.027 C 
ENDBRANCH  28  31
ENDBRANCH  27  28
ENDBRANCH  26  27
ENDBRANCH  25  26
ENDBRANCH   1  25
TORSDOF 8
ENDMDL
MODEL 6
REMARK VINA RESULT:      -9.3      3.927      5.987
REMARK  Name = 22591684
REMARK  8 active torsions:
REMARK  status: ('A' for Active; 'I' for Inactive)
REMARK    1  A    between atoms: C_1  and  C_25
REMARK    2  A    between atoms: C_2  and  C_12
REMARK    3  A    between atoms: C_13  and  C_15
REMARK    4  A    between atoms: C_16  and  C_24
REMARK    5  A    between atoms: C_25  and  C_26
REMARK    6  A    between atoms: C_26  and  C_27
REMARK    7  A    between atoms: C_27  and  S_28
REMARK    8  A    between atoms: S_28  and  C_31
REMARK                            x       y       z     vdW  Elec       q    Type
REMARK                         _______ _______ _______ _____ _____    ______ ____
ROOT
ATOM      1  C   UNL     1      33.082 -12.617 -23.509  0.00  0.00    +0.000 C 
ATOM      2  C   UNL     1      33.758 -15.168 -23.240  0.00  0.00    +0.053 C 
ATOM      3  C   UNL     1      34.517 -12.748 -22.961  0.00  0.00    +0.000 C 
ATOM      4  C   UNL     1      32.130 -13.326 -22.529  0.00  0.00    +0.000 C 
ATOM      5  C   UNL     1      33.006 -13.349 -24.863  0.00  0.00    +0.000 C 
ATOM      6  C   UNL     1      34.909 -14.222 -22.795  0.00  0.00    +0.007 C 
ATOM      7  C   UNL     1      32.519 -14.803 -22.372  0.00  0.00    +0.007 C 
ATOM      8  C   UNL     1      33.389 -14.828 -24.710  0.00  0.00    +0.007 C 
ENDROOT
BRANCH   2  12
ATOM      9  N   UNL     1      34.582 -17.121 -21.915  0.00  0.00    -0.297 N 
ATOM     10  N   UNL     1      34.086 -17.527 -24.007  0.00  0.00    -0.133 NA
ATOM     11  N   UNL     1      34.519 -18.703 -23.427  0.00  0.00    -0.129 NA
ATOM     12  C   UNL     1      34.131 -16.592 -23.086  0.00  0.00    +0.142 A 
ATOM     13  C   UNL     1      34.811 -18.439 -22.173  0.00  0.00    +0.166 A 
ATOM     14  C   UNL     1      34.771 -16.424 -20.665  0.00  0.00    +0.133 C 
BRANCH  13  15
ATOM     15  C   UNL     1      35.306 -19.379 -21.197  0.00  0.00    +0.040 C 
ATOM     16  C   UNL     1      34.432 -20.110 -20.393  0.00  0.00    +0.074 C 
ATOM     17  C   UNL     1      36.684 -19.550 -21.064  0.00  0.00    +0.003 C 
ATOM     18  C   UNL     1      34.936 -21.013 -19.456  0.00  0.00    +0.004 C 
ATOM     19  C   UNL     1      37.188 -20.453 -20.127  0.00  0.00    +0.000 C 
ATOM     20  C   UNL     1      36.314 -21.184 -19.324  0.00  0.00    -0.000 C 
BRANCH  16  24
ATOM     21  F   UNL     1      32.427 -20.515 -21.635  0.00  0.00    -0.166 F 
ATOM     22  F   UNL     1      32.263 -20.520 -19.473  0.00  0.00    -0.166 F 
ATOM     23  F   UNL     1      32.564 -18.645 -20.532  0.00  0.00    -0.166 F 
ATOM     24  C   UNL     1      32.949 -19.953 -20.506  0.00  0.00    +0.419 C 
ENDBRANCH  16  24
ENDBRANCH  13  15
ENDBRANCH   2  12
BRANCH   1  25
ATOM     25  C   UNL     1      32.697 -11.146 -23.668  0.00  0.00    +0.002 C 
BRANCH  25  26
ATOM     26  C   UNL     1      31.905 -10.651 -22.463  0.00  0.00    +0.025 C 
BRANCH  26  27
ATOM     27  C   UNL     1      32.516  -9.379 -21.896  0.00  0.00    +0.151 C 
BRANCH  27  28
ATOM     28  S   UNL     1      31.832  -7.941 -22.658  0.00  0.00    -0.010 S 
ATOM     29  O   UNL     1      30.699  -8.352 -23.470  0.00  0.00    -0.173 OA
ATOM     30  O   UNL     1      31.678  -6.916 -21.639  0.00  0.00    -0.173 OA
BRANCH  28  31
ATOM     31  C   UNL     1      33.120  -7.409 -23.763  0.00  0.00    +0.151 C 
ATOM     32  C   UNL     1      34.491  -7.715 -23.204  0.00  0.00    +0.027 C 
ENDBRANCH  28  31
ENDBRANCH  27  28
ENDBRANCH  26  27
ENDBRANCH  25  26
ENDBRANCH   1  25
TORSDOF 8
ENDMDL
MODEL 7
REMARK VINA RESULT:      -8.7     10.040     14.244
REMARK  Name = 22591684
REMARK  8 active torsions:
REMARK  status: ('A' for Active; 'I' for Inactive)
REMARK    1  A    between atoms: C_1  and  C_25
REMARK    2  A    between atoms: C_2  and  C_12
REMARK    3  A    between atoms: C_13  and  C_15
REMARK    4  A    between atoms: C_16  and  C_24
REMARK    5  A    between atoms: C_25  and  C_26
REMARK    6  A    between atoms: C_26  and  C_27
REMARK    7  A    between atoms: C_27  and  S_28
REMARK    8  A    between atoms: S_28  and  C_31
REMARK                            x       y       z     vdW  Elec       q    Type
REMARK                         _______ _______ _______ _____ _____    ______ ____
ROOT
ATOM      1  C   UNL     1      33.881 -23.117 -17.932  0.00  0.00    +0.000 C 
ATOM      2  C   UNL     1      34.807 -21.287 -19.615  0.00  0.00    +0.053 C 
ATOM      3  C   UNL     1      34.230 -23.751 -19.293  0.00  0.00    +0.000 C 
ATOM      4  C   UNL     1      32.826 -22.023 -18.172  0.00  0.00    +0.000 C 
ATOM      5  C   UNL     1      35.148 -22.443 -17.366  0.00  0.00    +0.000 C 
ATOM      6  C   UNL     1      34.758 -22.694 -20.273  0.00  0.00    +0.007 C 
ATOM      7  C   UNL     1      33.360 -20.962 -19.146  0.00  0.00    +0.007 C 
ATOM      8  C   UNL     1      35.682 -21.378 -18.335  0.00  0.00    +0.007 C 
ENDROOT
BRANCH   2  12
ATOM      9  N   UNL     1      34.513 -19.548 -21.387  0.00  0.00    -0.297 N 
ATOM     10  N   UNL     1      36.568 -19.896 -20.722  0.00  0.00    -0.133 NA
ATOM     11  N   UNL     1      36.586 -18.914 -21.692  0.00  0.00    -0.129 NA
ATOM     12  C   UNL     1      35.319 -20.263 -20.553  0.00  0.00    +0.142 A 
ATOM     13  C   UNL     1      35.345 -18.720 -22.078  0.00  0.00    +0.166 A 
ATOM     14  C   UNL     1      33.078 -19.652 -21.504  0.00  0.00    +0.133 C 
BRANCH  13  15
ATOM     15  C   UNL     1      34.899 -17.783 -23.081  0.00  0.00    +0.040 C 
ATOM     16  C   UNL     1      34.430 -16.518 -22.728  0.00  0.00    +0.074 C 
ATOM     17  C   UNL     1      34.945 -18.161 -24.423  0.00  0.00    +0.003 C 
ATOM     18  C   UNL     1      34.006 -15.630 -23.717  0.00  0.00    +0.004 C 
ATOM     19  C   UNL     1      34.520 -17.273 -25.413  0.00  0.00    +0.000 C 
ATOM     20  C   UNL     1      34.052 -16.008 -25.059  0.00  0.00    -0.000 C 
BRANCH  16  24
ATOM     21  F   UNL     1      33.198 -16.412 -20.680  0.00  0.00    -0.166 F 
ATOM     22  F   UNL     1      35.352 -16.611 -20.523  0.00  0.00    -0.166 F 
ATOM     23  F   UNL     1      34.483 -14.725 -21.167  0.00  0.00    -0.166 F 
ATOM     24  C   UNL     1      34.367 -16.078 -21.300  0.00  0.00    +0.419 C 
ENDBRANCH  16  24
ENDBRANCH  13  15
ENDBRANCH   2  12
BRANCH   1  25
ATOM     25  C   UNL     1      33.353 -24.175 -16.962  0.00  0.00    +0.002 C 
BRANCH  25  26
ATOM     26  C   UNL     1      33.451 -23.695 -15.519  0.00  0.00    +0.025 C 
BRANCH  26  27
ATOM     27  C   UNL     1      34.014 -24.785 -14.620  0.00  0.00    +0.151 C 
BRANCH  27  28
ATOM     28  S   UNL     1      35.587 -24.327 -13.963  0.00  0.00    -0.010 S 
ATOM     29  O   UNL     1      35.715 -22.882 -14.053  0.00  0.00    -0.173 OA
ATOM     30  O   UNL     1      35.763 -25.006 -12.690  0.00  0.00    -0.173 OA
BRANCH  28  31
ATOM     31  C   UNL     1      36.738 -25.041 -15.116  0.00  0.00    +0.151 C 
ATOM     32  C   UNL     1      36.632 -26.550 -15.142  0.00  0.00    +0.027 C 
ENDBRANCH  28  31
ENDBRANCH  27  28
ENDBRANCH  26  27
ENDBRANCH  25  26
ENDBRANCH   1  25
TORSDOF 8
ENDMDL
MODEL 8
REMARK VINA RESULT:      -8.6      1.716      2.172
REMARK  Name = 22591684
REMARK  8 active torsions:
REMARK  status: ('A' for Active; 'I' for Inactive)
REMARK    1  A    between atoms: C_1  and  C_25
REMARK    2  A    between atoms: C_2  and  C_12
REMARK    3  A    between atoms: C_13  and  C_15
REMARK    4  A    between atoms: C_16  and  C_24
REMARK    5  A    between atoms: C_25  and  C_26
REMARK    6  A    between atoms: C_26  and  C_27
REMARK    7  A    between atoms: C_27  and  S_28
REMARK    8  A    between atoms: S_28  and  C_31
REMARK                            x       y       z     vdW  Elec       q    Type
REMARK                         _______ _______ _______ _____ _____    ______ ____
ROOT
ATOM      1  C   UNL     1      32.443  -7.166 -22.646  0.00  0.00    +0.000 C 
ATOM      2  C   UNL     1      32.415  -9.819 -22.599  0.00  0.00    +0.053 C 
ATOM      3  C   UNL     1      33.720  -7.739 -23.293  0.00  0.00    +0.000 C 
ATOM      4  C   UNL     1      32.371  -7.679 -21.197  0.00  0.00    +0.000 C 
ATOM      5  C   UNL     1      31.219  -7.715 -23.408  0.00  0.00    +0.000 C 
ATOM      6  C   UNL     1      33.711  -9.273 -23.260  0.00  0.00    +0.007 C 
ATOM      7  C   UNL     1      32.354  -9.214 -21.166  0.00  0.00    +0.007 C 
ATOM      8  C   UNL     1      31.196  -9.250 -23.376  0.00  0.00    +0.007 C 
ENDROOT
BRANCH   2  12
ATOM      9  N   UNL     1      33.312 -12.067 -23.222  0.00  0.00    -0.297 N 
ATOM     10  N   UNL     1      31.546 -12.068 -21.931  0.00  0.00    -0.133 NA
ATOM     11  N   UNL     1      31.907 -13.378 -22.174  0.00  0.00    -0.129 NA
ATOM     12  C   UNL     1      32.399 -11.298 -22.567  0.00  0.00    +0.142 A 
ATOM     13  C   UNL     1      32.968 -13.357 -22.950  0.00  0.00    +0.166 A 
ATOM     14  C   UNL     1      34.413 -11.604 -24.032  0.00  0.00    +0.133 C 
BRANCH  13  15
ATOM     15  C   UNL     1      33.678 -14.506 -23.456  0.00  0.00    +0.040 C 
ATOM     16  C   UNL     1      33.542 -14.910 -24.784  0.00  0.00    +0.074 C 
ATOM     17  C   UNL     1      34.513 -15.216 -22.593  0.00  0.00    +0.003 C 
ATOM     18  C   UNL     1      34.240 -16.024 -25.249  0.00  0.00    +0.004 C 
ATOM     19  C   UNL     1      35.212 -16.331 -23.059  0.00  0.00    +0.000 C 
ATOM     20  C   UNL     1      35.075 -16.734 -24.386  0.00  0.00    -0.000 C 
BRANCH  16  24
ATOM     21  F   UNL     1      31.547 -13.639 -25.149  0.00  0.00    -0.166 F 
ATOM     22  F   UNL     1      33.275 -13.128 -26.356  0.00  0.00    -0.166 F 
ATOM     23  F   UNL     1      32.193 -14.974 -26.741  0.00  0.00    -0.166 F 
ATOM     24  C   UNL     1      32.656 -14.174 -25.738  0.00  0.00    +0.419 C 
ENDBRANCH  16  24
ENDBRANCH  13  15
ENDBRANCH   2  12
BRANCH   1  25
ATOM     25  C   UNL     1      32.458  -5.638 -22.679  0.00  0.00    +0.002 C 
BRANCH  25  26
ATOM     26  C   UNL     1      31.158  -5.087 -23.253  0.00  0.00    +0.025 C 
BRANCH  26  27
ATOM     27  C   UNL     1      31.157  -3.566 -23.235  0.00  0.00    +0.151 C 
BRANCH  27  28
ATOM     28  S   UNL     1      31.166  -2.903 -24.871  0.00  0.00    -0.010 S 
ATOM     29  O   UNL     1      29.805  -2.531 -25.219  0.00  0.00    -0.173 OA
ATOM     30  O   UNL     1      32.244  -1.932 -24.963  0.00  0.00    -0.173 OA
BRANCH  28  31
ATOM     31  C   UNL     1      31.615  -4.299 -25.878  0.00  0.00    +0.151 C 
ATOM     32  C   UNL     1      33.096  -4.306 -26.186  0.00  0.00    +0.027 C 
ENDBRANCH  28  31
ENDBRANCH  27  28
ENDBRANCH  26  27
ENDBRANCH  25  26
ENDBRANCH   1  25
TORSDOF 8
ENDMDL
MODEL 9
REMARK VINA RESULT:      -8.4      8.090     12.070
REMARK  Name = 22591684
REMARK  8 active torsions:
REMARK  status: ('A' for Active; 'I' for Inactive)
REMARK    1  A    between atoms: C_1  and  C_25
REMARK    2  A    between atoms: C_2  and  C_12
REMARK    3  A    between atoms: C_13  and  C_15
REMARK    4  A    between atoms: C_16  and  C_24
REMARK    5  A    between atoms: C_25  and  C_26
REMARK    6  A    between atoms: C_26  and  C_27
REMARK    7  A    between atoms: C_27  and  S_28
REMARK    8  A    between atoms: S_28  and  C_31
REMARK                            x       y       z     vdW  Elec       q    Type
REMARK                         _______ _______ _______ _____ _____    ______ ____
ROOT
ATOM      1  C   UNL     1      35.394 -20.190 -20.813  0.00  0.00    +0.000 C 
ATOM      2  C   UNL     1      34.360 -17.959 -21.810  0.00  0.00    +0.053 C 
ATOM      3  C   UNL     1      35.317 -20.261 -22.351  0.00  0.00    +0.000 C 
ATOM      4  C   UNL     1      33.969 -19.968 -20.274  0.00  0.00    +0.000 C 
ATOM      5  C   UNL     1      36.248 -18.967 -20.421  0.00  0.00    +0.000 C 
ATOM      6  C   UNL     1      34.712 -18.977 -22.931  0.00  0.00    +0.007 C 
ATOM      7  C   UNL     1      33.368 -18.677 -20.850  0.00  0.00    +0.007 C 
ATOM      8  C   UNL     1      35.648 -17.673 -20.991  0.00  0.00    +0.007 C 
ENDROOT
BRANCH   2  12
ATOM      9  N   UNL     1      34.042 -16.266 -23.622  0.00  0.00    -0.297 N 
ATOM     10  N   UNL     1      32.954 -15.890 -21.761  0.00  0.00    -0.133 NA
ATOM     11  N   UNL     1      32.668 -14.869 -22.646  0.00  0.00    -0.129 NA
ATOM     12  C   UNL     1      33.779 -16.716 -22.363  0.00  0.00    +0.142 A 
ATOM     13  C   UNL     1      33.329 -15.113 -23.755  0.00  0.00    +0.166 A 
ATOM     14  C   UNL     1      34.898 -16.889 -24.603  0.00  0.00    +0.133 C 
BRANCH  13  15
ATOM     15  C   UNL     1      33.325 -14.300 -24.947  0.00  0.00    +0.040 C 
ATOM     16  C   UNL     1      33.525 -12.921 -24.879  0.00  0.00    +0.074 C 
ATOM     17  C   UNL     1      33.117 -14.915 -26.181  0.00  0.00    +0.003 C 
ATOM     18  C   UNL     1      33.518 -12.157 -26.047  0.00  0.00    +0.004 C 
ATOM     19  C   UNL     1      33.109 -14.150 -27.349  0.00  0.00    +0.000 C 
ATOM     20  C   UNL     1      33.310 -12.772 -27.281  0.00  0.00    -0.000 C 
BRANCH  16  24
ATOM     21  F   UNL     1      34.560 -12.920 -22.721  0.00  0.00    -0.166 F 
ATOM     22  F   UNL     1      34.335 -11.001 -23.706  0.00  0.00    -0.166 F 
ATOM     23  F   UNL     1      32.591 -12.012 -22.891  0.00  0.00    -0.166 F 
ATOM     24  C   UNL     1      33.751 -12.226 -23.574  0.00  0.00    +0.419 C 
ENDBRANCH  16  24
ENDBRANCH  13  15
ENDBRANCH   2  12
BRANCH   1  25
ATOM     25  C   UNL     1      35.994 -21.474 -20.241  0.00  0.00    +0.002 C 
BRANCH  25  26
ATOM     26  C   UNL     1      35.363 -21.826 -18.899  0.00  0.00    +0.025 C 
BRANCH  26  27
ATOM     27  C   UNL     1      36.427 -21.999 -17.826  0.00  0.00    +0.151 C 
BRANCH  27  28
ATOM     28  S   UNL     1      35.757 -22.738 -16.369  0.00  0.00    -0.010 S 
ATOM     29  O   UNL     1      36.425 -24.010 -16.155  0.00  0.00    -0.173 OA
ATOM     30  O   UNL     1      35.730 -21.731 -15.320  0.00  0.00    -0.173 OA
BRANCH  28  31
ATOM     31  C   UNL     1      34.072 -23.085 -16.822  0.00  0.00    +0.151 C 
ATOM     32  C   UNL     1      33.258 -23.533 -15.628  0.00  0.00    +0.027 C 
ENDBRANCH  28  31
ENDBRANCH  27  28
ENDBRANCH  26  27
ENDBRANCH  25  26
ENDBRANCH   1  25
TORSDOF 8
ENDMDL
