MODEL 1
REMARK VINA RESULT:      -9.3      0.000      0.000
REMARK  Name = 1069140
REMARK  5 active torsions:
REMARK  status: ('A' for Active; 'I' for Inactive)
REMARK    1  A    between atoms: N_1  and  C_4
REMARK    2  A    between atoms: N_1  and  S_14
REMARK    3  A    between atoms: C_5  and  C_11
REMARK    4  A    between atoms: C_11  and  O_12
REMARK    5  A    between atoms: S_14  and  C_18
REMARK                            x       y       z     vdW  Elec       q    Type
REMARK                         _______ _______ _______ _____ _____    ______ ____
ROOT
ATOM      1  N   UNL     1      34.002 -17.630 -22.384  0.00  0.00    -0.215 N 
ATOM      2  H   UNL     1      33.507 -18.331 -22.865  0.00  0.00    +0.174 HD
ENDROOT
BRANCH   1   4
ATOM      3 BR   UNL     1      32.137 -11.813 -22.527  0.00  0.00    -0.049 Br
ATOM      4  C   UNL     1      33.571 -16.267 -22.436  0.00  0.00    +0.071 C 
ATOM      5  C   UNL     1      33.642 -15.535 -23.621  0.00  0.00    +0.091 C 
ATOM      6  C   UNL     1      33.071 -15.670 -21.278  0.00  0.00    +0.017 C 
ATOM      7  C   UNL     1      33.216 -14.208 -23.649  0.00  0.00    +0.014 C 
ATOM      8  C   UNL     1      32.644 -14.343 -21.305  0.00  0.00    +0.008 C 
ATOM      9  C   UNL     1      32.716 -13.612 -22.491  0.00  0.00    +0.035 C 
BRANCH   5  11
ATOM     10  O   UNL     1      33.544 -16.217 -25.913  0.00  0.00    -0.245 OA
ATOM     11  C   UNL     1      34.159 -16.130 -24.847  0.00  0.00    +0.339 C 
BRANCH  11  12
ATOM     12  O   UNL     1      35.428 -16.597 -24.700  0.00  0.00    -0.477 OA
ATOM     13  H   UNL     1      35.735 -16.862 -23.856  0.00  0.00    +0.295 HD
ENDBRANCH  11  12
ENDBRANCH   5  11
ENDBRANCH   1   4
BRANCH   1  14
ATOM     14  S   UNL     1      35.403 -18.021 -21.464  0.00  0.00    +0.074 S 
ATOM     15  O   UNL     1      36.485 -18.350 -22.373  0.00  0.00    -0.150 OA
ATOM     16  O   UNL     1      35.611 -17.030 -20.426  0.00  0.00    -0.150 OA
BRANCH  14  18
ATOM     17 CL   UNL     1      33.682 -23.358 -18.688  0.00  0.00    -0.082 Cl
ATOM     18  C   UNL     1      34.916 -19.531 -20.681  0.00  0.00    +0.125 C 
ATOM     19  C   UNL     1      33.571 -19.834 -20.580  0.00  0.00    +0.021 C 
ATOM     20  C   UNL     1      35.892 -20.377 -20.183  0.00  0.00    +0.021 C 
ATOM     21  C   UNL     1      33.187 -21.024 -19.961  0.00  0.00    +0.013 C 
ATOM     22  C   UNL     1      35.508 -21.567 -19.564  0.00  0.00    +0.013 C 
ATOM     23  C   UNL     1      34.156 -21.890 -19.453  0.00  0.00    +0.058 C 
ENDBRANCH  14  18
ENDBRANCH   1  14
TORSDOF 5
ENDMDL
MODEL 2
REMARK VINA RESULT:      -9.1      4.983      7.669
REMARK  Name = 1069140
REMARK  5 active torsions:
REMARK  status: ('A' for Active; 'I' for Inactive)
REMARK    1  A    between atoms: N_1  and  C_4
REMARK    2  A    between atoms: N_1  and  S_14
REMARK    3  A    between atoms: C_5  and  C_11
REMARK    4  A    between atoms: C_11  and  O_12
REMARK    5  A    between atoms: S_14  and  C_18
REMARK                            x       y       z     vdW  Elec       q    Type
REMARK                         _______ _______ _______ _____ _____    ______ ____
ROOT
ATOM      1  N   UNL     1      34.533 -14.534 -23.632  0.00  0.00    -0.215 N 
ATOM      2  H   UNL     1      35.329 -14.064 -23.970  0.00  0.00    +0.174 HD
ENDROOT
BRANCH   1   4
ATOM      3 BR   UNL     1      35.073 -19.901 -20.762  0.00  0.00    -0.049 Br
ATOM      4  C   UNL     1      34.657 -15.799 -22.977  0.00  0.00    +0.071 C 
ATOM      5  C   UNL     1      34.650 -16.990 -23.705  0.00  0.00    +0.091 C 
ATOM      6  C   UNL     1      34.789 -15.833 -21.589  0.00  0.00    +0.017 C 
ATOM      7  C   UNL     1      34.773 -18.212 -23.046  0.00  0.00    +0.014 C 
ATOM      8  C   UNL     1      34.913 -17.055 -20.929  0.00  0.00    +0.008 C 
ATOM      9  C   UNL     1      34.905 -18.245 -21.658  0.00  0.00    +0.035 C 
BRANCH   5  11
ATOM     10  O   UNL     1      35.022 -16.162 -25.919  0.00  0.00    -0.245 OA
ATOM     11  C   UNL     1      34.513 -16.987 -25.156  0.00  0.00    +0.339 C 
BRANCH  11  12
ATOM     12  O   UNL     1      33.746 -18.016 -25.606  0.00  0.00    -0.477 OA
ATOM     13  H   UNL     1      32.895 -17.847 -25.959  0.00  0.00    +0.295 HD
ENDBRANCH  11  12
ENDBRANCH   5  11
ENDBRANCH   1   4
BRANCH   1  14
ATOM     14  S   UNL     1      32.965 -13.849 -23.820  0.00  0.00    +0.074 S 
ATOM     15  O   UNL     1      32.476 -14.150 -25.152  0.00  0.00    -0.150 OA
ATOM     16  O   UNL     1      32.145 -14.158 -22.664  0.00  0.00    -0.150 OA
BRANCH  14  18
ATOM     17 CL   UNL     1      34.210  -7.718 -23.702  0.00  0.00    -0.082 Cl
ATOM     18  C   UNL     1      33.318 -12.115 -23.784  0.00  0.00    +0.125 C 
ATOM     19  C   UNL     1      32.595 -11.297 -22.936  0.00  0.00    +0.021 C 
ATOM     20  C   UNL     1      34.309 -11.613 -24.609  0.00  0.00    +0.021 C 
ATOM     21  C   UNL     1      32.873  -9.930 -22.910  0.00  0.00    +0.013 C 
ATOM     22  C   UNL     1      34.587 -10.246 -24.583  0.00  0.00    +0.013 C 
ATOM     23  C   UNL     1      33.868  -9.405 -23.733  0.00  0.00    +0.058 C 
ENDBRANCH  14  18
ENDBRANCH   1  14
TORSDOF 5
ENDMDL
MODEL 3
REMARK VINA RESULT:      -9.0      1.762      2.830
REMARK  Name = 1069140
REMARK  5 active torsions:
REMARK  status: ('A' for Active; 'I' for Inactive)
REMARK    1  A    between atoms: N_1  and  C_4
REMARK    2  A    between atoms: N_1  and  S_14
REMARK    3  A    between atoms: C_5  and  C_11
REMARK    4  A    between atoms: C_11  and  O_12
REMARK    5  A    between atoms: S_14  and  C_18
REMARK                            x       y       z     vdW  Elec       q    Type
REMARK                         _______ _______ _______ _____ _____    ______ ____
ROOT
ATOM      1  N   UNL     1      34.854 -17.338 -21.714  0.00  0.00    -0.215 N 
ATOM      2  H   UNL     1      34.680 -17.078 -20.780  0.00  0.00    +0.174 HD
ENDROOT
BRANCH   1   4
ATOM      3 BR   UNL     1      32.991 -13.870 -26.386  0.00  0.00    -0.049 Br
ATOM      4  C   UNL     1      34.412 -16.513 -22.795  0.00  0.00    +0.071 C 
ATOM      5  C   UNL     1      33.856 -15.255 -22.559  0.00  0.00    +0.091 C 
ATOM      6  C   UNL     1      34.544 -16.981 -24.102  0.00  0.00    +0.017 C 
ATOM      7  C   UNL     1      33.432 -14.467 -23.628  0.00  0.00    +0.014 C 
ATOM      8  C   UNL     1      34.121 -16.194 -25.172  0.00  0.00    +0.008 C 
ATOM      9  C   UNL     1      33.565 -14.936 -24.935  0.00  0.00    +0.035 C 
BRANCH   5  11
ATOM     10  O   UNL     1      32.664 -14.279 -20.728  0.00  0.00    -0.245 OA
ATOM     11  C   UNL     1      33.705 -14.738 -21.204  0.00  0.00    +0.339 C 
BRANCH  11  12
ATOM     12  O   UNL     1      34.861 -14.813 -20.490  0.00  0.00    -0.477 OA
ATOM     13  H   UNL     1      35.504 -15.459 -20.705  0.00  0.00    +0.295 HD
ENDBRANCH  11  12
ENDBRANCH   5  11
ENDBRANCH   1   4
BRANCH   1  14
ATOM     14  S   UNL     1      35.697 -18.795 -22.075  0.00  0.00    +0.074 S 
ATOM     15  O   UNL     1      35.312 -19.245 -23.399  0.00  0.00    -0.150 OA
ATOM     16  O   UNL     1      37.101 -18.655 -21.740  0.00  0.00    -0.150 OA
BRANCH  14  18
ATOM     17 CL   UNL     1      33.148 -22.804 -18.002  0.00  0.00    -0.082 Cl
ATOM     18  C   UNL     1      34.977 -19.928 -20.921  0.00  0.00    +0.125 C 
ATOM     19  C   UNL     1      35.801 -20.778 -20.208  0.00  0.00    +0.021 C 
ATOM     20  C   UNL     1      33.603 -19.941 -20.758  0.00  0.00    +0.021 C 
ATOM     21  C   UNL     1      35.233 -21.672 -19.300  0.00  0.00    +0.013 C 
ATOM     22  C   UNL     1      33.035 -20.835 -19.850  0.00  0.00    +0.013 C 
ATOM     23  C   UNL     1      33.850 -21.700 -19.121  0.00  0.00    +0.058 C 
ENDBRANCH  14  18
ENDBRANCH   1  14
TORSDOF 5
ENDMDL
MODEL 4
REMARK VINA RESULT:      -8.8      6.227      9.054
REMARK  Name = 1069140
REMARK  5 active torsions:
REMARK  status: ('A' for Active; 'I' for Inactive)
REMARK    1  A    between atoms: N_1  and  C_4
REMARK    2  A    between atoms: N_1  and  S_14
REMARK    3  A    between atoms: C_5  and  C_11
REMARK    4  A    between atoms: C_11  and  O_12
REMARK    5  A    between atoms: S_14  and  C_18
REMARK                            x       y       z     vdW  Elec       q    Type
REMARK                         _______ _______ _______ _____ _____    ______ ____
ROOT
ATOM      1  N   UNL     1      35.256 -22.482 -17.728  0.00  0.00    -0.215 N 
ATOM      2  H   UNL     1      36.092 -22.120 -18.101  0.00  0.00    +0.174 HD
ENDROOT
BRANCH   1   4
ATOM      3 BR   UNL     1      34.946 -24.492 -11.967  0.00  0.00    -0.049 Br
ATOM      4  C   UNL     1      35.202 -22.950 -16.377  0.00  0.00    +0.071 C 
ATOM      5  C   UNL     1      36.332 -22.916 -15.559  0.00  0.00    +0.091 C 
ATOM      6  C   UNL     1      33.997 -23.443 -15.879  0.00  0.00    +0.017 C 
ATOM      7  C   UNL     1      36.256 -23.376 -14.246  0.00  0.00    +0.014 C 
ATOM      8  C   UNL     1      33.920 -23.902 -14.565  0.00  0.00    +0.008 C 
ATOM      9  C   UNL     1      35.051 -23.868 -13.748  0.00  0.00    +0.035 C 
BRANCH   5  11
ATOM     10  O   UNL     1      37.788 -21.284 -16.531  0.00  0.00    -0.245 OA
ATOM     11  C   UNL     1      37.606 -22.406 -16.051  0.00  0.00    +0.339 C 
BRANCH  11  12
ATOM     12  O   UNL     1      38.610 -23.315 -15.924  0.00  0.00    -0.477 OA
ATOM     13  H   UNL     1      39.288 -23.179 -15.291  0.00  0.00    +0.295 HD
ENDBRANCH  11  12
ENDBRANCH   5  11
ENDBRANCH   1   4
BRANCH   1  14
ATOM     14  S   UNL     1      33.832 -22.567 -18.691  0.00  0.00    +0.074 S 
ATOM     15  O   UNL     1      33.899 -23.750 -19.527  0.00  0.00    -0.150 OA
ATOM     16  O   UNL     1      32.661 -22.330 -17.869  0.00  0.00    -0.150 OA
BRANCH  14  18
ATOM     17 CL   UNL     1      34.544 -17.639 -22.482  0.00  0.00    -0.082 Cl
ATOM     18  C   UNL     1      34.033 -21.171 -19.762  0.00  0.00    +0.125 C 
ATOM     19  C   UNL     1      32.917 -20.453 -20.148  0.00  0.00    +0.021 C 
ATOM     20  C   UNL     1      35.303 -20.830 -20.192  0.00  0.00    +0.021 C 
ATOM     21  C   UNL     1      33.076 -19.354 -20.993  0.00  0.00    +0.013 C 
ATOM     22  C   UNL     1      35.461 -19.732 -21.037  0.00  0.00    +0.013 C 
ATOM     23  C   UNL     1      34.348 -18.994 -21.438  0.00  0.00    +0.058 C 
ENDBRANCH  14  18
ENDBRANCH   1  14
TORSDOF 5
ENDMDL
MODEL 5
REMARK VINA RESULT:      -8.6      5.221      8.250
REMARK  Name = 1069140
REMARK  5 active torsions:
REMARK  status: ('A' for Active; 'I' for Inactive)
REMARK    1  A    between atoms: N_1  and  C_4
REMARK    2  A    between atoms: N_1  and  S_14
REMARK    3  A    between atoms: C_5  and  C_11
REMARK    4  A    between atoms: C_11  and  O_12
REMARK    5  A    between atoms: S_14  and  C_18
REMARK                            x       y       z     vdW  Elec       q    Type
REMARK                         _______ _______ _______ _____ _____    ______ ____
ROOT
ATOM      1  N   UNL     1      34.643 -14.001 -23.375  0.00  0.00    -0.215 N 
ATOM      2  H   UNL     1      35.460 -13.458 -23.295  0.00  0.00    +0.174 HD
ENDROOT
BRANCH   1   4
ATOM      3 BR   UNL     1      34.696 -19.947 -21.971  0.00  0.00    -0.049 Br
ATOM      4  C   UNL     1      34.654 -15.389 -23.028  0.00  0.00    +0.071 C 
ATOM      5  C   UNL     1      34.484 -15.800 -21.705  0.00  0.00    +0.091 C 
ATOM      6  C   UNL     1      34.835 -16.337 -24.034  0.00  0.00    +0.017 C 
ATOM      7  C   UNL     1      34.497 -17.158 -21.390  0.00  0.00    +0.014 C 
ATOM      8  C   UNL     1      34.848 -17.695 -23.719  0.00  0.00    +0.008 C 
ATOM      9  C   UNL     1      34.678 -18.106 -22.396  0.00  0.00    +0.035 C 
BRANCH   5  11
ATOM     10  O   UNL     1      35.193 -14.231 -20.044  0.00  0.00    -0.245 OA
ATOM     11  C   UNL     1      34.291 -14.833 -20.632  0.00  0.00    +0.339 C 
BRANCH  11  12
ATOM     12  O   UNL     1      32.978 -14.649 -20.330  0.00  0.00    -0.477 OA
ATOM     13  H   UNL     1      32.314 -14.991 -20.897  0.00  0.00    +0.295 HD
ENDBRANCH  11  12
ENDBRANCH   5  11
ENDBRANCH   1   4
BRANCH   1  14
ATOM     14  S   UNL     1      33.176 -13.299 -23.938  0.00  0.00    +0.074 S 
ATOM     15  O   UNL     1      32.972 -13.683 -25.322  0.00  0.00    -0.150 OA
ATOM     16  O   UNL     1      32.119 -13.510 -22.968  0.00  0.00    -0.150 OA
BRANCH  14  18
ATOM     17 CL   UNL     1      34.579  -7.201 -23.948  0.00  0.00    -0.082 Cl
ATOM     18  C   UNL     1      33.573 -11.574 -23.939  0.00  0.00    +0.125 C 
ATOM     19  C   UNL     1      32.826 -10.711 -23.161  0.00  0.00    +0.021 C 
ATOM     20  C   UNL     1      34.623 -11.126 -24.721  0.00  0.00    +0.021 C 
ATOM     21  C   UNL     1      33.138  -9.351 -23.164  0.00  0.00    +0.013 C 
ATOM     22  C   UNL     1      34.936  -9.766 -24.723  0.00  0.00    +0.013 C 
ATOM     23  C   UNL     1      34.193  -8.879 -23.944  0.00  0.00    +0.058 C 
ENDBRANCH  14  18
ENDBRANCH   1  14
TORSDOF 5
ENDMDL
MODEL 6
REMARK VINA RESULT:      -8.5      8.046     11.141
REMARK  Name = 1069140
REMARK  5 active torsions:
REMARK  status: ('A' for Active; 'I' for Inactive)
REMARK    1  A    between atoms: N_1  and  C_4
REMARK    2  A    between atoms: N_1  and  S_14
REMARK    3  A    between atoms: C_5  and  C_11
REMARK    4  A    between atoms: C_11  and  O_12
REMARK    5  A    between atoms: S_14  and  C_18
REMARK                            x       y       z     vdW  Elec       q    Type
REMARK                         _______ _______ _______ _____ _____    ______ ____
ROOT
ATOM      1  N   UNL     1      32.527  -9.235 -23.662  0.00  0.00    -0.215 N 
ATOM      2  H   UNL     1      32.014  -9.009 -24.470  0.00  0.00    +0.174 HD
ENDROOT
BRANCH   1   4
ATOM      3 BR   UNL     1      32.600 -14.948 -21.497  0.00  0.00    -0.049 Br
ATOM      4  C   UNL     1      32.556 -10.577 -23.169  0.00  0.00    +0.071 C 
ATOM      5  C   UNL     1      33.379 -11.540 -23.754  0.00  0.00    +0.091 C 
ATOM      6  C   UNL     1      31.747 -10.918 -22.085  0.00  0.00    +0.017 C 
ATOM      7  C   UNL     1      33.392 -12.842 -23.257  0.00  0.00    +0.014 C 
ATOM      8  C   UNL     1      31.760 -12.221 -21.587  0.00  0.00    +0.008 C 
ATOM      9  C   UNL     1      32.583 -13.183 -22.173  0.00  0.00    +0.035 C 
BRANCH   5  11
ATOM     10  O   UNL     1      34.045 -11.572 -26.052  0.00  0.00    -0.245 OA
ATOM     11  C   UNL     1      34.236 -11.214 -24.887  0.00  0.00    +0.339 C 
BRANCH  11  12
ATOM     12  O   UNL     1      35.303 -10.451 -24.527  0.00  0.00    -0.477 OA
ATOM     13  H   UNL     1      35.646  -9.814 -25.122  0.00  0.00    +0.295 HD
ENDBRANCH  11  12
ENDBRANCH   5  11
ENDBRANCH   1   4
BRANCH   1  14
ATOM     14  S   UNL     1      33.405  -8.022 -22.813  0.00  0.00    +0.074 S 
ATOM     15  O   UNL     1      33.064  -8.093 -21.405  0.00  0.00    -0.150 OA
ATOM     16  O   UNL     1      34.797  -8.038 -23.219  0.00  0.00    -0.150 OA
BRANCH  14  18
ATOM     17 CL   UNL     1      30.829  -2.768 -25.030  0.00  0.00    -0.082 Cl
ATOM     18  C   UNL     1      32.675  -6.537 -23.442  0.00  0.00    +0.125 C 
ATOM     19  C   UNL     1      32.968  -6.135 -24.731  0.00  0.00    +0.021 C 
ATOM     20  C   UNL     1      31.827  -5.806 -22.628  0.00  0.00    +0.021 C 
ATOM     21  C   UNL     1      32.394  -4.964 -25.226  0.00  0.00    +0.013 C 
ATOM     22  C   UNL     1      31.253  -4.635 -23.122  0.00  0.00    +0.013 C 
ATOM     23  C   UNL     1      31.536  -4.214 -24.421  0.00  0.00    +0.058 C 
ENDBRANCH  14  18
ENDBRANCH   1  14
TORSDOF 5
ENDMDL
MODEL 7
REMARK VINA RESULT:      -8.5      6.967     10.010
REMARK  Name = 1069140
REMARK  5 active torsions:
REMARK  status: ('A' for Active; 'I' for Inactive)
REMARK    1  A    between atoms: N_1  and  C_4
REMARK    2  A    between atoms: N_1  and  S_14
REMARK    3  A    between atoms: C_5  and  C_11
REMARK    4  A    between atoms: C_11  and  O_12
REMARK    5  A    between atoms: S_14  and  C_18
REMARK                            x       y       z     vdW  Elec       q    Type
REMARK                         _______ _______ _______ _____ _____    ______ ____
ROOT
ATOM      1  N   UNL     1      34.031 -22.380 -16.223  0.00  0.00    -0.215 N 
ATOM      2  H   UNL     1      33.744 -21.508 -15.866  0.00  0.00    +0.174 HD
ENDROOT
BRANCH   1   4
ATOM      3 BR   UNL     1      38.379 -25.628 -13.418  0.00  0.00    -0.049 Br
ATOM      4  C   UNL     1      35.036 -23.146 -15.553  0.00  0.00    +0.071 C 
ATOM      5  C   UNL     1      34.714 -23.961 -14.467  0.00  0.00    +0.091 C 
ATOM      6  C   UNL     1      36.354 -23.073 -16.002  0.00  0.00    +0.017 C 
ATOM      7  C   UNL     1      35.710 -24.700 -13.830  0.00  0.00    +0.014 C 
ATOM      8  C   UNL     1      37.351 -23.812 -15.366  0.00  0.00    +0.008 C 
ATOM      9  C   UNL     1      37.028 -24.626 -14.279  0.00  0.00    +0.035 C 
BRANCH   5  11
ATOM     10  O   UNL     1      32.416 -24.620 -14.559  0.00  0.00    -0.245 OA
ATOM     11  C   UNL     1      33.346 -24.058 -13.975  0.00  0.00    +0.339 C 
BRANCH  11  12
ATOM     12  O   UNL     1      33.186 -23.452 -12.768  0.00  0.00    -0.477 OA
ATOM     13  H   UNL     1      32.329 -23.356 -12.401  0.00  0.00    +0.295 HD
ENDBRANCH  11  12
ENDBRANCH   5  11
ENDBRANCH   1   4
BRANCH   1  14
ATOM     14  S   UNL     1      33.334 -23.008 -17.666  0.00  0.00    +0.074 S 
ATOM     15  O   UNL     1      33.926 -24.301 -17.950  0.00  0.00    -0.150 OA
ATOM     16  O   UNL     1      31.891 -22.870 -17.622  0.00  0.00    -0.150 OA
BRANCH  14  18
ATOM     17 CL   UNL     1      35.505 -19.030 -21.980  0.00  0.00    -0.082 Cl
ATOM     18  C   UNL     1      33.949 -21.884 -18.887  0.00  0.00    +0.125 C 
ATOM     19  C   UNL     1      35.307 -21.836 -19.136  0.00  0.00    +0.021 C 
ATOM     20  C   UNL     1      33.056 -21.074 -19.567  0.00  0.00    +0.021 C 
ATOM     21  C   UNL     1      35.791 -20.949 -20.098  0.00  0.00    +0.013 C 
ATOM     22  C   UNL     1      33.540 -20.187 -20.529  0.00  0.00    +0.013 C 
ATOM     23  C   UNL     1      34.908 -20.125 -20.794  0.00  0.00    +0.058 C 
ENDBRANCH  14  18
ENDBRANCH   1  14
TORSDOF 5
ENDMDL
MODEL 8
REMARK VINA RESULT:      -8.4      9.139     10.951
REMARK  Name = 1069140
REMARK  5 active torsions:
REMARK  status: ('A' for Active; 'I' for Inactive)
REMARK    1  A    between atoms: N_1  and  C_4
REMARK    2  A    between atoms: N_1  and  S_14
REMARK    3  A    between atoms: C_5  and  C_11
REMARK    4  A    between atoms: C_11  and  O_12
REMARK    5  A    between atoms: S_14  and  C_18
REMARK                            x       y       z     vdW  Elec       q    Type
REMARK                         _______ _______ _______ _____ _____    ______ ____
ROOT
ATOM      1  N   UNL     1      32.513 -23.209 -14.142  0.00  0.00    -0.215 N 
ATOM      2  H   UNL     1      32.339 -22.261 -14.340  0.00  0.00    +0.174 HD
ENDROOT
BRANCH   1   4
ATOM      3 BR   UNL     1      38.219 -25.390 -14.008  0.00  0.00    -0.049 Br
ATOM      4  C   UNL     1      33.850 -23.718 -14.130  0.00  0.00    +0.071 C 
ATOM      5  C   UNL     1      34.604 -23.785 -15.301  0.00  0.00    +0.091 C 
ATOM      6  C   UNL     1      34.399 -24.149 -12.922  0.00  0.00    +0.017 C 
ATOM      7  C   UNL     1      35.905 -24.284 -15.266  0.00  0.00    +0.014 C 
ATOM      8  C   UNL     1      35.701 -24.647 -12.886  0.00  0.00    +0.008 C 
ATOM      9  C   UNL     1      36.455 -24.714 -14.059  0.00  0.00    +0.035 C 
BRANCH   5  11
ATOM     10  O   UNL     1      32.876 -23.434 -16.919  0.00  0.00    -0.245 OA
ATOM     11  C   UNL     1      34.058 -23.342 -16.578  0.00  0.00    +0.339 C 
BRANCH  11  12
ATOM     12  O   UNL     1      35.007 -22.799 -17.386  0.00  0.00    -0.477 OA
ATOM     13  H   UNL     1      34.842 -21.987 -17.824  0.00  0.00    +0.295 HD
ENDBRANCH  11  12
ENDBRANCH   5  11
ENDBRANCH   1   4
BRANCH   1  14
ATOM     14  S   UNL     1      31.214 -24.287 -13.804  0.00  0.00    +0.074 S 
ATOM     15  O   UNL     1      31.611 -25.632 -14.173  0.00  0.00    -0.150 OA
ATOM     16  O   UNL     1      30.685 -24.029 -12.478  0.00  0.00    -0.150 OA
BRANCH  14  18
ATOM     17 CL   UNL     1      26.908 -22.469 -17.964  0.00  0.00    -0.082 Cl
ATOM     18  C   UNL     1      29.997 -23.771 -14.982  0.00  0.00    +0.125 C 
ATOM     19  C   UNL     1      29.565 -22.459 -14.974  0.00  0.00    +0.021 C 
ATOM     20  C   UNL     1      29.501 -24.695 -15.886  0.00  0.00    +0.021 C 
ATOM     21  C   UNL     1      28.605 -22.053 -15.901  0.00  0.00    +0.013 C 
ATOM     22  C   UNL     1      28.541 -24.289 -16.813  0.00  0.00    +0.013 C 
ATOM     23  C   UNL     1      28.093 -22.969 -16.821  0.00  0.00    +0.058 C 
ENDBRANCH  14  18
ENDBRANCH   1  14
TORSDOF 5
ENDMDL
MODEL 9
REMARK VINA RESULT:      -8.4      9.088     10.713
REMARK  Name = 1069140
REMARK  5 active torsions:
REMARK  status: ('A' for Active; 'I' for Inactive)
REMARK    1  A    between atoms: N_1  and  C_4
REMARK    2  A    between atoms: N_1  and  S_14
REMARK    3  A    between atoms: C_5  and  C_11
REMARK    4  A    between atoms: C_11  and  O_12
REMARK    5  A    between atoms: S_14  and  C_18
REMARK                            x       y       z     vdW  Elec       q    Type
REMARK                         _______ _______ _______ _____ _____    ______ ____
ROOT
ATOM      1  N   UNL     1      34.057 -25.074 -14.204  0.00  0.00    -0.215 N 
ATOM      2  H   UNL     1      34.360 -25.886 -14.671  0.00  0.00    +0.174 HD
ENDROOT
BRANCH   1   4
ATOM      3 BR   UNL     1      28.679 -22.512 -15.558  0.00  0.00    -0.049 Br
ATOM      4  C   UNL     1      32.806 -24.466 -14.536  0.00  0.00    +0.071 C 
ATOM      5  C   UNL     1      32.673 -23.672 -15.676  0.00  0.00    +0.091 C 
ATOM      6  C   UNL     1      31.708 -24.677 -13.702  0.00  0.00    +0.017 C 
ATOM      7  C   UNL     1      31.444 -23.089 -15.980  0.00  0.00    +0.014 C 
ATOM      8  C   UNL     1      30.478 -24.094 -14.006  0.00  0.00    +0.008 C 
ATOM      9  C   UNL     1      30.346 -23.300 -15.147  0.00  0.00    +0.035 C 
BRANCH   5  11
ATOM     10  O   UNL     1      33.858 -23.768 -17.753  0.00  0.00    -0.245 OA
ATOM     11  C   UNL     1      33.801 -23.433 -16.567  0.00  0.00    +0.339 C 
BRANCH  11  12
ATOM     12  O   UNL     1      34.822 -22.783 -15.946  0.00  0.00    -0.477 OA
ATOM     13  H   UNL     1      35.663 -23.190 -15.876  0.00  0.00    +0.295 HD
ENDBRANCH  11  12
ENDBRANCH   5  11
ENDBRANCH   1   4
BRANCH   1  14
ATOM     14  S   UNL     1      35.025 -24.360 -12.973  0.00  0.00    +0.074 S 
ATOM     15  O   UNL     1      35.022 -22.920 -13.149  0.00  0.00    -0.150 OA
ATOM     16  O   UNL     1      34.689 -24.929 -11.682  0.00  0.00    -0.150 OA
BRANCH  14  18
ATOM     17 CL   UNL     1      40.751 -26.356 -14.516  0.00  0.00    -0.082 Cl
ATOM     18  C   UNL     1      36.645 -24.926 -13.408  0.00  0.00    +0.125 C 
ATOM     19  C   UNL     1      37.714 -24.594 -12.598  0.00  0.00    +0.021 C 
ATOM     20  C   UNL     1      36.807 -25.687 -14.552  0.00  0.00    +0.021 C 
ATOM     21  C   UNL     1      38.991 -25.039 -12.942  0.00  0.00    +0.013 C 
ATOM     22  C   UNL     1      38.084 -26.132 -14.896  0.00  0.00    +0.013 C 
ATOM     23  C   UNL     1      39.176 -25.808 -14.091  0.00  0.00    +0.058 C 
ENDBRANCH  14  18
ENDBRANCH   1  14
TORSDOF 5
ENDMDL
