MODEL 1
REMARK VINA RESULT:      -7.1      0.000      0.000
REMARK  Name = 1986
REMARK  2 active torsions:
REMARK  status: ('A' for Active; 'I' for Inactive)
REMARK    1  A    between atoms: C_6  and  S_11
REMARK    2  A    between atoms: S_11  and  N_14
REMARK                            x       y       z     vdW  Elec       q    Type
REMARK                         _______ _______ _______ _____ _____    ______ ____
ROOT
ATOM      1  S   UNL     1      36.042 -23.731 -14.236  0.00  0.00    -0.011 S 
ATOM      2  O   UNL     1      32.105 -23.363 -16.659  0.00  0.00    -0.275 OA
ATOM      3  N   UNL     1      34.419 -23.280 -16.256  0.00  0.00    -0.263 N 
ATOM      4  N   UNL     1      33.952 -24.314 -12.872  0.00  0.00    -0.119 NA
ATOM      5  N   UNL     1      33.495 -23.984 -14.136  0.00  0.00    -0.124 NA
ATOM      6  C   UNL     1      35.262 -24.223 -12.789  0.00  0.00    +0.256 A 
ATOM      7  C   UNL     1      34.480 -23.653 -14.968  0.00  0.00    +0.189 A 
ATOM      8  C   UNL     1      33.237 -23.145 -17.066  0.00  0.00    +0.228 C 
ATOM      9  C   UNL     1      33.539 -22.703 -18.467  0.00  0.00    +0.095 C 
ATOM     10  H   UNL     1      35.276 -23.077 -16.694  0.00  0.00    +0.157 HD
ENDROOT
BRANCH   6  11
ATOM     11  S   UNL     1      36.229 -24.550 -11.386  0.00  0.00    +0.081 S 
ATOM     12  O   UNL     1      35.302 -24.885 -10.302  0.00  0.00    -0.151 OA
ATOM     13  O   UNL     1      37.234 -25.526 -11.810  0.00  0.00    -0.151 OA
BRANCH  11  14
ATOM     14  N   UNL     1      37.060 -23.113 -10.916  0.00  0.00    -0.202 NA
ATOM     15  H   UNL     1      38.051 -23.205 -11.138  0.00  0.00    +0.144 HD
ATOM     16  H   UNL     1      36.950 -22.970  -9.912  0.00  0.00    +0.144 HD
ENDBRANCH  11  14
ENDBRANCH   6  11
TORSDOF 2
ENDMDL
MODEL 2
REMARK VINA RESULT:      -7.0      1.820      2.270
REMARK  Name = 1986
REMARK  2 active torsions:
REMARK  status: ('A' for Active; 'I' for Inactive)
REMARK    1  A    between atoms: C_6  and  S_11
REMARK    2  A    between atoms: S_11  and  N_14
REMARK                            x       y       z     vdW  Elec       q    Type
REMARK                         _______ _______ _______ _____ _____    ______ ____
ROOT
ATOM      1  S   UNL     1      35.403 -23.916 -13.385  0.00  0.00    -0.011 S 
ATOM      2  O   UNL     1      33.871 -23.463 -17.739  0.00  0.00    -0.275 OA
ATOM      3  N   UNL     1      33.753 -23.509 -15.392  0.00  0.00    -0.263 N 
ATOM      4  N   UNL     1      37.236 -24.246 -15.145  0.00  0.00    -0.119 NA
ATOM      5  N   UNL     1      36.078 -23.981 -15.855  0.00  0.00    -0.124 NA
ATOM      6  C   UNL     1      37.023 -24.242 -13.847  0.00  0.00    +0.256 A 
ATOM      7  C   UNL     1      35.024 -23.785 -15.064  0.00  0.00    +0.189 A 
ATOM      8  C   UNL     1      33.210 -23.356 -16.716  0.00  0.00    +0.228 C 
ATOM      9  C   UNL     1      31.741 -23.053 -16.712  0.00  0.00    +0.095 C 
ATOM     10  H   UNL     1      33.122 -23.400 -14.645  0.00  0.00    +0.157 HD
ENDROOT
BRANCH   6  11
ATOM     11  S   UNL     1      38.205 -24.527 -12.610  0.00  0.00    +0.081 S 
ATOM     12  O   UNL     1      37.653 -25.558 -11.727  0.00  0.00    -0.151 OA
ATOM     13  O   UNL     1      39.468 -24.770 -13.309  0.00  0.00    -0.151 OA
BRANCH  11  14
ATOM     14  N   UNL     1      38.399 -23.099 -11.662  0.00  0.00    -0.202 NA
ATOM     15  H   UNL     1      39.255 -22.620 -11.939  0.00  0.00    +0.144 HD
ATOM     16  H   UNL     1      38.455 -23.351 -10.675  0.00  0.00    +0.144 HD
ENDBRANCH  11  14
ENDBRANCH   6  11
TORSDOF 2
ENDMDL
MODEL 3
REMARK VINA RESULT:      -7.0      2.051      2.433
REMARK  Name = 1986
REMARK  2 active torsions:
REMARK  status: ('A' for Active; 'I' for Inactive)
REMARK    1  A    between atoms: C_6  and  S_11
REMARK    2  A    between atoms: S_11  and  N_14
REMARK                            x       y       z     vdW  Elec       q    Type
REMARK                         _______ _______ _______ _____ _____    ______ ____
ROOT
ATOM      1  S   UNL     1      35.362 -23.908 -13.683  0.00  0.00    -0.011 S 
ATOM      2  O   UNL     1      35.489 -22.444 -18.082  0.00  0.00    -0.275 OA
ATOM      3  N   UNL     1      34.529 -23.216 -16.080  0.00  0.00    -0.263 N 
ATOM      4  N   UNL     1      37.727 -23.359 -14.502  0.00  0.00    -0.119 NA
ATOM      5  N   UNL     1      36.890 -23.104 -15.575  0.00  0.00    -0.124 NA
ATOM      6  C   UNL     1      37.058 -23.785 -13.452  0.00  0.00    +0.256 A 
ATOM      7  C   UNL     1      35.611 -23.346 -15.296  0.00  0.00    +0.189 A 
ATOM      8  C   UNL     1      34.495 -22.770 -17.447  0.00  0.00    +0.228 C 
ATOM      9  C   UNL     1      33.109 -22.749 -18.019  0.00  0.00    +0.095 C 
ATOM     10  H   UNL     1      33.664 -23.451 -15.674  0.00  0.00    +0.157 HD
ENDROOT
BRANCH   6  11
ATOM     11  S   UNL     1      37.727 -24.215 -11.910  0.00  0.00    +0.081 S 
ATOM     12  O   UNL     1      38.014 -25.650 -11.959  0.00  0.00    -0.151 OA
ATOM     13  O   UNL     1      38.813 -23.264 -11.665  0.00  0.00    -0.151 OA
BRANCH  11  14
ATOM     14  N   UNL     1      36.537 -23.977 -10.684  0.00  0.00    -0.202 NA
ATOM     15  H   UNL     1      35.948 -23.183 -10.931  0.00  0.00    +0.144 HD
ATOM     16  H   UNL     1      37.000 -23.791  -9.793  0.00  0.00    +0.144 HD
ENDBRANCH  11  14
ENDBRANCH   6  11
TORSDOF 2
ENDMDL
MODEL 4
REMARK VINA RESULT:      -6.8      5.514      7.724
REMARK  Name = 1986
REMARK  2 active torsions:
REMARK  status: ('A' for Active; 'I' for Inactive)
REMARK    1  A    between atoms: C_6  and  S_11
REMARK    2  A    between atoms: S_11  and  N_14
REMARK                            x       y       z     vdW  Elec       q    Type
REMARK                         _______ _______ _______ _____ _____    ______ ____
ROOT
ATOM      1  S   UNL     1      33.250 -20.518 -20.245  0.00  0.00    -0.011 S 
ATOM      2  O   UNL     1      36.606 -18.118 -22.364  0.00  0.00    -0.275 OA
ATOM      3  N   UNL     1      34.414 -18.691 -21.737  0.00  0.00    -0.263 N 
ATOM      4  N   UNL     1      35.601 -21.418 -19.763  0.00  0.00    -0.119 NA
ATOM      5  N   UNL     1      35.780 -20.333 -20.604  0.00  0.00    -0.124 NA
ATOM      6  C   UNL     1      34.329 -21.623 -19.497  0.00  0.00    +0.256 A 
ATOM      7  C   UNL     1      34.631 -19.753 -20.946  0.00  0.00    +0.189 A 
ATOM      8  C   UNL     1      35.403 -17.903 -22.423  0.00  0.00    +0.228 C 
ATOM      9  C   UNL     1      34.804 -16.787 -23.226  0.00  0.00    +0.095 C 
ATOM     10  H   UNL     1      33.476 -18.421 -21.861  0.00  0.00    +0.157 HD
ENDROOT
BRANCH   6  11
ATOM     11  S   UNL     1      33.678 -22.875 -18.488  0.00  0.00    +0.081 S 
ATOM     12  O   UNL     1      32.338 -22.441 -18.086  0.00  0.00    -0.151 OA
ATOM     13  O   UNL     1      33.844 -24.122 -19.237  0.00  0.00    -0.151 OA
BRANCH  11  14
ATOM     14  N   UNL     1      34.623 -23.000 -17.050  0.00  0.00    -0.202 NA
ATOM     15  H   UNL     1      34.230 -22.394 -16.331  0.00  0.00    +0.144 HD
ATOM     16  H   UNL     1      35.582 -22.713 -17.248  0.00  0.00    +0.144 HD
ENDBRANCH  11  14
ENDBRANCH   6  11
TORSDOF 2
ENDMDL
MODEL 5
REMARK VINA RESULT:      -6.8      2.104      2.516
REMARK  Name = 1986
REMARK  2 active torsions:
REMARK  status: ('A' for Active; 'I' for Inactive)
REMARK    1  A    between atoms: C_6  and  S_11
REMARK    2  A    between atoms: S_11  and  N_14
REMARK                            x       y       z     vdW  Elec       q    Type
REMARK                         _______ _______ _______ _____ _____    ______ ____
ROOT
ATOM      1  S   UNL     1      35.019 -24.304 -13.393  0.00  0.00    -0.011 S 
ATOM      2  O   UNL     1      33.228 -23.500 -17.595  0.00  0.00    -0.275 OA
ATOM      3  N   UNL     1      33.279 -23.635 -15.249  0.00  0.00    -0.263 N 
ATOM      4  N   UNL     1      36.669 -24.752 -15.302  0.00  0.00    -0.119 NA
ATOM      5  N   UNL     1      35.497 -24.334 -15.909  0.00  0.00    -0.124 NA
ATOM      6  C   UNL     1      36.554 -24.781 -13.991  0.00  0.00    +0.256 A 
ATOM      7  C   UNL     1      34.533 -24.060 -15.032  0.00  0.00    +0.189 A 
ATOM      8  C   UNL     1      32.660 -23.367 -16.520  0.00  0.00    +0.228 C 
ATOM      9  C   UNL     1      31.238 -22.909 -16.390  0.00  0.00    +0.095 C 
ATOM     10  H   UNL     1      32.721 -23.491 -14.451  0.00  0.00    +0.157 HD
ENDROOT
BRANCH   6  11
ATOM     11  S   UNL     1      37.786 -25.246 -12.861  0.00  0.00    +0.081 S 
ATOM     12  O   UNL     1      38.414 -24.010 -12.388  0.00  0.00    -0.151 OA
ATOM     13  O   UNL     1      37.135 -26.143 -11.905  0.00  0.00    -0.151 OA
BRANCH  11  14
ATOM     14  N   UNL     1      39.004 -26.151 -13.682  0.00  0.00    -0.202 NA
ATOM     15  H   UNL     1      39.175 -27.023 -13.182  0.00  0.00    +0.144 HD
ATOM     16  H   UNL     1      39.866 -25.606 -13.718  0.00  0.00    +0.144 HD
ENDBRANCH  11  14
ENDBRANCH   6  11
TORSDOF 2
ENDMDL
MODEL 6
REMARK VINA RESULT:      -6.8      2.304      2.520
REMARK  Name = 1986
REMARK  2 active torsions:
REMARK  status: ('A' for Active; 'I' for Inactive)
REMARK    1  A    between atoms: C_6  and  S_11
REMARK    2  A    between atoms: S_11  and  N_14
REMARK                            x       y       z     vdW  Elec       q    Type
REMARK                         _______ _______ _______ _____ _____    ______ ____
ROOT
ATOM      1  S   UNL     1      35.652 -23.664 -14.406  0.00  0.00    -0.011 S 
ATOM      2  O   UNL     1      31.201 -23.669 -13.100  0.00  0.00    -0.275 OA
ATOM      3  N   UNL     1      33.043 -23.348 -14.525  0.00  0.00    -0.263 N 
ATOM      4  N   UNL     1      35.299 -24.493 -12.008  0.00  0.00    -0.119 NA
ATOM      5  N   UNL     1      34.037 -24.188 -12.488  0.00  0.00    -0.124 NA
ATOM      6  C   UNL     1      36.231 -24.265 -12.907  0.00  0.00    +0.256 A 
ATOM      7  C   UNL     1      34.060 -23.738 -13.741  0.00  0.00    +0.189 A 
ATOM      8  C   UNL     1      31.645 -23.323 -14.187  0.00  0.00    +0.228 C 
ATOM      9  C   UNL     1      30.783 -22.824 -15.308  0.00  0.00    +0.095 C 
ATOM     10  H   UNL     1      33.280 -23.046 -15.431  0.00  0.00    +0.157 HD
ENDROOT
BRANCH   6  11
ATOM     11  S   UNL     1      37.936 -24.515 -12.708  0.00  0.00    +0.081 S 
ATOM     12  O   UNL     1      38.097 -25.792 -12.009  0.00  0.00    -0.151 OA
ATOM     13  O   UNL     1      38.526 -24.334 -14.036  0.00  0.00    -0.151 OA
BRANCH  11  14
ATOM     14  N   UNL     1      38.578 -23.289 -11.679  0.00  0.00    -0.202 NA
ATOM     15  H   UNL     1      37.882 -23.033 -10.979  0.00  0.00    +0.144 HD
ATOM     16  H   UNL     1      38.816 -22.468 -12.236  0.00  0.00    +0.144 HD
ENDBRANCH  11  14
ENDBRANCH   6  11
TORSDOF 2
ENDMDL
MODEL 7
REMARK VINA RESULT:      -6.6      6.173      8.980
REMARK  Name = 1986
REMARK  2 active torsions:
REMARK  status: ('A' for Active; 'I' for Inactive)
REMARK    1  A    between atoms: C_6  and  S_11
REMARK    2  A    between atoms: S_11  and  N_14
REMARK                            x       y       z     vdW  Elec       q    Type
REMARK                         _______ _______ _______ _____ _____    ______ ____
ROOT
ATOM      1  S   UNL     1      33.048 -20.010 -20.693  0.00  0.00    -0.011 S 
ATOM      2  O   UNL     1      34.359 -23.235 -17.628  0.00  0.00    -0.275 OA
ATOM      3  N   UNL     1      32.884 -21.831 -18.802  0.00  0.00    -0.263 N 
ATOM      4  N   UNL     1      35.573 -20.445 -20.696  0.00  0.00    -0.119 NA
ATOM      5  N   UNL     1      35.048 -21.294 -19.736  0.00  0.00    -0.124 NA
ATOM      6  C   UNL     1      34.638 -19.720 -21.270  0.00  0.00    +0.256 A 
ATOM      7  C   UNL     1      33.726 -21.179 -19.619  0.00  0.00    +0.189 A 
ATOM      8  C   UNL     1      33.220 -22.838 -17.831  0.00  0.00    +0.228 C 
ATOM      9  C   UNL     1      32.024 -23.353 -17.087  0.00  0.00    +0.095 C 
ATOM     10  H   UNL     1      31.932 -21.594 -18.876  0.00  0.00    +0.157 HD
ENDROOT
BRANCH   6  11
ATOM     11  S   UNL     1      34.873 -18.539 -22.518  0.00  0.00    +0.081 S 
ATOM     12  O   UNL     1      34.430 -19.154 -23.772  0.00  0.00    -0.151 OA
ATOM     13  O   UNL     1      34.226 -17.316 -22.041  0.00  0.00    -0.151 OA
BRANCH  11  14
ATOM     14  N   UNL     1      36.558 -18.208 -22.683  0.00  0.00    -0.202 NA
ATOM     15  H   UNL     1      37.093 -18.893 -22.150  0.00  0.00    +0.144 HD
ATOM     16  H   UNL     1      36.757 -17.272 -22.329  0.00  0.00    +0.144 HD
ENDBRANCH  11  14
ENDBRANCH   6  11
TORSDOF 2
ENDMDL
MODEL 8
REMARK VINA RESULT:      -6.4      4.182      6.705
REMARK  Name = 1986
REMARK  2 active torsions:
REMARK  status: ('A' for Active; 'I' for Inactive)
REMARK    1  A    between atoms: C_6  and  S_11
REMARK    2  A    between atoms: S_11  and  N_14
REMARK                            x       y       z     vdW  Elec       q    Type
REMARK                         _______ _______ _______ _____ _____    ______ ____
ROOT
ATOM      1  S   UNL     1      31.242 -23.140 -16.339  0.00  0.00    -0.011 S 
ATOM      2  O   UNL     1      33.882 -24.409 -12.743  0.00  0.00    -0.275 OA
ATOM      3  N   UNL     1      33.392 -23.682 -14.923  0.00  0.00    -0.263 N 
ATOM      4  N   UNL     1      29.887 -23.765 -14.256  0.00  0.00    -0.119 NA
ATOM      5  N   UNL     1      31.215 -23.930 -13.902  0.00  0.00    -0.124 NA
ATOM      6  C   UNL     1      29.761 -23.357 -15.500  0.00  0.00    +0.256 A 
ATOM      7  C   UNL     1      32.051 -23.638 -14.897  0.00  0.00    +0.189 A 
ATOM      8  C   UNL     1      34.270 -24.064 -13.850  0.00  0.00    +0.228 C 
ATOM      9  C   UNL     1      35.719 -24.000 -14.232  0.00  0.00    +0.095 C 
ATOM     10  H   UNL     1      33.822 -23.423 -15.770  0.00  0.00    +0.157 HD
ENDROOT
BRANCH   6  11
ATOM     11  S   UNL     1      28.273 -23.031 -16.330  0.00  0.00    +0.081 S 
ATOM     12  O   UNL     1      27.234 -22.912 -15.304  0.00  0.00    -0.151 OA
ATOM     13  O   UNL     1      28.549 -21.902 -17.220  0.00  0.00    -0.151 OA
BRANCH  11  14
ATOM     14  N   UNL     1      27.859 -24.385 -17.316  0.00  0.00    -0.202 NA
ATOM     15  H   UNL     1      26.946 -24.230 -17.742  0.00  0.00    +0.144 HD
ATOM     16  H   UNL     1      27.826 -25.227 -16.740  0.00  0.00    +0.144 HD
ENDBRANCH  11  14
ENDBRANCH   6  11
TORSDOF 2
ENDMDL
MODEL 9
REMARK VINA RESULT:      -6.3      3.255      4.271
REMARK  Name = 1986
REMARK  2 active torsions:
REMARK  status: ('A' for Active; 'I' for Inactive)
REMARK    1  A    between atoms: C_6  and  S_11
REMARK    2  A    between atoms: S_11  and  N_14
REMARK                            x       y       z     vdW  Elec       q    Type
REMARK                         _______ _______ _______ _____ _____    ______ ____
ROOT
ATOM      1  S   UNL     1      32.582 -23.596 -14.351  0.00  0.00    -0.011 S 
ATOM      2  O   UNL     1      29.194 -22.423 -17.293  0.00  0.00    -0.275 OA
ATOM      3  N   UNL     1      30.185 -22.964 -15.231  0.00  0.00    -0.263 N 
ATOM      4  N   UNL     1      33.380 -23.357 -16.774  0.00  0.00    -0.119 NA
ATOM      5  N   UNL     1      32.024 -23.078 -16.797  0.00  0.00    -0.124 NA
ATOM      6  C   UNL     1      33.798 -23.643 -15.560  0.00  0.00    +0.256 A 
ATOM      7  C   UNL     1      31.463 -23.163 -15.592  0.00  0.00    +0.189 A 
ATOM      8  C   UNL     1      29.087 -22.601 -16.087  0.00  0.00    +0.228 C 
ATOM      9  C   UNL     1      27.791 -22.465 -15.345  0.00  0.00    +0.095 C 
ATOM     10  H   UNL     1      29.977 -23.080 -14.276  0.00  0.00    +0.157 HD
ENDROOT
BRANCH   6  11
ATOM     11  S   UNL     1      35.421 -24.049 -15.100  0.00  0.00    +0.081 S 
ATOM     12  O   UNL     1      36.308 -23.429 -16.088  0.00  0.00    -0.151 OA
ATOM     13  O   UNL     1      35.541 -23.686 -13.687  0.00  0.00    -0.151 OA
BRANCH  11  14
ATOM     14  N   UNL     1      35.641 -25.755 -15.222  0.00  0.00    -0.202 NA
ATOM     15  H   UNL     1      34.967 -26.229 -14.622  0.00  0.00    +0.144 HD
ATOM     16  H   UNL     1      36.588 -25.998 -14.927  0.00  0.00    +0.144 HD
ENDBRANCH  11  14
ENDBRANCH   6  11
TORSDOF 2
ENDMDL
