MODEL 1
REMARK VINA RESULT:      -5.8      0.000      0.000
REMARK  Name = 27304
REMARK  7 active torsions:
REMARK  status: ('A' for Active; 'I' for Inactive)
REMARK    1  A    between atoms: C_1  and  P_2
REMARK    2  A    between atoms: C_1  and  P_8
REMARK    3  A    between atoms: C_1  and  O_14
REMARK    4  A    between atoms: P_2  and  O_4
REMARK    5  A    between atoms: P_2  and  O_6
REMARK    6  A    between atoms: P_8  and  O_10
REMARK    7  A    between atoms: P_8  and  O_12
REMARK                            x       y       z     vdW  Elec       q    Type
REMARK                         _______ _______ _______ _____ _____    ______ ____
ROOT
ATOM      1  C   UNL     1      38.844 -25.655 -13.853  0.00  0.00    +0.319 C 
ENDROOT
BRANCH   1   2
ATOM      2  P   UNL     1      40.479 -25.827 -14.580  0.00  0.00    +0.375 P 
ATOM      3  O   UNL     1      41.276 -26.986 -14.058  0.00  0.00    -0.255 OA
BRANCH   2   4
ATOM      4  O   UNL     1      40.189 -25.846 -16.169  0.00  0.00    -0.322 OA
ATOM      5  H   UNL     1      40.935 -25.443 -16.639  0.00  0.00    +0.220 HD
ENDBRANCH   2   4
BRANCH   2   6
ATOM      6  O   UNL     1      41.140 -24.373 -14.338  0.00  0.00    -0.322 OA
ATOM      7  H   UNL     1      41.387 -24.281 -13.404  0.00  0.00    +0.220 HD
ENDBRANCH   2   6
ENDBRANCH   1   2
BRANCH   1   8
ATOM      8  P   UNL     1      37.307 -25.443 -14.763  0.00  0.00    +0.375 P 
ATOM      9  O   UNL     1      36.081 -25.320 -13.908  0.00  0.00    -0.255 OA
BRANCH   8  10
ATOM     10  O   UNL     1      37.610 -24.179 -15.725  0.00  0.00    -0.322 OA
ATOM     11  H   UNL     1      38.562 -23.990 -15.719  0.00  0.00    +0.220 HD
ENDBRANCH   8  10
BRANCH   8  12
ATOM     12  O   UNL     1      37.311 -26.696 -15.783  0.00  0.00    -0.322 OA
ATOM     13  H   UNL     1      38.217 -27.029 -15.882  0.00  0.00    +0.220 HD
ENDBRANCH   8  12
ENDBRANCH   1   8
BRANCH   1  14
ATOM     14  O   UNL     1      38.929 -24.469 -13.071  0.00  0.00    -0.364 OA
ATOM     15  H   UNL     1      39.002 -23.699 -13.656  0.00  0.00    +0.212 HD
ENDBRANCH   1  14
TORSDOF 7
ENDMDL
MODEL 2
REMARK VINA RESULT:      -5.7      2.243      3.961
REMARK  Name = 27304
REMARK  7 active torsions:
REMARK  status: ('A' for Active; 'I' for Inactive)
REMARK    1  A    between atoms: C_1  and  P_2
REMARK    2  A    between atoms: C_1  and  P_8
REMARK    3  A    between atoms: C_1  and  O_14
REMARK    4  A    between atoms: P_2  and  O_4
REMARK    5  A    between atoms: P_2  and  O_6
REMARK    6  A    between atoms: P_8  and  O_10
REMARK    7  A    between atoms: P_8  and  O_12
REMARK                            x       y       z     vdW  Elec       q    Type
REMARK                         _______ _______ _______ _____ _____    ______ ____
ROOT
ATOM      1  C   UNL     1      37.735 -25.326 -12.606  0.00  0.00    +0.319 C 
ENDROOT
BRANCH   1   2
ATOM      2  P   UNL     1      37.269 -23.743 -11.894  0.00  0.00    +0.375 P 
ATOM      3  O   UNL     1      38.410 -22.792 -11.683  0.00  0.00    -0.255 OA
BRANCH   2   4
ATOM      4  O   UNL     1      36.101 -23.213 -12.876  0.00  0.00    -0.322 OA
ATOM      5  H   UNL     1      36.426 -23.200 -13.789  0.00  0.00    +0.220 HD
ENDBRANCH   2   4
BRANCH   2   6
ATOM      6  O   UNL     1      36.469 -24.165 -10.555  0.00  0.00    -0.322 OA
ATOM      7  H   UNL     1      37.077 -24.158  -9.800  0.00  0.00    +0.220 HD
ENDBRANCH   2   6
ENDBRANCH   1   2
BRANCH   1   8
ATOM      8  P   UNL     1      37.448 -25.839 -14.306  0.00  0.00    +0.375 P 
ATOM      9  O   UNL     1      38.144 -27.104 -14.708  0.00  0.00    -0.255 OA
BRANCH   8  10
ATOM     10  O   UNL     1      35.836 -25.868 -14.423  0.00  0.00    -0.322 OA
ATOM     11  H   UNL     1      35.498 -24.958 -14.449  0.00  0.00    +0.220 HD
ENDBRANCH   8  10
BRANCH   8  12
ATOM     12  O   UNL     1      37.860 -24.528 -15.156  0.00  0.00    -0.322 OA
ATOM     13  H   UNL     1      37.382 -24.527 -16.000  0.00  0.00    +0.220 HD
ENDBRANCH   8  12
ENDBRANCH   1   8
BRANCH   1  14
ATOM     14  O   UNL     1      37.003 -26.282 -11.846  0.00  0.00    -0.364 OA
ATOM     15  H   UNL     1      36.137 -26.429 -12.258  0.00  0.00    +0.212 HD
ENDBRANCH   1  14
TORSDOF 7
ENDMDL
MODEL 3
REMARK VINA RESULT:      -5.7      2.528      3.658
REMARK  Name = 27304
REMARK  7 active torsions:
REMARK  status: ('A' for Active; 'I' for Inactive)
REMARK    1  A    between atoms: C_1  and  P_2
REMARK    2  A    between atoms: C_1  and  P_8
REMARK    3  A    between atoms: C_1  and  O_14
REMARK    4  A    between atoms: P_2  and  O_4
REMARK    5  A    between atoms: P_2  and  O_6
REMARK    6  A    between atoms: P_8  and  O_10
REMARK    7  A    between atoms: P_8  and  O_12
REMARK                            x       y       z     vdW  Elec       q    Type
REMARK                         _______ _______ _______ _____ _____    ______ ____
ROOT
ATOM      1  C   UNL     1      36.478 -25.397 -12.795  0.00  0.00    +0.319 C 
ENDROOT
BRANCH   1   2
ATOM      2  P   UNL     1      37.844 -25.179 -13.942  0.00  0.00    +0.375 P 
ATOM      3  O   UNL     1      39.032 -26.055 -13.674  0.00  0.00    -0.255 OA
BRANCH   2   4
ATOM      4  O   UNL     1      37.158 -25.369 -15.392  0.00  0.00    -0.322 OA
ATOM      5  H   UNL     1      37.439 -24.651 -15.980  0.00  0.00    +0.220 HD
ENDBRANCH   2   4
BRANCH   2   6
ATOM      6  O   UNL     1      38.131 -23.591 -13.870  0.00  0.00    -0.322 OA
ATOM      7  H   UNL     1      37.301 -23.120 -13.697  0.00  0.00    +0.220 HD
ENDBRANCH   2   6
ENDBRANCH   1   2
BRANCH   1   8
ATOM      8  P   UNL     1      35.949 -24.208 -11.553  0.00  0.00    +0.375 P 
ATOM      9  O   UNL     1      37.016 -23.257 -11.098  0.00  0.00    -0.255 OA
BRANCH   8  10
ATOM     10  O   UNL     1      34.647 -23.522 -12.220  0.00  0.00    -0.322 OA
ATOM     11  H   UNL     1      33.980 -23.361 -11.534  0.00  0.00    +0.220 HD
ENDBRANCH   8  10
BRANCH   8  12
ATOM     12  O   UNL     1      35.325 -25.145 -10.395  0.00  0.00    -0.322 OA
ATOM     13  H   UNL     1      35.942 -25.190  -9.648  0.00  0.00    +0.220 HD
ENDBRANCH   8  12
ENDBRANCH   1   8
BRANCH   1  14
ATOM     14  O   UNL     1      36.844 -26.537 -12.024  0.00  0.00    -0.364 OA
ATOM     15  H   UNL     1      36.744 -27.338 -12.561  0.00  0.00    +0.212 HD
ENDBRANCH   1  14
TORSDOF 7
ENDMDL
MODEL 4
REMARK VINA RESULT:      -5.6      2.199      3.504
REMARK  Name = 27304
REMARK  7 active torsions:
REMARK  status: ('A' for Active; 'I' for Inactive)
REMARK    1  A    between atoms: C_1  and  P_2
REMARK    2  A    between atoms: C_1  and  P_8
REMARK    3  A    between atoms: C_1  and  O_14
REMARK    4  A    between atoms: P_2  and  O_4
REMARK    5  A    between atoms: P_2  and  O_6
REMARK    6  A    between atoms: P_8  and  O_10
REMARK    7  A    between atoms: P_8  and  O_12
REMARK                            x       y       z     vdW  Elec       q    Type
REMARK                         _______ _______ _______ _____ _____    ______ ____
ROOT
ATOM      1  C   UNL     1      36.670 -25.552 -13.139  0.00  0.00    +0.319 C 
ENDROOT
BRANCH   1   2
ATOM      2  P   UNL     1      38.080 -25.359 -14.237  0.00  0.00    +0.375 P 
ATOM      3  O   UNL     1      39.217 -24.568 -13.663  0.00  0.00    -0.255 OA
BRANCH   2   4
ATOM      4  O   UNL     1      38.439 -26.875 -14.665  0.00  0.00    -0.322 OA
ATOM      5  H   UNL     1      39.367 -27.060 -14.453  0.00  0.00    +0.220 HD
ENDBRANCH   2   4
BRANCH   2   6
ATOM      6  O   UNL     1      37.418 -24.741 -15.575  0.00  0.00    -0.322 OA
ATOM      7  H   UNL     1      37.256 -23.793 -15.447  0.00  0.00    +0.220 HD
ENDBRANCH   2   6
ENDBRANCH   1   2
BRANCH   1   8
ATOM      8  P   UNL     1      36.283 -24.499 -11.733  0.00  0.00    +0.375 P 
ATOM      9  O   UNL     1      35.313 -25.090 -10.753  0.00  0.00    -0.255 OA
BRANCH   8  10
ATOM     10  O   UNL     1      37.736 -24.126 -11.130  0.00  0.00    -0.322 OA
ATOM     11  H   UNL     1      38.418 -24.643 -11.587  0.00  0.00    +0.220 HD
ENDBRANCH   8  10
BRANCH   8  12
ATOM     12  O   UNL     1      35.803 -23.123 -12.429  0.00  0.00    -0.322 OA
ATOM     13  H   UNL     1      35.378 -22.557 -11.766  0.00  0.00    +0.220 HD
ENDBRANCH   8  12
ENDBRANCH   1   8
BRANCH   1  14
ATOM     14  O   UNL     1      36.856 -26.834 -12.548  0.00  0.00    -0.364 OA
ATOM     15  H   UNL     1      36.787 -26.760 -11.584  0.00  0.00    +0.212 HD
ENDBRANCH   1  14
TORSDOF 7
ENDMDL
MODEL 5
REMARK VINA RESULT:      -5.5      2.081      4.073
REMARK  Name = 27304
REMARK  7 active torsions:
REMARK  status: ('A' for Active; 'I' for Inactive)
REMARK    1  A    between atoms: C_1  and  P_2
REMARK    2  A    between atoms: C_1  and  P_8
REMARK    3  A    between atoms: C_1  and  O_14
REMARK    4  A    between atoms: P_2  and  O_4
REMARK    5  A    between atoms: P_2  and  O_6
REMARK    6  A    between atoms: P_8  and  O_10
REMARK    7  A    between atoms: P_8  and  O_12
REMARK                            x       y       z     vdW  Elec       q    Type
REMARK                         _______ _______ _______ _____ _____    ______ ____
ROOT
ATOM      1  C   UNL     1      37.716 -24.557 -13.423  0.00  0.00    +0.319 C 
ENDROOT
BRANCH   1   2
ATOM      2  P   UNL     1      36.683 -24.138 -12.014  0.00  0.00    +0.375 P 
ATOM      3  O   UNL     1      36.210 -25.315 -11.213  0.00  0.00    -0.255 OA
BRANCH   2   4
ATOM      4  O   UNL     1      37.568 -23.059 -11.200  0.00  0.00    -0.322 OA
ATOM      5  H   UNL     1      38.000 -22.457 -11.826  0.00  0.00    +0.220 HD
ENDBRANCH   2   4
BRANCH   2   6
ATOM      6  O   UNL     1      35.513 -23.240 -12.673  0.00  0.00    -0.322 OA
ATOM      7  H   UNL     1      35.186 -22.604 -12.017  0.00  0.00    +0.220 HD
ENDBRANCH   2   6
ENDBRANCH   1   2
BRANCH   1   8
ATOM      8  P   UNL     1      37.720 -26.132 -14.292  0.00  0.00    +0.375 P 
ATOM      9  O   UNL     1      39.082 -26.687 -14.582  0.00  0.00    -0.255 OA
BRANCH   8  10
ATOM     10  O   UNL     1      36.770 -27.068 -13.379  0.00  0.00    -0.322 OA
ATOM     11  H   UNL     1      35.858 -27.021 -13.708  0.00  0.00    +0.220 HD
ENDBRANCH   8  10
BRANCH   8  12
ATOM     12  O   UNL     1      36.809 -25.832 -15.593  0.00  0.00    -0.322 OA
ATOM     13  H   UNL     1      36.339 -24.993 -15.471  0.00  0.00    +0.220 HD
ENDBRANCH   8  12
ENDBRANCH   1   8
BRANCH   1  14
ATOM     14  O   UNL     1      39.047 -24.452 -12.928  0.00  0.00    -0.364 OA
ATOM     15  H   UNL     1      39.249 -23.523 -12.735  0.00  0.00    +0.212 HD
ENDBRANCH   1  14
TORSDOF 7
ENDMDL
MODEL 6
REMARK VINA RESULT:      -5.5      2.078      4.090
REMARK  Name = 27304
REMARK  7 active torsions:
REMARK  status: ('A' for Active; 'I' for Inactive)
REMARK    1  A    between atoms: C_1  and  P_2
REMARK    2  A    between atoms: C_1  and  P_8
REMARK    3  A    between atoms: C_1  and  O_14
REMARK    4  A    between atoms: P_2  and  O_4
REMARK    5  A    between atoms: P_2  and  O_6
REMARK    6  A    between atoms: P_8  and  O_10
REMARK    7  A    between atoms: P_8  and  O_12
REMARK                            x       y       z     vdW  Elec       q    Type
REMARK                         _______ _______ _______ _____ _____    ______ ____
ROOT
ATOM      1  C   UNL     1      38.315 -25.243 -12.667  0.00  0.00    +0.319 C 
ENDROOT
BRANCH   1   2
ATOM      2  P   UNL     1      37.407 -23.797 -12.105  0.00  0.00    +0.375 P 
ATOM      3  O   UNL     1      36.439 -23.238 -13.105  0.00  0.00    -0.255 OA
BRANCH   2   4
ATOM      4  O   UNL     1      36.757 -24.277 -10.706  0.00  0.00    -0.322 OA
ATOM      5  H   UNL     1      36.937 -23.614 -10.021  0.00  0.00    +0.220 HD
ENDBRANCH   2   4
BRANCH   2   6
ATOM      6  O   UNL     1      38.580 -22.786 -11.644  0.00  0.00    -0.322 OA
ATOM      7  H   UNL     1      39.317 -22.838 -12.273  0.00  0.00    +0.220 HD
ENDBRANCH   2   6
ENDBRANCH   1   2
BRANCH   1   8
ATOM      8  P   UNL     1      39.198 -25.387 -14.228  0.00  0.00    +0.375 P 
ATOM      9  O   UNL     1      40.639 -24.974 -14.175  0.00  0.00    -0.255 OA
BRANCH   8  10
ATOM     10  O   UNL     1      38.932 -26.918 -14.671  0.00  0.00    -0.322 OA
ATOM     11  H   UNL     1      38.432 -26.931 -15.503  0.00  0.00    +0.220 HD
ENDBRANCH   8  10
BRANCH   8  12
ATOM     12  O   UNL     1      38.277 -24.537 -15.247  0.00  0.00    -0.322 OA
ATOM     13  H   UNL     1      37.342 -24.720 -15.067  0.00  0.00    +0.220 HD
ENDBRANCH   8  12
ENDBRANCH   1   8
BRANCH   1  14
ATOM     14  O   UNL     1      37.330 -26.267 -12.752  0.00  0.00    -0.364 OA
ATOM     15  H   UNL     1      37.666 -27.076 -12.336  0.00  0.00    +0.212 HD
ENDBRANCH   1  14
TORSDOF 7
ENDMDL
MODEL 7
REMARK VINA RESULT:      -5.4      2.282      3.855
REMARK  Name = 27304
REMARK  7 active torsions:
REMARK  status: ('A' for Active; 'I' for Inactive)
REMARK    1  A    between atoms: C_1  and  P_2
REMARK    2  A    between atoms: C_1  and  P_8
REMARK    3  A    between atoms: C_1  and  O_14
REMARK    4  A    between atoms: P_2  and  O_4
REMARK    5  A    between atoms: P_2  and  O_6
REMARK    6  A    between atoms: P_8  and  O_10
REMARK    7  A    between atoms: P_8  and  O_12
REMARK                            x       y       z     vdW  Elec       q    Type
REMARK                         _______ _______ _______ _____ _____    ______ ____
ROOT
ATOM      1  C   UNL     1      36.961 -25.662 -13.048  0.00  0.00    +0.319 C 
ENDROOT
BRANCH   1   2
ATOM      2  P   UNL     1      36.871 -25.743 -14.841  0.00  0.00    +0.375 P 
ATOM      3  O   UNL     1      36.361 -24.495 -15.499  0.00  0.00    -0.255 OA
BRANCH   2   4
ATOM      4  O   UNL     1      38.359 -26.196 -15.276  0.00  0.00    -0.322 OA
ATOM      5  H   UNL     1      38.866 -26.442 -14.487  0.00  0.00    +0.220 HD
ENDBRANCH   2   4
BRANCH   2   6
ATOM      6  O   UNL     1      35.986 -27.069 -15.103  0.00  0.00    -0.322 OA
ATOM      7  H   UNL     1      36.001 -27.629 -14.310  0.00  0.00    +0.220 HD
ENDBRANCH   2   6
ENDBRANCH   1   2
BRANCH   1   8
ATOM      8  P   UNL     1      36.178 -24.416 -12.012  0.00  0.00    +0.375 P 
ATOM      9  O   UNL     1      36.915 -24.099 -10.745  0.00  0.00    -0.255 OA
BRANCH   8  10
ATOM     10  O   UNL     1      35.962 -23.170 -13.019  0.00  0.00    -0.322 OA
ATOM     11  H   UNL     1      35.098 -22.764 -12.849  0.00  0.00    +0.220 HD
ENDBRANCH   8  10
BRANCH   8  12
ATOM     12  O   UNL     1      34.684 -24.996 -11.811  0.00  0.00    -0.322 OA
ATOM     13  H   UNL     1      34.326 -25.273 -12.669  0.00  0.00    +0.220 HD
ENDBRANCH   8  12
ENDBRANCH   1   8
BRANCH   1  14
ATOM     14  O   UNL     1      38.347 -25.495 -12.772  0.00  0.00    -0.364 OA
ATOM     15  H   UNL     1      38.595 -26.045 -12.013  0.00  0.00    +0.212 HD
ENDBRANCH   1  14
TORSDOF 7
ENDMDL
MODEL 8
REMARK VINA RESULT:      -5.4      2.617      4.152
REMARK  Name = 27304
REMARK  7 active torsions:
REMARK  status: ('A' for Active; 'I' for Inactive)
REMARK    1  A    between atoms: C_1  and  P_2
REMARK    2  A    between atoms: C_1  and  P_8
REMARK    3  A    between atoms: C_1  and  O_14
REMARK    4  A    between atoms: P_2  and  O_4
REMARK    5  A    between atoms: P_2  and  O_6
REMARK    6  A    between atoms: P_8  and  O_10
REMARK    7  A    between atoms: P_8  and  O_12
REMARK                            x       y       z     vdW  Elec       q    Type
REMARK                         _______ _______ _______ _____ _____    ______ ____
ROOT
ATOM      1  C   UNL     1      36.613 -23.830 -13.325  0.00  0.00    +0.319 C 
ENDROOT
BRANCH   1   2
ATOM      2  P   UNL     1      36.227 -24.646 -11.771  0.00  0.00    +0.375 P 
ATOM      3  O   UNL     1      36.655 -23.893 -10.546  0.00  0.00    -0.255 OA
BRANCH   2   4
ATOM      4  O   UNL     1      34.644 -24.946 -11.881  0.00  0.00    -0.322 OA
ATOM      5  H   UNL     1      34.434 -25.254 -12.776  0.00  0.00    +0.220 HD
ENDBRANCH   2   4
BRANCH   2   6
ATOM      6  O   UNL     1      36.897 -26.106 -11.949  0.00  0.00    -0.322 OA
ATOM      7  H   UNL     1      37.114 -26.471 -11.076  0.00  0.00    +0.220 HD
ENDBRANCH   2   6
ENDBRANCH   1   2
BRANCH   1   8
ATOM      8  P   UNL     1      36.489 -24.571 -14.959  0.00  0.00    +0.375 P 
ATOM      9  O   UNL     1      35.952 -23.662 -16.023  0.00  0.00    -0.255 OA
BRANCH   8  10
ATOM     10  O   UNL     1      37.976 -25.147 -15.225  0.00  0.00    -0.322 OA
ATOM     11  H   UNL     1      37.930 -26.105 -15.373  0.00  0.00    +0.220 HD
ENDBRANCH   8  10
BRANCH   8  12
ATOM     12  O   UNL     1      35.616 -25.904 -14.690  0.00  0.00    -0.322 OA
ATOM     13  H   UNL     1      36.005 -26.648 -15.175  0.00  0.00    +0.220 HD
ENDBRANCH   8  12
ENDBRANCH   1   8
BRANCH   1  14
ATOM     14  O   UNL     1      37.994 -23.502 -13.217  0.00  0.00    -0.364 OA
ATOM     15  H   UNL     1      38.211 -23.312 -12.291  0.00  0.00    +0.212 HD
ENDBRANCH   1  14
TORSDOF 7
ENDMDL
MODEL 9
REMARK VINA RESULT:      -5.3      1.901      4.395
REMARK  Name = 27304
REMARK  7 active torsions:
REMARK  status: ('A' for Active; 'I' for Inactive)
REMARK    1  A    between atoms: C_1  and  P_2
REMARK    2  A    between atoms: C_1  and  P_8
REMARK    3  A    between atoms: C_1  and  O_14
REMARK    4  A    between atoms: P_2  and  O_4
REMARK    5  A    between atoms: P_2  and  O_6
REMARK    6  A    between atoms: P_8  and  O_10
REMARK    7  A    between atoms: P_8  and  O_12
REMARK                            x       y       z     vdW  Elec       q    Type
REMARK                         _______ _______ _______ _____ _____    ______ ____
ROOT
ATOM      1  C   UNL     1      37.142 -25.354 -13.113  0.00  0.00    +0.319 C 
ENDROOT
BRANCH   1   2
ATOM      2  P   UNL     1      35.601 -24.445 -12.943  0.00  0.00    +0.375 P 
ATOM      3  O   UNL     1      35.027 -24.441 -11.557  0.00  0.00    -0.255 OA
BRANCH   2   4
ATOM      4  O   UNL     1      35.949 -22.989 -13.552  0.00  0.00    -0.322 OA
ATOM      5  H   UNL     1      35.637 -22.940 -14.469  0.00  0.00    +0.220 HD
ENDBRANCH   2   4
BRANCH   2   6
ATOM      6  O   UNL     1      34.659 -25.108 -14.076  0.00  0.00    -0.322 OA
ATOM      7  H   UNL     1      34.917 -24.771 -14.948  0.00  0.00    +0.220 HD
ENDBRANCH   2   6
ENDBRANCH   1   2
BRANCH   1   8
ATOM      8  P   UNL     1      38.020 -25.654 -14.654  0.00  0.00    +0.375 P 
ATOM      9  O   UNL     1      39.171 -26.609 -14.547  0.00  0.00    -0.255 OA
BRANCH   8  10
ATOM     10  O   UNL     1      36.847 -26.095 -15.676  0.00  0.00    -0.322 OA
ATOM     11  H   UNL     1      37.226 -26.633 -16.389  0.00  0.00    +0.220 HD
ENDBRANCH   8  10
BRANCH   8  12
ATOM     12  O   UNL     1      38.406 -24.165 -15.149  0.00  0.00    -0.322 OA
ATOM     13  H   UNL     1      38.278 -23.539 -14.420  0.00  0.00    +0.220 HD
ENDBRANCH   8  12
ENDBRANCH   1   8
BRANCH   1  14
ATOM     14  O   UNL     1      36.831 -26.664 -12.652  0.00  0.00    -0.364 OA
ATOM     15  H   UNL     1      37.449 -27.301 -13.044  0.00  0.00    +0.212 HD
ENDBRANCH   1  14
TORSDOF 7
ENDMDL
