MODEL 1
REMARK VINA RESULT:     -10.8      0.000      0.000
REMARK  Name = 4891
REMARK  1 active torsions:
REMARK  status: ('A' for Active; 'I' for Inactive)
REMARK    1  A    between atoms: C_7  and  C_18
REMARK                            x       y       z     vdW  Elec       q    Type
REMARK                         _______ _______ _______ _____ _____    ______ ____
ROOT
ATOM      1  O   UNL     1      32.114 -22.578 -17.861  0.00  0.00    -0.275 OA
ATOM      2  O   UNL     1      32.030 -23.255 -13.110  0.00  0.00    -0.273 OA
ATOM      3  N   UNL     1      34.158 -24.052 -13.617  0.00  0.00    -0.274 N 
ATOM      4  N   UNL     1      33.555 -23.534 -16.303  0.00  0.00    -0.269 N 
ATOM      5  C   UNL     1      34.965 -24.743 -14.632  0.00  0.00    +0.117 C 
ATOM      6  C   UNL     1      34.919 -23.924 -15.926  0.00  0.00    +0.118 C 
ATOM      7  C   UNL     1      33.253 -22.894 -17.509  0.00  0.00    +0.226 C 
ATOM      8  C   UNL     1      36.399 -25.021 -14.218  0.00  0.00    -0.007 C 
ATOM      9  C   UNL     1      34.642 -24.004 -12.241  0.00  0.00    +0.098 C 
ATOM     10  C   UNL     1      32.471 -23.863 -15.380  0.00  0.00    +0.179 C 
ATOM     11  C   UNL     1      36.095 -23.558 -12.190  0.00  0.00    +0.048 C 
ATOM     12  C   UNL     1      32.862 -23.642 -13.931  0.00  0.00    +0.246 C 
ATOM     13  C   UNL     1      36.943 -24.450 -13.053  0.00  0.00    -0.023 C 
ATOM     14  C   UNL     1      37.204 -25.859 -15.004  0.00  0.00    -0.003 C 
ATOM     15  C   UNL     1      38.284 -24.688 -12.719  0.00  0.00    -0.004 C 
ATOM     16  C   UNL     1      38.533 -26.104 -14.654  0.00  0.00    -0.000 C 
ATOM     17  C   UNL     1      39.073 -25.515 -13.516  0.00  0.00    -0.000 C 
ENDROOT
BRANCH   7  18
ATOM     18  C   UNL     1      34.415 -22.593 -18.407  0.00  0.00    +0.077 C 
ATOM     19  C   UNL     1      33.983 -21.628 -19.514  0.00  0.00    +0.009 C 
ATOM     20  C   UNL     1      35.573 -22.021 -17.586  0.00  0.00    +0.009 C 
ATOM     21  C   UNL     1      35.160 -21.219 -20.396  0.00  0.00    +0.000 C 
ATOM     22  C   UNL     1      36.746 -21.611 -18.474  0.00  0.00    +0.000 C 
ATOM     23  C   UNL     1      36.310 -20.648 -19.573  0.00  0.00    +0.000 C 
ENDBRANCH   7  18
TORSDOF 1
ENDMDL
MODEL 2
REMARK VINA RESULT:      -9.8     11.558     14.813
REMARK  Name = 4891
REMARK  1 active torsions:
REMARK  status: ('A' for Active; 'I' for Inactive)
REMARK    1  A    between atoms: C_7  and  C_18
REMARK                            x       y       z     vdW  Elec       q    Type
REMARK                         _______ _______ _______ _____ _____    ______ ____
ROOT
ATOM      1  O   UNL     1      31.496  -7.849 -21.412  0.00  0.00    -0.275 OA
ATOM      2  O   UNL     1      31.608 -11.925 -18.880  0.00  0.00    -0.273 OA
ATOM      3  N   UNL     1      32.190 -12.718 -20.990  0.00  0.00    -0.274 N 
ATOM      4  N   UNL     1      31.841 -10.097 -21.913  0.00  0.00    -0.269 N 
ATOM      5  C   UNL     1      31.985 -12.536 -22.434  0.00  0.00    +0.117 C 
ATOM      6  C   UNL     1      32.411 -11.112 -22.806  0.00  0.00    +0.118 C 
ATOM      7  C   UNL     1      31.985  -8.723 -22.133  0.00  0.00    +0.226 C 
ATOM      8  C   UNL     1      32.691 -13.558 -23.307  0.00  0.00    -0.007 C 
ATOM      9  C   UNL     1      32.719 -13.988 -20.506  0.00  0.00    +0.098 C 
ATOM     10  C   UNL     1      31.065 -10.557 -20.764  0.00  0.00    +0.179 C 
ATOM     11  C   UNL     1      33.952 -14.401 -21.295  0.00  0.00    +0.048 C 
ATOM     12  C   UNL     1      31.685 -11.771 -20.100  0.00  0.00    +0.246 C 
ATOM     13  C   UNL     1      33.637 -14.448 -22.765  0.00  0.00    -0.023 C 
ATOM     14  C   UNL     1      32.403 -13.624 -24.679  0.00  0.00    -0.003 C 
ATOM     15  C   UNL     1      34.306 -15.351 -23.602  0.00  0.00    -0.004 C 
ATOM     16  C   UNL     1      33.063 -14.539 -25.502  0.00  0.00    -0.000 C 
ATOM     17  C   UNL     1      34.017 -15.397 -24.965  0.00  0.00    -0.000 C 
ENDROOT
BRANCH   7  18
ATOM     18  C   UNL     1      32.791  -8.327 -23.334  0.00  0.00    +0.077 C 
ATOM     19  C   UNL     1      32.142  -7.124 -24.023  0.00  0.00    +0.009 C 
ATOM     20  C   UNL     1      34.232  -8.023 -22.917  0.00  0.00    +0.009 C 
ATOM     21  C   UNL     1      32.981  -6.626 -25.197  0.00  0.00    +0.000 C 
ATOM     22  C   UNL     1      35.066  -7.525 -24.095  0.00  0.00    +0.000 C 
ATOM     23  C   UNL     1      34.416  -6.324 -24.776  0.00  0.00    +0.000 C 
ENDBRANCH   7  18
TORSDOF 1
ENDMDL
MODEL 3
REMARK VINA RESULT:      -9.6      9.015     13.550
REMARK  Name = 4891
REMARK  1 active torsions:
REMARK  status: ('A' for Active; 'I' for Inactive)
REMARK    1  A    between atoms: C_7  and  C_18
REMARK                            x       y       z     vdW  Elec       q    Type
REMARK                         _______ _______ _______ _____ _____    ______ ____
ROOT
ATOM      1  O   UNL     1      34.706 -17.948 -25.483  0.00  0.00    -0.275 OA
ATOM      2  O   UNL     1      33.897 -13.817 -27.788  0.00  0.00    -0.273 OA
ATOM      3  N   UNL     1      33.282 -13.224 -25.623  0.00  0.00    -0.274 N 
ATOM      4  N   UNL     1      33.823 -15.874 -24.898  0.00  0.00    -0.269 N 
ATOM      5  C   UNL     1      32.683 -13.714 -24.373  0.00  0.00    +0.117 C 
ATOM      6  C   UNL     1      33.531 -14.882 -23.857  0.00  0.00    +0.118 C 
ATOM      7  C   UNL     1      34.470 -17.086 -24.632  0.00  0.00    +0.226 C 
ATOM      8  C   UNL     1      32.506 -12.656 -23.299  0.00  0.00    -0.007 C 
ATOM      9  C   UNL     1      33.330 -11.786 -25.867  0.00  0.00    +0.098 C 
ATOM     10  C   UNL     1      33.386 -15.584 -26.261  0.00  0.00    +0.179 C 
ATOM     11  C   UNL     1      33.887 -11.047 -24.660  0.00  0.00    +0.048 C 
ATOM     12  C   UNL     1      33.597 -14.129 -26.635  0.00  0.00    +0.246 C 
ATOM     13  C   UNL     1      33.087 -11.381 -23.431  0.00  0.00    -0.023 C 
ATOM     14  C   UNL     1      31.755 -12.945 -22.149  0.00  0.00    -0.003 C 
ATOM     15  C   UNL     1      32.945 -10.439 -22.403  0.00  0.00    -0.004 C 
ATOM     16  C   UNL     1      31.605 -11.994 -21.138  0.00  0.00    -0.000 C 
ATOM     17  C   UNL     1      32.204 -10.745 -21.263  0.00  0.00    -0.000 C 
ENDROOT
BRANCH   7  18
ATOM     18  C   UNL     1      34.885 -17.316 -23.210  0.00  0.00    +0.077 C 
ATOM     19  C   UNL     1      33.719 -17.912 -22.417  0.00  0.00    +0.009 C 
ATOM     20  C   UNL     1      36.115 -18.226 -23.166  0.00  0.00    +0.009 C 
ATOM     21  C   UNL     1      34.127 -18.251 -20.985  0.00  0.00    +0.000 C 
ATOM     22  C   UNL     1      36.516 -18.563 -21.732  0.00  0.00    +0.000 C 
ATOM     23  C   UNL     1      35.351 -19.159 -20.948  0.00  0.00    +0.000 C 
ENDBRANCH   7  18
TORSDOF 1
ENDMDL
MODEL 4
REMARK VINA RESULT:      -9.6      1.541      5.581
REMARK  Name = 4891
REMARK  1 active torsions:
REMARK  status: ('A' for Active; 'I' for Inactive)
REMARK    1  A    between atoms: C_7  and  C_18
REMARK                            x       y       z     vdW  Elec       q    Type
REMARK                         _______ _______ _______ _____ _____    ______ ____
ROOT
ATOM      1  O   UNL     1      36.344 -25.837 -11.307  0.00  0.00    -0.275 OA
ATOM      2  O   UNL     1      32.230 -24.247 -13.199  0.00  0.00    -0.273 OA
ATOM      3  N   UNL     1      33.755 -23.450 -14.765  0.00  0.00    -0.274 N 
ATOM      4  N   UNL     1      35.767 -24.516 -13.135  0.00  0.00    -0.269 N 
ATOM      5  C   UNL     1      35.117 -22.927 -14.950  0.00  0.00    +0.117 C 
ATOM      6  C   UNL     1      36.110 -23.986 -14.460  0.00  0.00    +0.118 C 
ATOM      7  C   UNL     1      36.596 -25.396 -12.431  0.00  0.00    +0.226 C 
ATOM      8  C   UNL     1      35.441 -22.495 -16.369  0.00  0.00    -0.007 C 
ATOM      9  C   UNL     1      32.756 -23.200 -15.799  0.00  0.00    +0.098 C 
ATOM     10  C   UNL     1      34.517 -24.072 -12.525  0.00  0.00    +0.179 C 
ATOM     11  C   UNL     1      33.299 -23.547 -17.177  0.00  0.00    +0.048 C 
ATOM     12  C   UNL     1      33.385 -23.983 -13.531  0.00  0.00    +0.246 C 
ATOM     13  C   UNL     1      34.575 -22.796 -17.437  0.00  0.00    -0.023 C 
ATOM     14  C   UNL     1      36.622 -21.784 -16.631  0.00  0.00    -0.003 C 
ATOM     15  C   UNL     1      34.922 -22.424 -18.743  0.00  0.00    -0.004 C 
ATOM     16  C   UNL     1      36.951 -21.403 -17.933  0.00  0.00    -0.000 C 
ATOM     17  C   UNL     1      36.104 -21.728 -18.988  0.00  0.00    -0.000 C 
ENDROOT
BRANCH   7  18
ATOM     18  C   UNL     1      37.865 -25.803 -13.119  0.00  0.00    +0.077 C 
ATOM     19  C   UNL     1      37.575 -26.159 -14.579  0.00  0.00    +0.009 C 
ATOM     20  C   UNL     1      38.900 -24.680 -13.011  0.00  0.00    +0.009 C 
ATOM     21  C   UNL     1      38.855 -26.488 -15.344  0.00  0.00    +0.000 C 
ATOM     22  C   UNL     1      40.176 -25.014 -13.779  0.00  0.00    +0.000 C 
ATOM     23  C   UNL     1      39.881 -25.365 -15.234  0.00  0.00    +0.000 C 
ENDBRANCH   7  18
TORSDOF 1
ENDMDL
MODEL 5
REMARK VINA RESULT:      -9.5      9.564     12.716
REMARK  Name = 4891
REMARK  1 active torsions:
REMARK  status: ('A' for Active; 'I' for Inactive)
REMARK    1  A    between atoms: C_7  and  C_18
REMARK                            x       y       z     vdW  Elec       q    Type
REMARK                         _______ _______ _______ _____ _____    ______ ____
ROOT
ATOM      1  O   UNL     1      32.772 -10.217 -23.823  0.00  0.00    -0.275 OA
ATOM      2  O   UNL     1      31.913 -12.901 -19.937  0.00  0.00    -0.273 OA
ATOM      3  N   UNL     1      32.999 -14.450 -21.293  0.00  0.00    -0.274 N 
ATOM      4  N   UNL     1      33.092 -12.452 -23.254  0.00  0.00    -0.269 N 
ATOM      5  C   UNL     1      33.212 -14.881 -22.683  0.00  0.00    +0.117 C 
ATOM      6  C   UNL     1      33.818 -13.710 -23.464  0.00  0.00    +0.118 C 
ATOM      7  C   UNL     1      33.381 -11.281 -23.961  0.00  0.00    +0.226 C 
ATOM      8  C   UNL     1      34.062 -16.131 -22.833  0.00  0.00    -0.007 C 
ATOM      9  C   UNL     1      33.290 -15.384 -20.211  0.00  0.00    +0.098 C 
ATOM     10  C   UNL     1      32.001 -12.447 -22.283  0.00  0.00    +0.179 C 
ATOM     11  C   UNL     1      34.663 -16.015 -20.390  0.00  0.00    +0.048 C 
ATOM     12  C   UNL     1      32.332 -13.252 -21.041  0.00  0.00    +0.246 C 
ATOM     13  C   UNL     1      34.762 -16.671 -21.739  0.00  0.00    -0.023 C 
ATOM     14  C   UNL     1      34.159 -16.764 -24.082  0.00  0.00    -0.003 C 
ATOM     15  C   UNL     1      35.574 -17.799 -21.917  0.00  0.00    -0.004 C 
ATOM     16  C   UNL     1      34.957 -17.897 -24.246  0.00  0.00    -0.000 C 
ATOM     17  C   UNL     1      35.668 -18.411 -23.167  0.00  0.00    -0.000 C 
ENDROOT
BRANCH   7  18
ATOM     18  C   UNL     1      34.511 -11.364 -24.944  0.00  0.00    +0.077 C 
ATOM     19  C   UNL     1      33.996 -11.889 -26.287  0.00  0.00    +0.009 C 
ATOM     20  C   UNL     1      35.171  -9.992 -25.096  0.00  0.00    +0.009 C 
ATOM     21  C   UNL     1      35.095 -11.900 -27.347  0.00  0.00    +0.000 C 
ATOM     22  C   UNL     1      36.268 -10.008 -26.159  0.00  0.00    +0.000 C 
ATOM     23  C   UNL     1      35.748 -10.530 -27.495  0.00  0.00    +0.000 C 
ENDBRANCH   7  18
TORSDOF 1
ENDMDL
MODEL 6
REMARK VINA RESULT:      -9.5     14.947     18.827
REMARK  Name = 4891
REMARK  1 active torsions:
REMARK  status: ('A' for Active; 'I' for Inactive)
REMARK    1  A    between atoms: C_7  and  C_18
REMARK                            x       y       z     vdW  Elec       q    Type
REMARK                         _______ _______ _______ _____ _____    ______ ____
ROOT
ATOM      1  O   UNL     1      31.687 -10.042 -20.718  0.00  0.00    -0.275 OA
ATOM      2  O   UNL     1      30.444  -5.407 -20.820  0.00  0.00    -0.273 OA
ATOM      3  N   UNL     1      31.708  -5.552 -22.769  0.00  0.00    -0.274 N 
ATOM      4  N   UNL     1      32.183  -8.228 -22.090  0.00  0.00    -0.269 N 
ATOM      5  C   UNL     1      32.861  -6.211 -23.400  0.00  0.00    +0.117 C 
ATOM      6  C   UNL     1      32.612  -7.723 -23.400  0.00  0.00    +0.118 C 
ATOM      7  C   UNL     1      32.022  -9.590 -21.816  0.00  0.00    +0.226 C 
ATOM      8  C   UNL     1      33.185  -5.716 -24.798  0.00  0.00    -0.007 C 
ATOM      9  C   UNL     1      31.210  -4.304 -23.336  0.00  0.00    +0.098 C 
ATOM     10  C   UNL     1      31.949  -7.254 -21.027  0.00  0.00    +0.179 C 
ATOM     11  C   UNL     1      31.020  -4.427 -24.841  0.00  0.00    +0.048 C 
ATOM     12  C   UNL     1      31.249  -6.007 -21.533  0.00  0.00    +0.246 C 
ATOM     13  C   UNL     1      32.302  -4.867 -25.492  0.00  0.00    -0.023 C 
ATOM     14  C   UNL     1      34.381  -6.107 -25.419  0.00  0.00    -0.003 C 
ATOM     15  C   UNL     1      32.606  -4.461 -26.799  0.00  0.00    -0.004 C 
ATOM     16  C   UNL     1      34.683  -5.684 -26.715  0.00  0.00    -0.000 C 
ATOM     17  C   UNL     1      33.794  -4.866 -27.406  0.00  0.00    -0.000 C 
ENDROOT
BRANCH   7  18
ATOM     18  C   UNL     1      32.286 -10.529 -22.954  0.00  0.00    +0.077 C 
ATOM     19  C   UNL     1      33.675 -10.264 -23.538  0.00  0.00    +0.009 C 
ATOM     20  C   UNL     1      32.146 -11.977 -22.478  0.00  0.00    +0.009 C 
ATOM     21  C   UNL     1      34.024 -11.261 -24.640  0.00  0.00    +0.000 C 
ATOM     22  C   UNL     1      32.498 -12.970 -23.583  0.00  0.00    +0.000 C 
ATOM     23  C   UNL     1      33.885 -12.702 -24.159  0.00  0.00    +0.000 C 
ENDBRANCH   7  18
TORSDOF 1
ENDMDL
MODEL 7
REMARK VINA RESULT:      -9.3     11.345     15.487
REMARK  Name = 4891
REMARK  1 active torsions:
REMARK  status: ('A' for Active; 'I' for Inactive)
REMARK    1  A    between atoms: C_7  and  C_18
REMARK                            x       y       z     vdW  Elec       q    Type
REMARK                         _______ _______ _______ _____ _____    ______ ____
ROOT
ATOM      1  O   UNL     1      34.372 -14.866 -24.761  0.00  0.00    -0.275 OA
ATOM      2  O   UNL     1      35.343 -10.602 -26.738  0.00  0.00    -0.273 OA
ATOM      3  N   UNL     1      34.235  -9.932 -24.804  0.00  0.00    -0.274 N 
ATOM      4  N   UNL     1      33.871 -12.652 -24.244  0.00  0.00    -0.269 N 
ATOM      5  C   UNL     1      33.174 -10.286 -23.850  0.00  0.00    +0.117 C 
ATOM      6  C   UNL     1      33.511 -11.648 -23.236  0.00  0.00    +0.118 C 
ATOM      7  C   UNL     1      34.092 -13.997 -23.931  0.00  0.00    +0.226 C 
ATOM      8  C   UNL     1      32.924  -9.250 -22.769  0.00  0.00    -0.007 C 
ATOM      9  C   UNL     1      34.699  -8.550 -24.864  0.00  0.00    +0.098 C 
ATOM     10  C   UNL     1      33.969 -12.218 -25.635  0.00  0.00    +0.179 C 
ATOM     11  C   UNL     1      35.006  -8.017 -23.473  0.00  0.00    +0.048 C 
ATOM     12  C   UNL     1      34.629 -10.859 -25.769  0.00  0.00    +0.246 C 
ATOM     13  C   UNL     1      33.803  -8.167 -22.582  0.00  0.00    -0.023 C 
ATOM     14  C   UNL     1      31.802  -9.366 -21.934  0.00  0.00    -0.003 C 
ATOM     15  C   UNL     1      33.573  -7.250 -21.547  0.00  0.00    -0.004 C 
ATOM     16  C   UNL     1      31.572  -8.439 -20.916  0.00  0.00    -0.000 C 
ATOM     17  C   UNL     1      32.459  -7.386 -20.720  0.00  0.00    -0.000 C 
ENDROOT
BRANCH   7  18
ATOM     18  C   UNL     1      33.969 -14.369 -22.484  0.00  0.00    +0.077 C 
ATOM     19  C   UNL     1      32.496 -14.574 -22.122  0.00  0.00    +0.009 C 
ATOM     20  C   UNL     1      34.796 -15.624 -22.196  0.00  0.00    +0.009 C 
ATOM     21  C   UNL     1      32.330 -15.046 -20.679  0.00  0.00    +0.000 C 
ATOM     22  C   UNL     1      34.625 -16.093 -20.753  0.00  0.00    +0.000 C 
ATOM     23  C   UNL     1      33.155 -16.298 -20.399  0.00  0.00    +0.000 C 
ENDBRANCH   7  18
TORSDOF 1
ENDMDL
MODEL 8
REMARK VINA RESULT:      -9.2      2.570      5.254
REMARK  Name = 4891
REMARK  1 active torsions:
REMARK  status: ('A' for Active; 'I' for Inactive)
REMARK    1  A    between atoms: C_7  and  C_18
REMARK                            x       y       z     vdW  Elec       q    Type
REMARK                         _______ _______ _______ _____ _____    ______ ____
ROOT
ATOM      1  O   UNL     1      36.790 -22.611 -16.029  0.00  0.00    -0.275 OA
ATOM      2  O   UNL     1      34.253 -24.813 -12.601  0.00  0.00    -0.273 OA
ATOM      3  N   UNL     1      32.545 -24.154 -14.039  0.00  0.00    -0.274 N 
ATOM      4  N   UNL     1      34.525 -22.934 -15.599  0.00  0.00    -0.269 N 
ATOM      5  C   UNL     1      32.111 -23.113 -14.982  0.00  0.00    +0.117 C 
ATOM      6  C   UNL     1      33.150 -23.015 -16.104  0.00  0.00    +0.118 C 
ATOM      7  C   UNL     1      35.628 -22.709 -16.430  0.00  0.00    +0.226 C 
ATOM      8  C   UNL     1      30.717 -23.316 -15.550  0.00  0.00    -0.007 C 
ATOM      9  C   UNL     1      31.547 -25.053 -13.470  0.00  0.00    +0.098 C 
ATOM     10  C   UNL     1      34.732 -23.064 -14.159  0.00  0.00    +0.179 C 
ATOM     11  C   UNL     1      30.652 -25.630 -14.556  0.00  0.00    +0.048 C 
ATOM     12  C   UNL     1      33.849 -24.133 -13.545  0.00  0.00    +0.246 C 
ATOM     13  C   UNL     1      30.020 -24.522 -15.352  0.00  0.00    -0.023 C 
ATOM     14  C   UNL     1      30.106 -22.290 -16.287  0.00  0.00    -0.003 C 
ATOM     15  C   UNL     1      28.753 -24.699 -15.926  0.00  0.00    -0.004 C 
ATOM     16  C   UNL     1      28.837 -22.469 -16.840  0.00  0.00    -0.000 C 
ATOM     17  C   UNL     1      28.164 -23.673 -16.664  0.00  0.00    -0.000 C 
ENDROOT
BRANCH   7  18
ATOM     18  C   UNL     1      35.337 -22.581 -17.895  0.00  0.00    +0.077 C 
ATOM     19  C   UNL     1      33.890 -22.125 -18.101  0.00  0.00    +0.009 C 
ATOM     20  C   UNL     1      36.328 -21.609 -18.540  0.00  0.00    +0.009 C 
ATOM     21  C   UNL     1      33.578 -21.890 -19.577  0.00  0.00    +0.000 C 
ATOM     22  C   UNL     1      36.009 -21.376 -20.015  0.00  0.00    +0.000 C 
ATOM     23  C   UNL     1      34.568 -20.919 -20.214  0.00  0.00    +0.000 C 
ENDBRANCH   7  18
TORSDOF 1
ENDMDL
MODEL 9
REMARK VINA RESULT:      -9.1      2.257      5.551
REMARK  Name = 4891
REMARK  1 active torsions:
REMARK  status: ('A' for Active; 'I' for Inactive)
REMARK    1  A    between atoms: C_7  and  C_18
REMARK                            x       y       z     vdW  Elec       q    Type
REMARK                         _______ _______ _______ _____ _____    ______ ____
ROOT
ATOM      1  O   UNL     1      31.823 -24.462 -13.170  0.00  0.00    -0.275 OA
ATOM      2  O   UNL     1      36.611 -24.212 -13.399  0.00  0.00    -0.273 OA
ATOM      3  N   UNL     1      36.041 -23.384 -15.498  0.00  0.00    -0.274 N 
ATOM      4  N   UNL     1      33.372 -23.880 -14.809  0.00  0.00    -0.269 N 
ATOM      5  C   UNL     1      35.070 -23.479 -16.597  0.00  0.00    +0.117 C 
ATOM      6  C   UNL     1      33.680 -23.149 -16.043  0.00  0.00    +0.118 C 
ATOM      7  C   UNL     1      32.116 -23.838 -14.194  0.00  0.00    +0.226 C 
ATOM      8  C   UNL     1      35.393 -22.614 -17.802  0.00  0.00    -0.007 C 
ATOM      9  C   UNL     1      37.347 -22.789 -15.758  0.00  0.00    +0.098 C 
ATOM     10  C   UNL     1      34.424 -24.709 -14.226  0.00  0.00    +0.179 C 
ATOM     11  C   UNL     1      37.206 -21.462 -16.487  0.00  0.00    +0.048 C 
ATOM     12  C   UNL     1      35.785 -24.045 -14.296  0.00  0.00    +0.246 C 
ATOM     13  C   UNL     1      36.410 -21.644 -17.750  0.00  0.00    -0.023 C 
ATOM     14  C   UNL     1      34.668 -22.776 -18.994  0.00  0.00    -0.003 C 
ATOM     15  C   UNL     1      36.657 -20.829 -18.863  0.00  0.00    -0.004 C 
ATOM     16  C   UNL     1      34.932 -21.971 -20.103  0.00  0.00    -0.000 C 
ATOM     17  C   UNL     1      35.922 -20.995 -20.036  0.00  0.00    -0.000 C 
ENDROOT
BRANCH   7  18
ATOM     18  C   UNL     1      31.086 -22.970 -14.852  0.00  0.00    +0.077 C 
ATOM     19  C   UNL     1      30.697 -23.561 -16.209  0.00  0.00    +0.009 C 
ATOM     20  C   UNL     1      29.869 -22.820 -13.936  0.00  0.00    +0.009 C 
ATOM     21  C   UNL     1      29.580 -22.759 -16.873  0.00  0.00    +0.000 C 
ATOM     22  C   UNL     1      28.754 -22.020 -14.607  0.00  0.00    +0.000 C 
ATOM     23  C   UNL     1      28.369 -22.615 -15.957  0.00  0.00    +0.000 C 
ENDBRANCH   7  18
TORSDOF 1
ENDMDL
