MODEL 1
REMARK VINA RESULT:      -9.8      0.000      0.000
REMARK  Name = 65059
REMARK  7 active torsions:
REMARK  status: ('A' for Active; 'I' for Inactive)
REMARK    1  A    between atoms: C_2  and  N_7
REMARK    2  A    between atoms: C_3  and  O_20
REMARK    3  A    between atoms: C_5  and  C_22
REMARK    4  A    between atoms: C_22  and  O_23
REMARK    5  A    between atoms: O_23  and  P_24
REMARK    6  A    between atoms: P_24  and  O_26
REMARK    7  A    between atoms: P_24  and  O_28
REMARK                            x       y       z     vdW  Elec       q    Type
REMARK                         _______ _______ _______ _____ _____    ______ ____
ROOT
ATOM      1  O   UNL     1      31.924 -25.410 -14.503  0.00  0.00    -0.338 OA
ATOM      2  C   UNL     1      32.634 -24.378 -13.796  0.00  0.00    +0.182 C 
ATOM      3  C   UNL     1      30.344 -23.959 -13.466  0.00  0.00    +0.144 C 
ATOM      4  C   UNL     1      31.658 -23.225 -13.607  0.00  0.00    +0.079 C 
ATOM      5  C   UNL     1      30.508 -25.151 -14.401  0.00  0.00    +0.174 C 
ENDROOT
BRANCH   2   7
ATOM      6  O   UNL     1      38.031 -22.849 -15.781  0.00  0.00    -0.208 OA
ATOM      7  N   UNL     1      33.849 -24.023 -14.520  0.00  0.00    -0.209 NA
ATOM      8  N   UNL     1      35.466 -23.659 -12.739  0.00  0.00    -0.279 N 
ATOM      9  N   UNL     1      35.215 -23.587 -16.250  0.00  0.00    -0.241 NA
ATOM     10  N   UNL     1      37.658 -23.039 -13.502  0.00  0.00    -0.301 NA
ATOM     11  N   UNL     1      37.154 -23.265 -11.211  0.00  0.00    -0.320 N 
ATOM     12  C   UNL     1      35.067 -23.715 -14.013  0.00  0.00    +0.191 C 
ATOM     13  C   UNL     1      33.991 -23.931 -15.888  0.00  0.00    +0.205 C 
ATOM     14  C   UNL     1      35.890 -23.452 -15.069  0.00  0.00    +0.183 C 
ATOM     15  C   UNL     1      37.275 -23.089 -14.847  0.00  0.00    +0.224 C 
ATOM     16  C   UNL     1      36.799 -23.308 -12.535  0.00  0.00    +0.245 C 
ATOM     17  H   UNL     1      34.857 -23.853 -11.992  0.00  0.00    +0.152 HD
ATOM     18  H   UNL     1      36.488 -23.472 -10.516  0.00  0.00    +0.146 HD
ATOM     19  H   UNL     1      38.075 -23.027 -10.954  0.00  0.00    +0.146 HD
ENDBRANCH   2   7
BRANCH   3  20
ATOM     20  O   UNL     1      30.228 -24.419 -12.121  0.00  0.00    -0.382 OA
ATOM     21  H   UNL     1      29.751 -23.760 -11.593  0.00  0.00    +0.210 HD
ENDBRANCH   3  20
BRANCH   5  22
ATOM     22  C   UNL     1      29.978 -24.876 -15.802  0.00  0.00    +0.186 C 
BRANCH  22  23
ATOM     23  O   UNL     1      28.698 -24.277 -15.694  0.00  0.00    -0.271 OA
BRANCH  23  24
ATOM     24  P   UNL     1      28.339 -23.039 -16.675  0.00  0.00    +0.473 P 
ATOM     25  O   UNL     1      27.440 -23.383 -17.826  0.00  0.00    -0.227 OA
BRANCH  24  26
ATOM     26  O   UNL     1      29.785 -22.439 -17.080  0.00  0.00    -0.303 OA
ATOM     27  H   UNL     1      29.993 -22.687 -17.994  0.00  0.00    +0.222 HD
ENDBRANCH  24  26
BRANCH  24  28
ATOM     28  O   UNL     1      27.749 -21.930 -15.655  0.00  0.00    -0.303 OA
ATOM     29  H   UNL     1      26.839 -21.710 -15.909  0.00  0.00    +0.222 HD
ENDBRANCH  24  28
ENDBRANCH  23  24
ENDBRANCH  22  23
ENDBRANCH   5  22
TORSDOF 7
ENDMDL
MODEL 2
REMARK VINA RESULT:      -9.7      1.284      2.817
REMARK  Name = 65059
REMARK  7 active torsions:
REMARK  status: ('A' for Active; 'I' for Inactive)
REMARK    1  A    between atoms: C_2  and  N_7
REMARK    2  A    between atoms: C_3  and  O_20
REMARK    3  A    between atoms: C_5  and  C_22
REMARK    4  A    between atoms: C_22  and  O_23
REMARK    5  A    between atoms: O_23  and  P_24
REMARK    6  A    between atoms: P_24  and  O_26
REMARK    7  A    between atoms: P_24  and  O_28
REMARK                            x       y       z     vdW  Elec       q    Type
REMARK                         _______ _______ _______ _____ _____    ______ ____
ROOT
ATOM      1  O   UNL     1      32.026 -25.408 -14.437  0.00  0.00    -0.338 OA
ATOM      2  C   UNL     1      32.649 -24.390 -13.634  0.00  0.00    +0.182 C 
ATOM      3  C   UNL     1      30.328 -24.080 -13.422  0.00  0.00    +0.144 C 
ATOM      4  C   UNL     1      31.615 -23.288 -13.445  0.00  0.00    +0.079 C 
ATOM      5  C   UNL     1      30.596 -25.211 -14.408  0.00  0.00    +0.174 C 
ENDROOT
BRANCH   2   7
ATOM      6  O   UNL     1      37.091 -22.402 -17.058  0.00  0.00    -0.208 OA
ATOM      7  N   UNL     1      33.888 -23.948 -14.264  0.00  0.00    -0.209 NA
ATOM      8  N   UNL     1      33.172 -23.304 -16.498  0.00  0.00    -0.279 N 
ATOM      9  N   UNL     1      36.070 -23.470 -14.506  0.00  0.00    -0.241 NA
ATOM     10  N   UNL     1      34.939 -22.497 -17.911  0.00  0.00    -0.301 NA
ATOM     11  N   UNL     1      32.710 -22.640 -18.663  0.00  0.00    -0.320 N 
ATOM     12  C   UNL     1      34.067 -23.481 -15.522  0.00  0.00    +0.191 C 
ATOM     13  C   UNL     1      35.138 -23.922 -13.684  0.00  0.00    +0.205 C 
ATOM     14  C   UNL     1      35.394 -23.193 -15.661  0.00  0.00    +0.183 C 
ATOM     15  C   UNL     1      35.904 -22.668 -16.912  0.00  0.00    +0.224 C 
ATOM     16  C   UNL     1      33.671 -22.800 -17.697  0.00  0.00    +0.245 C 
ATOM     17  H   UNL     1      32.220 -23.518 -16.377  0.00  0.00    +0.152 HD
ATOM     18  H   UNL     1      31.773 -22.876 -18.469  0.00  0.00    +0.146 HD
ATOM     19  H   UNL     1      32.955 -22.290 -19.550  0.00  0.00    +0.146 HD
ENDBRANCH   2   7
BRANCH   3  20
ATOM     20  O   UNL     1      30.152 -24.618 -12.113  0.00  0.00    -0.382 OA
ATOM     21  H   UNL     1      29.406 -25.238 -12.115  0.00  0.00    +0.210 HD
ENDBRANCH   3  20
BRANCH   5  22
ATOM     22  C   UNL     1      30.138 -24.880 -15.822  0.00  0.00    +0.186 C 
BRANCH  22  23
ATOM     23  O   UNL     1      28.865 -24.262 -15.753  0.00  0.00    -0.271 OA
BRANCH  23  24
ATOM     24  P   UNL     1      28.572 -22.988 -16.709  0.00  0.00    +0.473 P 
ATOM     25  O   UNL     1      27.683 -23.268 -17.885  0.00  0.00    -0.227 OA
BRANCH  24  26
ATOM     26  O   UNL     1      30.048 -22.434 -17.073  0.00  0.00    -0.303 OA
ATOM     27  H   UNL     1      30.366 -22.870 -17.878  0.00  0.00    +0.222 HD
ENDBRANCH  24  26
BRANCH  24  28
ATOM     28  O   UNL     1      28.005 -21.882 -15.672  0.00  0.00    -0.303 OA
ATOM     29  H   UNL     1      28.393 -21.017 -15.879  0.00  0.00    +0.222 HD
ENDBRANCH  24  28
ENDBRANCH  23  24
ENDBRANCH  22  23
ENDBRANCH   5  22
TORSDOF 7
ENDMDL
MODEL 3
REMARK VINA RESULT:      -9.6      3.943      7.141
REMARK  Name = 65059
REMARK  7 active torsions:
REMARK  status: ('A' for Active; 'I' for Inactive)
REMARK    1  A    between atoms: C_2  and  N_7
REMARK    2  A    between atoms: C_3  and  O_20
REMARK    3  A    between atoms: C_5  and  C_22
REMARK    4  A    between atoms: C_22  and  O_23
REMARK    5  A    between atoms: O_23  and  P_24
REMARK    6  A    between atoms: P_24  and  O_26
REMARK    7  A    between atoms: P_24  and  O_28
REMARK                            x       y       z     vdW  Elec       q    Type
REMARK                         _______ _______ _______ _____ _____    ______ ____
ROOT
ATOM      1  O   UNL     1      37.254 -23.451 -12.999  0.00  0.00    -0.338 OA
ATOM      2  C   UNL     1      35.816 -23.420 -13.041  0.00  0.00    +0.182 C 
ATOM      3  C   UNL     1      36.399 -24.821 -11.245  0.00  0.00    +0.144 C 
ATOM      4  C   UNL     1      35.328 -24.656 -12.299  0.00  0.00    +0.079 C 
ATOM      5  C   UNL     1      37.666 -24.367 -11.961  0.00  0.00    +0.174 C 
ENDROOT
BRANCH   2   7
ATOM      6  O   UNL     1      32.978 -23.059 -18.258  0.00  0.00    -0.208 OA
ATOM      7  N   UNL     1      35.361 -23.331 -14.424  0.00  0.00    -0.209 NA
ATOM      8  N   UNL     1      32.938 -23.283 -14.204  0.00  0.00    -0.279 N 
ATOM      9  N   UNL     1      35.455 -23.210 -16.665  0.00  0.00    -0.241 NA
ATOM     10  N   UNL     1      31.757 -23.138 -16.290  0.00  0.00    -0.301 NA
ATOM     11  N   UNL     1      30.628 -23.225 -14.223  0.00  0.00    -0.320 N 
ATOM     12  C   UNL     1      34.088 -23.274 -14.884  0.00  0.00    +0.191 C 
ATOM     13  C   UNL     1      36.157 -23.288 -15.548  0.00  0.00    +0.205 C 
ATOM     14  C   UNL     1      34.154 -23.201 -16.245  0.00  0.00    +0.183 C 
ATOM     15  C   UNL     1      32.942 -23.127 -17.035  0.00  0.00    +0.224 C 
ATOM     16  C   UNL     1      31.777 -23.212 -14.971  0.00  0.00    +0.245 C 
ATOM     17  H   UNL     1      32.913 -23.336 -13.222  0.00  0.00    +0.152 HD
ATOM     18  H   UNL     1      30.681 -23.280 -13.241  0.00  0.00    +0.146 HD
ATOM     19  H   UNL     1      29.750 -23.179 -14.667  0.00  0.00    +0.146 HD
ENDBRANCH   2   7
BRANCH   3  20
ATOM     20  O   UNL     1      36.114 -23.930 -10.169  0.00  0.00    -0.382 OA
ATOM     21  H   UNL     1      36.691 -24.134  -9.418  0.00  0.00    +0.210 HD
ENDBRANCH   3  20
BRANCH   5  22
ATOM     22  C   UNL     1      38.413 -25.518 -12.620  0.00  0.00    +0.186 C 
BRANCH  22  23
ATOM     23  O   UNL     1      39.506 -24.991 -13.351  0.00  0.00    -0.271 OA
BRANCH  23  24
ATOM     24  P   UNL     1      39.673 -25.416 -14.905  0.00  0.00    +0.473 P 
ATOM     25  O   UNL     1      40.943 -26.147 -15.230  0.00  0.00    -0.227 OA
BRANCH  24  26
ATOM     26  O   UNL     1      39.447 -24.030 -15.708  0.00  0.00    -0.303 OA
ATOM     27  H   UNL     1      39.827 -23.297 -15.201  0.00  0.00    +0.222 HD
ENDBRANCH  24  26
BRANCH  24  28
ATOM     28  O   UNL     1      38.314 -26.243 -15.201  0.00  0.00    -0.303 OA
ATOM     29  H   UNL     1      38.445 -27.174 -14.964  0.00  0.00    +0.222 HD
ENDBRANCH  24  28
ENDBRANCH  23  24
ENDBRANCH  22  23
ENDBRANCH   5  22
TORSDOF 7
ENDMDL
MODEL 4
REMARK VINA RESULT:      -9.5      3.299      6.596
REMARK  Name = 65059
REMARK  7 active torsions:
REMARK  status: ('A' for Active; 'I' for Inactive)
REMARK    1  A    between atoms: C_2  and  N_7
REMARK    2  A    between atoms: C_3  and  O_20
REMARK    3  A    between atoms: C_5  and  C_22
REMARK    4  A    between atoms: C_22  and  O_23
REMARK    5  A    between atoms: O_23  and  P_24
REMARK    6  A    between atoms: P_24  and  O_26
REMARK    7  A    between atoms: P_24  and  O_28
REMARK                            x       y       z     vdW  Elec       q    Type
REMARK                         _______ _______ _______ _____ _____    ______ ____
ROOT
ATOM      1  O   UNL     1      35.657 -24.879 -15.957  0.00  0.00    -0.338 OA
ATOM      2  C   UNL     1      35.590 -23.526 -16.441  0.00  0.00    +0.182 C 
ATOM      3  C   UNL     1      37.181 -23.536 -14.711  0.00  0.00    +0.144 C 
ATOM      4  C   UNL     1      36.139 -22.636 -15.335  0.00  0.00    +0.079 C 
ATOM      5  C   UNL     1      36.563 -24.924 -14.833  0.00  0.00    +0.174 C 
ENDROOT
BRANCH   2   7
ATOM      6  O   UNL     1      29.760 -22.528 -17.089  0.00  0.00    -0.208 OA
ATOM      7  N   UNL     1      34.225 -23.209 -16.844  0.00  0.00    -0.209 NA
ATOM      8  N   UNL     1      32.932 -23.698 -14.841  0.00  0.00    -0.279 N 
ATOM      9  N   UNL     1      32.514 -22.550 -18.143  0.00  0.00    -0.241 NA
ATOM     10  N   UNL     1      30.573 -23.308 -15.064  0.00  0.00    -0.301 NA
ATOM     11  N   UNL     1      31.520 -24.100 -13.056  0.00  0.00    -0.320 N 
ATOM     12  C   UNL     1      33.092 -23.302 -16.106  0.00  0.00    +0.191 C 
ATOM     13  C   UNL     1      33.820 -22.746 -18.077  0.00  0.00    +0.205 C 
ATOM     14  C   UNL     1      32.058 -22.900 -16.902  0.00  0.00    +0.183 C 
ATOM     15  C   UNL     1      30.702 -22.886 -16.392  0.00  0.00    +0.224 C 
ATOM     16  C   UNL     1      31.625 -23.683 -14.359  0.00  0.00    +0.245 C 
ATOM     17  H   UNL     1      33.691 -23.984 -14.284  0.00  0.00    +0.152 HD
ATOM     18  H   UNL     1      32.326 -24.371 -12.560  0.00  0.00    +0.146 HD
ATOM     19  H   UNL     1      30.639 -24.127 -12.617  0.00  0.00    +0.146 HD
ENDBRANCH   2   7
BRANCH   3  20
ATOM     20  O   UNL     1      38.366 -23.469 -15.501  0.00  0.00    -0.382 OA
ATOM     21  H   UNL     1      38.164 -23.737 -16.411  0.00  0.00    +0.210 HD
ENDBRANCH   3  20
BRANCH   5  22
ATOM     22  C   UNL     1      35.764 -25.322 -13.600  0.00  0.00    +0.186 C 
BRANCH  22  23
ATOM     23  O   UNL     1      36.539 -25.043 -12.447  0.00  0.00    -0.271 OA
BRANCH  23  24
ATOM     24  P   UNL     1      35.923 -24.053 -11.324  0.00  0.00    +0.473 P 
ATOM     25  O   UNL     1      36.872 -23.011 -10.808  0.00  0.00    -0.227 OA
BRANCH  24  26
ATOM     26  O   UNL     1      35.329 -25.061 -10.208  0.00  0.00    -0.303 OA
ATOM     27  H   UNL     1      34.635 -24.611  -9.702  0.00  0.00    +0.222 HD
ENDBRANCH  24  26
BRANCH  24  28
ATOM     28  O   UNL     1      34.595 -23.471 -12.043  0.00  0.00    -0.303 OA
ATOM     29  H   UNL     1      34.731 -23.448 -13.003  0.00  0.00    +0.222 HD
ENDBRANCH  24  28
ENDBRANCH  23  24
ENDBRANCH  22  23
ENDBRANCH   5  22
TORSDOF 7
ENDMDL
MODEL 5
REMARK VINA RESULT:      -9.2      4.555      7.114
REMARK  Name = 65059
REMARK  7 active torsions:
REMARK  status: ('A' for Active; 'I' for Inactive)
REMARK    1  A    between atoms: C_2  and  N_7
REMARK    2  A    between atoms: C_3  and  O_20
REMARK    3  A    between atoms: C_5  and  C_22
REMARK    4  A    between atoms: C_22  and  O_23
REMARK    5  A    between atoms: O_23  and  P_24
REMARK    6  A    between atoms: P_24  and  O_26
REMARK    7  A    between atoms: P_24  and  O_28
REMARK                            x       y       z     vdW  Elec       q    Type
REMARK                         _______ _______ _______ _____ _____    ______ ____
ROOT
ATOM      1  O   UNL     1      35.294 -24.242 -15.703  0.00  0.00    -0.338 OA
ATOM      2  C   UNL     1      35.865 -23.320 -16.649  0.00  0.00    +0.182 C 
ATOM      3  C   UNL     1      37.056 -23.038 -14.642  0.00  0.00    +0.144 C 
ATOM      4  C   UNL     1      36.580 -22.248 -15.839  0.00  0.00    +0.079 C 
ATOM      5  C   UNL     1      35.938 -24.051 -14.425  0.00  0.00    +0.174 C 
ENDROOT
BRANCH   2   7
ATOM      6  O   UNL     1      32.409 -20.655 -20.694  0.00  0.00    -0.208 OA
ATOM      7  N   UNL     1      34.825 -22.809 -17.534  0.00  0.00    -0.209 NA
ATOM      8  N   UNL     1      36.033 -21.253 -18.963  0.00  0.00    -0.279 N 
ATOM      9  N   UNL     1      32.791 -22.524 -18.446  0.00  0.00    -0.241 NA
ATOM     10  N   UNL     1      34.671 -20.157 -20.609  0.00  0.00    -0.301 NA
ATOM     11  N   UNL     1      36.982 -19.734 -20.423  0.00  0.00    -0.320 N 
ATOM     12  C   UNL     1      34.947 -21.902 -18.534  0.00  0.00    +0.191 C 
ATOM     13  C   UNL     1      33.492 -23.158 -17.521  0.00  0.00    +0.205 C 
ATOM     14  C   UNL     1      33.708 -21.736 -19.082  0.00  0.00    +0.183 C 
ATOM     15  C   UNL     1      33.512 -20.819 -20.187  0.00  0.00    +0.224 C 
ATOM     16  C   UNL     1      35.836 -20.373 -20.025  0.00  0.00    +0.245 C 
ATOM     17  H   UNL     1      36.917 -21.388 -18.554  0.00  0.00    +0.152 HD
ATOM     18  H   UNL     1      37.834 -19.921 -19.965  0.00  0.00    +0.146 HD
ATOM     19  H   UNL     1      36.954 -19.090 -21.167  0.00  0.00    +0.146 HD
ENDBRANCH   2   7
BRANCH   3  20
ATOM     20  O   UNL     1      38.256 -23.721 -15.000  0.00  0.00    -0.382 OA
ATOM     21  H   UNL     1      38.574 -23.389 -15.854  0.00  0.00    +0.210 HD
ENDBRANCH   3  20
BRANCH   5  22
ATOM     22  C   UNL     1      34.886 -23.563 -13.438  0.00  0.00    +0.186 C 
BRANCH  22  23
ATOM     23  O   UNL     1      34.803 -24.488 -12.368  0.00  0.00    -0.271 OA
BRANCH  23  24
ATOM     24  P   UNL     1      35.999 -24.517 -11.277  0.00  0.00    +0.473 P 
ATOM     25  O   UNL     1      36.814 -23.259 -11.196  0.00  0.00    -0.227 OA
BRANCH  24  26
ATOM     26  O   UNL     1      36.827 -25.855 -11.650  0.00  0.00    -0.303 OA
ATOM     27  H   UNL     1      36.207 -26.573 -11.849  0.00  0.00    +0.222 HD
ENDBRANCH  24  26
BRANCH  24  28
ATOM     28  O   UNL     1      35.232 -24.923  -9.911  0.00  0.00    -0.303 OA
ATOM     29  H   UNL     1      35.621 -24.439  -9.166  0.00  0.00    +0.222 HD
ENDBRANCH  24  28
ENDBRANCH  23  24
ENDBRANCH  22  23
ENDBRANCH   5  22
TORSDOF 7
ENDMDL
MODEL 6
REMARK VINA RESULT:      -9.1      4.091      7.005
REMARK  Name = 65059
REMARK  7 active torsions:
REMARK  status: ('A' for Active; 'I' for Inactive)
REMARK    1  A    between atoms: C_2  and  N_7
REMARK    2  A    between atoms: C_3  and  O_20
REMARK    3  A    between atoms: C_5  and  C_22
REMARK    4  A    between atoms: C_22  and  O_23
REMARK    5  A    between atoms: O_23  and  P_24
REMARK    6  A    between atoms: P_24  and  O_26
REMARK    7  A    between atoms: P_24  and  O_28
REMARK                            x       y       z     vdW  Elec       q    Type
REMARK                         _______ _______ _______ _____ _____    ______ ____
ROOT
ATOM      1  O   UNL     1      37.094 -23.481 -13.351  0.00  0.00    -0.338 OA
ATOM      2  C   UNL     1      35.723 -23.280 -12.967  0.00  0.00    +0.182 C 
ATOM      3  C   UNL     1      36.780 -24.319 -11.142  0.00  0.00    +0.144 C 
ATOM      4  C   UNL     1      35.437 -24.255 -11.833  0.00  0.00    +0.079 C 
ATOM      5  C   UNL     1      37.771 -24.194 -12.293  0.00  0.00    +0.174 C 
ENDROOT
BRANCH   2   7
ATOM      6  O   UNL     1      32.957 -23.433 -18.234  0.00  0.00    -0.208 OA
ATOM      7  N   UNL     1      34.853 -23.439 -14.127  0.00  0.00    -0.209 NA
ATOM      8  N   UNL     1      36.142 -22.425 -15.925  0.00  0.00    -0.279 N 
ATOM      9  N   UNL     1      33.059 -24.024 -15.346  0.00  0.00    -0.241 NA
ATOM     10  N   UNL     1      35.057 -22.467 -18.067  0.00  0.00    -0.301 NA
ATOM     11  N   UNL     1      37.192 -21.513 -17.770  0.00  0.00    -0.320 N 
ATOM     12  C   UNL     1      35.080 -23.046 -15.403  0.00  0.00    +0.191 C 
ATOM     13  C   UNL     1      33.608 -24.030 -14.144  0.00  0.00    +0.205 C 
ATOM     14  C   UNL     1      33.987 -23.405 -16.137  0.00  0.00    +0.183 C 
ATOM     15  C   UNL     1      33.929 -23.119 -17.556  0.00  0.00    +0.224 C 
ATOM     16  C   UNL     1      36.078 -22.152 -17.289  0.00  0.00    +0.245 C 
ATOM     17  H   UNL     1      36.920 -22.175 -15.378  0.00  0.00    +0.152 HD
ATOM     18  H   UNL     1      37.934 -21.295 -17.161  0.00  0.00    +0.146 HD
ATOM     19  H   UNL     1      37.250 -21.273 -18.723  0.00  0.00    +0.146 HD
ENDBRANCH   2   7
BRANCH   3  20
ATOM     20  O   UNL     1      36.899 -23.186 -10.283  0.00  0.00    -0.382 OA
ATOM     21  H   UNL     1      37.830 -22.921 -10.224  0.00  0.00    +0.210 HD
ENDBRANCH   3  20
BRANCH   5  22
ATOM     22  C   UNL     1      38.209 -25.545 -12.841  0.00  0.00    +0.186 C 
BRANCH  22  23
ATOM     23  O   UNL     1      39.442 -25.382 -13.520  0.00  0.00    -0.271 OA
BRANCH  23  24
ATOM     24  P   UNL     1      39.446 -25.439 -15.138  0.00  0.00    +0.473 P 
ATOM     25  O   UNL     1      40.713 -25.960 -15.751  0.00  0.00    -0.227 OA
BRANCH  24  26
ATOM     26  O   UNL     1      39.031 -23.939 -15.576  0.00  0.00    -0.303 OA
ATOM     27  H   UNL     1      39.682 -23.309 -15.229  0.00  0.00    +0.222 HD
ENDBRANCH  24  26
BRANCH  24  28
ATOM     28  O   UNL     1      38.120 -26.304 -15.472  0.00  0.00    -0.303 OA
ATOM     29  H   UNL     1      37.951 -26.929 -14.750  0.00  0.00    +0.222 HD
ENDBRANCH  24  28
ENDBRANCH  23  24
ENDBRANCH  22  23
ENDBRANCH   5  22
TORSDOF 7
ENDMDL
MODEL 7
REMARK VINA RESULT:      -9.1      5.148      7.353
REMARK  Name = 65059
REMARK  7 active torsions:
REMARK  status: ('A' for Active; 'I' for Inactive)
REMARK    1  A    between atoms: C_2  and  N_7
REMARK    2  A    between atoms: C_3  and  O_20
REMARK    3  A    between atoms: C_5  and  C_22
REMARK    4  A    between atoms: C_22  and  O_23
REMARK    5  A    between atoms: O_23  and  P_24
REMARK    6  A    between atoms: P_24  and  O_26
REMARK    7  A    between atoms: P_24  and  O_28
REMARK                            x       y       z     vdW  Elec       q    Type
REMARK                         _______ _______ _______ _____ _____    ______ ____
ROOT
ATOM      1  O   UNL     1      37.046 -23.045 -13.190  0.00  0.00    -0.338 OA
ATOM      2  C   UNL     1      35.994 -23.443 -14.086  0.00  0.00    +0.182 C 
ATOM      3  C   UNL     1      36.309 -25.231 -12.592  0.00  0.00    +0.144 C 
ATOM      4  C   UNL     1      35.920 -24.963 -14.028  0.00  0.00    +0.079 C 
ATOM      5  C   UNL     1      37.337 -24.144 -12.300  0.00  0.00    +0.174 C 
ENDROOT
BRANCH   2   7
ATOM      6  O   UNL     1      35.983 -21.452 -19.694  0.00  0.00    -0.208 OA
ATOM      7  N   UNL     1      36.245 -22.906 -15.419  0.00  0.00    -0.209 NA
ATOM      8  N   UNL     1      34.071 -23.070 -16.498  0.00  0.00    -0.279 N 
ATOM      9  N   UNL     1      37.365 -22.010 -17.148  0.00  0.00    -0.241 NA
ATOM     10  N   UNL     1      34.027 -22.275 -18.764  0.00  0.00    -0.301 NA
ATOM     11  N   UNL     1      32.103 -23.136 -17.709  0.00  0.00    -0.320 N 
ATOM     12  C   UNL     1      35.370 -22.763 -16.443  0.00  0.00    +0.191 C 
ATOM     13  C   UNL     1      37.447 -22.432 -15.898  0.00  0.00    +0.205 C 
ATOM     14  C   UNL     1      36.057 -22.218 -17.488  0.00  0.00    +0.183 C 
ATOM     15  C   UNL     1      35.386 -21.941 -18.742  0.00  0.00    +0.224 C 
ATOM     16  C   UNL     1      33.433 -22.801 -17.707  0.00  0.00    +0.245 C 
ATOM     17  H   UNL     1      33.594 -23.462 -15.732  0.00  0.00    +0.152 HD
ATOM     18  H   UNL     1      31.693 -23.525 -16.902  0.00  0.00    +0.146 HD
ATOM     19  H   UNL     1      31.558 -22.987 -18.515  0.00  0.00    +0.146 HD
ENDBRANCH   2   7
BRANCH   3  20
ATOM     20  O   UNL     1      35.160 -25.035 -11.770  0.00  0.00    -0.382 OA
ATOM     21  H   UNL     1      34.871 -25.888 -11.410  0.00  0.00    +0.210 HD
ENDBRANCH   3  20
BRANCH   5  22
ATOM     22  C   UNL     1      38.765 -24.600 -12.567  0.00  0.00    +0.186 C 
BRANCH  22  23
ATOM     23  O   UNL     1      38.966 -24.668 -13.968  0.00  0.00    -0.271 OA
BRANCH  23  24
ATOM     24  P   UNL     1      39.794 -25.923 -14.569  0.00  0.00    +0.473 P 
ATOM     25  O   UNL     1      40.971 -26.359 -13.746  0.00  0.00    -0.227 OA
BRANCH  24  26
ATOM     26  O   UNL     1      40.138 -25.466 -16.082  0.00  0.00    -0.303 OA
ATOM     27  H   UNL     1      39.323 -25.445 -16.606  0.00  0.00    +0.222 HD
ENDBRANCH  24  26
BRANCH  24  28
ATOM     28  O   UNL     1      38.649 -27.048 -14.772  0.00  0.00    -0.303 OA
ATOM     29  H   UNL     1      38.618 -27.313 -15.704  0.00  0.00    +0.222 HD
ENDBRANCH  24  28
ENDBRANCH  23  24
ENDBRANCH  22  23
ENDBRANCH   5  22
TORSDOF 7
ENDMDL
MODEL 8
REMARK VINA RESULT:      -8.9      7.310      9.085
REMARK  Name = 65059
REMARK  7 active torsions:
REMARK  status: ('A' for Active; 'I' for Inactive)
REMARK    1  A    between atoms: C_2  and  N_7
REMARK    2  A    between atoms: C_3  and  O_20
REMARK    3  A    between atoms: C_5  and  C_22
REMARK    4  A    between atoms: C_22  and  O_23
REMARK    5  A    between atoms: O_23  and  P_24
REMARK    6  A    between atoms: P_24  and  O_26
REMARK    7  A    between atoms: P_24  and  O_28
REMARK                            x       y       z     vdW  Elec       q    Type
REMARK                         _______ _______ _______ _____ _____    ______ ____
ROOT
ATOM      1  O   UNL     1      35.378 -18.333 -20.493  0.00  0.00    -0.338 OA
ATOM      2  C   UNL     1      35.291 -19.625 -21.121  0.00  0.00    +0.182 C 
ATOM      3  C   UNL     1      35.277 -18.038 -22.856  0.00  0.00    +0.144 C 
ATOM      4  C   UNL     1      34.714 -19.398 -22.511  0.00  0.00    +0.079 C 
ATOM      5  C   UNL     1      35.290 -17.316 -21.513  0.00  0.00    +0.174 C 
ENDROOT
BRANCH   2   7
ATOM      6  O   UNL     1      33.015 -23.475 -17.196  0.00  0.00    -0.208 OA
ATOM      7  N   UNL     1      34.508 -20.531 -20.288  0.00  0.00    -0.209 NA
ATOM      8  N   UNL     1      36.139 -21.345 -18.677  0.00  0.00    -0.279 N 
ATOM      9  N   UNL     1      32.737 -21.681 -19.520  0.00  0.00    -0.241 NA
ATOM     10  N   UNL     1      35.257 -22.903 -17.075  0.00  0.00    -0.301 NA
ATOM     11  N   UNL     1      37.520 -22.244 -17.056  0.00  0.00    -0.320 N 
ATOM     12  C   UNL     1      34.925 -21.264 -19.228  0.00  0.00    +0.191 C 
ATOM     13  C   UNL     1      33.168 -20.819 -20.426  0.00  0.00    +0.205 C 
ATOM     14  C   UNL     1      33.844 -21.959 -18.767  0.00  0.00    +0.183 C 
ATOM     15  C   UNL     1      33.972 -22.843 -17.626  0.00  0.00    +0.224 C 
ATOM     16  C   UNL     1      36.254 -22.198 -17.580  0.00  0.00    +0.245 C 
ATOM     17  H   UNL     1      36.905 -20.836 -19.024  0.00  0.00    +0.152 HD
ATOM     18  H   UNL     1      38.239 -21.703 -17.458  0.00  0.00    +0.146 HD
ATOM     19  H   UNL     1      37.711 -22.816 -16.278  0.00  0.00    +0.146 HD
ENDBRANCH   2   7
BRANCH   3  20
ATOM     20  O   UNL     1      36.615 -18.208 -23.319  0.00  0.00    -0.382 OA
ATOM     21  H   UNL     1      36.646 -18.067 -24.278  0.00  0.00    +0.210 HD
ENDBRANCH   3  20
BRANCH   5  22
ATOM     22  C   UNL     1      34.021 -16.511 -21.267  0.00  0.00    +0.186 C 
BRANCH  22  23
ATOM     23  O   UNL     1      34.264 -15.161 -21.621  0.00  0.00    -0.271 OA
BRANCH  23  24
ATOM     24  P   UNL     1      33.491 -14.548 -22.905  0.00  0.00    +0.473 P 
ATOM     25  O   UNL     1      33.444 -15.447 -24.106  0.00  0.00    -0.227 OA
BRANCH  24  26
ATOM     26  O   UNL     1      34.209 -13.118 -23.139  0.00  0.00    -0.303 OA
ATOM     27  H   UNL     1      34.330 -12.674 -22.285  0.00  0.00    +0.222 HD
ENDBRANCH  24  26
BRANCH  24  28
ATOM     28  O   UNL     1      32.046 -14.143 -22.298  0.00  0.00    -0.303 OA
ATOM     29  H   UNL     1      32.021 -14.359 -21.353  0.00  0.00    +0.222 HD
ENDBRANCH  24  28
ENDBRANCH  23  24
ENDBRANCH  22  23
ENDBRANCH   5  22
TORSDOF 7
ENDMDL
MODEL 9
REMARK VINA RESULT:      -8.6      4.421      7.134
REMARK  Name = 65059
REMARK  7 active torsions:
REMARK  status: ('A' for Active; 'I' for Inactive)
REMARK    1  A    between atoms: C_2  and  N_7
REMARK    2  A    between atoms: C_3  and  O_20
REMARK    3  A    between atoms: C_5  and  C_22
REMARK    4  A    between atoms: C_22  and  O_23
REMARK    5  A    between atoms: O_23  and  P_24
REMARK    6  A    between atoms: P_24  and  O_26
REMARK    7  A    between atoms: P_24  and  O_28
REMARK                            x       y       z     vdW  Elec       q    Type
REMARK                         _______ _______ _______ _____ _____    ______ ____
ROOT
ATOM      1  O   UNL     1      35.394 -22.798 -14.561  0.00  0.00    -0.338 OA
ATOM      2  C   UNL     1      34.307 -23.687 -14.875  0.00  0.00    +0.182 C 
ATOM      3  C   UNL     1      35.970 -25.001 -13.858  0.00  0.00    +0.144 C 
ATOM      4  C   UNL     1      34.887 -25.094 -14.908  0.00  0.00    +0.079 C 
ATOM      5  C   UNL     1      36.480 -23.572 -14.007  0.00  0.00    +0.174 C 
ENDROOT
BRANCH   2   7
ATOM      6  O   UNL     1      32.687 -21.696 -20.244  0.00  0.00    -0.208 OA
ATOM      7  N   UNL     1      33.669 -23.272 -16.119  0.00  0.00    -0.209 NA
ATOM      8  N   UNL     1      35.525 -22.392 -17.425  0.00  0.00    -0.279 N 
ATOM      9  N   UNL     1      32.049 -22.914 -17.635  0.00  0.00    -0.241 NA
ATOM     10  N   UNL     1      34.909 -21.578 -19.599  0.00  0.00    -0.301 NA
ATOM     11  N   UNL     1      37.136 -21.512 -18.828  0.00  0.00    -0.320 N 
ATOM     12  C   UNL     1      34.245 -22.708 -17.208  0.00  0.00    +0.191 C 
ATOM     13  C   UNL     1      32.330 -23.377 -16.429  0.00  0.00    +0.205 C 
ATOM     14  C   UNL     1      33.255 -22.494 -18.123  0.00  0.00    +0.183 C 
ATOM     15  C   UNL     1      33.560 -21.896 -19.408  0.00  0.00    +0.224 C 
ATOM     16  C   UNL     1      35.809 -21.817 -18.661  0.00  0.00    +0.245 C 
ATOM     17  H   UNL     1      36.223 -22.555 -16.751  0.00  0.00    +0.152 HD
ATOM     18  H   UNL     1      37.779 -21.705 -18.108  0.00  0.00    +0.146 HD
ATOM     19  H   UNL     1      37.445 -21.101 -19.668  0.00  0.00    +0.146 HD
ENDBRANCH   2   7
BRANCH   3  20
ATOM     20  O   UNL     1      35.368 -25.162 -12.575  0.00  0.00    -0.382 OA
ATOM     21  H   UNL     1      35.000 -26.055 -12.500  0.00  0.00    +0.210 HD
ENDBRANCH   3  20
BRANCH   5  22
ATOM     22  C   UNL     1      37.665 -23.467 -14.957  0.00  0.00    +0.186 C 
BRANCH  22  23
ATOM     23  O   UNL     1      38.012 -24.769 -15.394  0.00  0.00    -0.271 OA
BRANCH  23  24
ATOM     24  P   UNL     1      39.337 -25.464 -14.774  0.00  0.00    +0.473 P 
ATOM     25  O   UNL     1      39.941 -24.745 -13.604  0.00  0.00    -0.227 OA
BRANCH  24  26
ATOM     26  O   UNL     1      40.310 -25.645 -16.053  0.00  0.00    -0.303 OA
ATOM     27  H   UNL     1      40.749 -26.508 -16.005  0.00  0.00    +0.222 HD
ENDBRANCH  24  26
BRANCH  24  28
ATOM     28  O   UNL     1      38.842 -26.974 -14.467  0.00  0.00    -0.303 OA
ATOM     29  H   UNL     1      39.422 -27.374 -13.801  0.00  0.00    +0.222 HD
ENDBRANCH  24  28
ENDBRANCH  23  24
ENDBRANCH  22  23
ENDBRANCH   5  22
TORSDOF 7
ENDMDL
