MODEL 1
REMARK VINA RESULT:      -8.7      0.000      0.000
REMARK  Name = 132971
REMARK  2 active torsions:
REMARK  status: ('A' for Active; 'I' for Inactive)
REMARK    1  A    between atoms: C_12  and  C_21
REMARK    2  A    between atoms: C_19  and  O_26
REMARK                            x       y       z     vdW  Elec       q    Type
REMARK                         _______ _______ _______ _____ _____    ______ ____
ROOT
ATOM      1  C   UNL     1      35.226 -22.703 -16.030  0.00  0.00    +0.004 C 
ATOM      2  C   UNL     1      33.889 -22.996 -16.770  0.00  0.00    +0.005 C 
ATOM      3  C   UNL     1      33.673 -21.931 -17.849  0.00  0.00    +0.001 C 
ATOM      4  C   UNL     1      34.808 -21.883 -18.907  0.00  0.00    +0.004 C 
ATOM      5  C   UNL     1      35.532 -23.801 -14.935  0.00  0.00    +0.015 C 
ATOM      6  C   UNL     1      36.405 -22.420 -17.000  0.00  0.00    +0.000 C 
ATOM      7  C   UNL     1      36.068 -21.443 -18.144  0.00  0.00    +0.000 C 
ATOM      8  C   UNL     1      32.726 -23.009 -15.767  0.00  0.00    +0.025 C 
ATOM      9  C   UNL     1      32.386 -21.937 -18.665  0.00  0.00    +0.000 C 
ATOM     10  C   UNL     1      34.270 -24.120 -14.119  0.00  0.00    -0.047 C 
ATOM     11  C   UNL     1      36.631 -23.246 -13.981  0.00  0.00    +0.006 C 
ATOM     12  C   UNL     1      34.146 -20.910 -19.878  0.00  0.00    +0.024 C 
ATOM     13  C   UNL     1      33.037 -23.744 -14.503  0.00  0.00    -0.035 C 
ATOM     14  C   UNL     1      35.036 -23.236 -19.628  0.00  0.00    +0.000 C 
ATOM     15  C   UNL     1      36.029 -25.117 -15.581  0.00  0.00    +0.004 C 
ATOM     16  C   UNL     1      32.804 -21.009 -19.771  0.00  0.00    +0.004 C 
ATOM     17  C   UNL     1      34.459 -24.883 -12.828  0.00  0.00    +0.051 C 
ATOM     18  C   UNL     1      36.841 -24.075 -12.714  0.00  0.00    +0.030 C 
ATOM     19  C   UNL     1      35.534 -24.253 -11.948  0.00  0.00    +0.115 C 
ENDROOT
BRANCH  12  21
ATOM     20  N   UNL     1      34.759 -18.638 -22.817  0.00  0.00    -0.243 NA
ATOM     21  C   UNL     1      34.844 -20.022 -20.827  0.00  0.00    -0.003 C 
ATOM     22  C   UNL     1      36.195 -19.715 -20.674  0.00  0.00    -0.001 C 
ATOM     23  C   UNL     1      34.180 -19.458 -21.911  0.00  0.00    +0.095 C 
ATOM     24  C   UNL     1      36.826 -18.876 -21.585  0.00  0.00    +0.020 C 
ATOM     25  C   UNL     1      36.071 -18.368 -22.629  0.00  0.00    +0.099 C 
ENDBRANCH  12  21
BRANCH  19  26
ATOM     26  O   UNL     1      35.783 -25.092 -10.825  0.00  0.00    -0.384 OA
ATOM     27  H   UNL     1      36.678 -25.462 -10.889  0.00  0.00    +0.210 HD
ENDBRANCH  19  26
TORSDOF 2
ENDMDL
MODEL 2
REMARK VINA RESULT:      -8.1     11.672     15.301
REMARK  Name = 132971
REMARK  2 active torsions:
REMARK  status: ('A' for Active; 'I' for Inactive)
REMARK    1  A    between atoms: C_12  and  C_21
REMARK    2  A    between atoms: C_19  and  O_26
REMARK                            x       y       z     vdW  Elec       q    Type
REMARK                         _______ _______ _______ _____ _____    ______ ____
ROOT
ATOM      1  C   UNL     1      32.292  -9.821 -22.381  0.00  0.00    +0.004 C 
ATOM      2  C   UNL     1      31.773  -8.665 -21.479  0.00  0.00    +0.005 C 
ATOM      3  C   UNL     1      32.221  -7.328 -22.076  0.00  0.00    +0.001 C 
ATOM      4  C   UNL     1      31.697  -7.087 -23.517  0.00  0.00    +0.004 C 
ATOM      5  C   UNL     1      31.815 -11.230 -21.844  0.00  0.00    +0.015 C 
ATOM      6  C   UNL     1      32.012  -9.584 -23.891  0.00  0.00    +0.000 C 
ATOM      7  C   UNL     1      32.361  -8.167 -24.387  0.00  0.00    +0.000 C 
ATOM      8  C   UNL     1      32.304  -8.836 -20.048  0.00  0.00    +0.025 C 
ATOM      9  C   UNL     1      31.917  -6.033 -21.334  0.00  0.00    +0.000 C 
ATOM     10  C   UNL     1      31.996 -11.320 -20.321  0.00  0.00    -0.047 C 
ATOM     11  C   UNL     1      32.680 -12.331 -22.527  0.00  0.00    +0.006 C 
ATOM     12  C   UNL     1      32.144  -5.635 -23.661  0.00  0.00    +0.024 C 
ATOM     13  C   UNL     1      32.226 -10.243 -19.548  0.00  0.00    -0.035 C 
ATOM     14  C   UNL     1      30.153  -7.151 -23.630  0.00  0.00    +0.000 C 
ATOM     15  C   UNL     1      30.321 -11.478 -22.164  0.00  0.00    +0.004 C 
ATOM     16  C   UNL     1      32.192  -5.055 -22.443  0.00  0.00    +0.004 C 
ATOM     17  C   UNL     1      31.914 -12.693 -19.697  0.00  0.00    +0.051 C 
ATOM     18  C   UNL     1      32.528 -13.721 -21.912  0.00  0.00    +0.030 C 
ATOM     19  C   UNL     1      32.812 -13.697 -20.414  0.00  0.00    +0.115 C 
ENDROOT
BRANCH  12  21
ATOM     20  N   UNL     1      31.938  -3.132 -26.464  0.00  0.00    -0.243 NA
ATOM     21  C   UNL     1      32.438  -4.939 -24.927  0.00  0.00    -0.003 C 
ATOM     22  C   UNL     1      33.449  -5.382 -25.780  0.00  0.00    -0.001 C 
ATOM     23  C   UNL     1      31.720  -3.815 -25.319  0.00  0.00    +0.095 C 
ATOM     24  C   UNL     1      33.703  -4.706 -26.967  0.00  0.00    +0.020 C 
ATOM     25  C   UNL     1      32.927  -3.596 -27.261  0.00  0.00    +0.099 C 
ENDBRANCH  12  21
BRANCH  19  26
ATOM     26  O   UNL     1      32.581 -15.002 -19.891  0.00  0.00    -0.384 OA
ATOM     27  H   UNL     1      32.116 -15.537 -20.553  0.00  0.00    +0.210 HD
ENDBRANCH  19  26
TORSDOF 2
ENDMDL
MODEL 3
REMARK VINA RESULT:      -8.0      4.143      8.377
REMARK  Name = 132971
REMARK  2 active torsions:
REMARK  status: ('A' for Active; 'I' for Inactive)
REMARK    1  A    between atoms: C_12  and  C_21
REMARK    2  A    between atoms: C_19  and  O_26
REMARK                            x       y       z     vdW  Elec       q    Type
REMARK                         _______ _______ _______ _____ _____    ______ ____
ROOT
ATOM      1  C   UNL     1      34.452 -19.978 -20.200  0.00  0.00    +0.004 C 
ATOM      2  C   UNL     1      35.633 -20.885 -19.750  0.00  0.00    +0.005 C 
ATOM      3  C   UNL     1      35.287 -21.521 -18.400  0.00  0.00    +0.001 C 
ATOM      4  C   UNL     1      34.000 -22.387 -18.437  0.00  0.00    +0.004 C 
ATOM      5  C   UNL     1      34.728 -19.332 -21.617  0.00  0.00    +0.015 C 
ATOM      6  C   UNL     1      33.070 -20.675 -20.073  0.00  0.00    +0.000 C 
ATOM      7  C   UNL     1      32.850 -21.412 -18.737  0.00  0.00    +0.000 C 
ATOM      8  C   UNL     1      36.925 -20.059 -19.656  0.00  0.00    +0.025 C 
ATOM      9  C   UNL     1      36.317 -22.390 -17.691  0.00  0.00    +0.000 C 
ATOM     10  C   UNL     1      36.166 -18.798 -21.699  0.00  0.00    -0.047 C 
ATOM     11  C   UNL     1      33.732 -18.152 -21.818  0.00  0.00    +0.006 C 
ATOM     12  C   UNL     1      34.118 -22.994 -17.041  0.00  0.00    +0.024 C 
ATOM     13  C   UNL     1      37.119 -19.125 -20.807  0.00  0.00    -0.035 C 
ATOM     14  C   UNL     1      34.054 -23.527 -19.486  0.00  0.00    +0.000 C 
ATOM     15  C   UNL     1      34.536 -20.366 -22.753  0.00  0.00    +0.004 C 
ATOM     16  C   UNL     1      35.418 -23.046 -16.681  0.00  0.00    +0.004 C 
ATOM     17  C   UNL     1      36.489 -17.860 -22.839  0.00  0.00    +0.051 C 
ATOM     18  C   UNL     1      34.051 -17.258 -23.015  0.00  0.00    +0.030 C 
ATOM     19  C   UNL     1      35.477 -16.723 -22.942  0.00  0.00    +0.115 C 
ENDROOT
BRANCH  12  21
ATOM     20  N   UNL     1      32.259 -24.624 -14.203  0.00  0.00    -0.243 NA
ATOM     21  C   UNL     1      33.004 -23.494 -16.215  0.00  0.00    -0.003 C 
ATOM     22  C   UNL     1      31.677 -23.335 -16.615  0.00  0.00    -0.001 C 
ATOM     23  C   UNL     1      33.233 -24.142 -15.007  0.00  0.00    +0.095 C 
ATOM     24  C   UNL     1      30.647 -23.818 -15.816  0.00  0.00    +0.020 C 
ATOM     25  C   UNL     1      30.988 -24.449 -14.630  0.00  0.00    +0.099 C 
ENDBRANCH  12  21
BRANCH  19  26
ATOM     26  O   UNL     1      35.733 -15.962 -24.118  0.00  0.00    -0.384 OA
ATOM     27  H   UNL     1      35.726 -16.550 -24.891  0.00  0.00    +0.210 HD
ENDBRANCH  19  26
TORSDOF 2
ENDMDL
MODEL 4
REMARK VINA RESULT:      -7.8      5.598     10.667
REMARK  Name = 132971
REMARK  2 active torsions:
REMARK  status: ('A' for Active; 'I' for Inactive)
REMARK    1  A    between atoms: C_12  and  C_21
REMARK    2  A    between atoms: C_19  and  O_26
REMARK                            x       y       z     vdW  Elec       q    Type
REMARK                         _______ _______ _______ _____ _____    ______ ____
ROOT
ATOM      1  C   UNL     1      34.420 -15.536 -22.862  0.00  0.00    +0.004 C 
ATOM      2  C   UNL     1      34.039 -16.774 -23.723  0.00  0.00    +0.005 C 
ATOM      3  C   UNL     1      34.772 -18.004 -23.179  0.00  0.00    +0.001 C 
ATOM      4  C   UNL     1      34.431 -18.323 -21.699  0.00  0.00    +0.004 C 
ATOM      5  C   UNL     1      33.652 -14.240 -23.343  0.00  0.00    +0.015 C 
ATOM      6  C   UNL     1      34.323 -15.807 -21.335  0.00  0.00    +0.000 C 
ATOM      7  C   UNL     1      34.965 -17.134 -20.884  0.00  0.00    +0.000 C 
ATOM      8  C   UNL     1      34.400 -16.522 -25.195  0.00  0.00    +0.025 C 
ATOM      9  C   UNL     1      34.641 -19.339 -23.902  0.00  0.00    +0.000 C 
ATOM     10  C   UNL     1      33.676 -14.132 -24.875  0.00  0.00    -0.047 C 
ATOM     11  C   UNL     1      34.362 -12.996 -22.731  0.00  0.00    +0.006 C 
ATOM     12  C   UNL     1      35.142 -19.670 -21.608  0.00  0.00    +0.024 C 
ATOM     13  C   UNL     1      34.026 -15.156 -25.674  0.00  0.00    -0.035 C 
ATOM     14  C   UNL     1      32.916 -18.536 -21.448  0.00  0.00    +0.000 C 
ATOM     15  C   UNL     1      32.172 -14.262 -22.888  0.00  0.00    +0.004 C 
ATOM     16  C   UNL     1      35.184 -20.241 -22.830  0.00  0.00    +0.004 C 
ATOM     17  C   UNL     1      33.292 -12.801 -25.478  0.00  0.00    +0.051 C 
ATOM     18  C   UNL     1      33.907 -11.661 -23.319  0.00  0.00    +0.030 C 
ATOM     19  C   UNL     1      34.056 -11.646 -24.836  0.00  0.00    +0.115 C 
ENDROOT
BRANCH  12  21
ATOM     20  N   UNL     1      37.374 -20.355 -18.655  0.00  0.00    -0.243 NA
ATOM     21  C   UNL     1      35.669 -20.291 -20.379  0.00  0.00    -0.003 C 
ATOM     22  C   UNL     1      35.016 -21.361 -19.769  0.00  0.00    -0.001 C 
ATOM     23  C   UNL     1      36.837 -19.832 -19.780  0.00  0.00    +0.095 C 
ATOM     24  C   UNL     1      35.537 -21.926 -18.611  0.00  0.00    +0.020 C 
ATOM     25  C   UNL     1      36.708 -21.392 -18.098  0.00  0.00    +0.099 C 
ENDBRANCH  12  21
BRANCH  19  26
ATOM     26  O   UNL     1      33.549 -10.408 -25.326  0.00  0.00    -0.384 OA
ATOM     27  H   UNL     1      33.069 -10.562 -26.156  0.00  0.00    +0.210 HD
ENDBRANCH  19  26
TORSDOF 2
ENDMDL
MODEL 5
REMARK VINA RESULT:      -7.7      8.603     12.256
REMARK  Name = 132971
REMARK  2 active torsions:
REMARK  status: ('A' for Active; 'I' for Inactive)
REMARK    1  A    between atoms: C_12  and  C_21
REMARK    2  A    between atoms: C_19  and  O_26
REMARK                            x       y       z     vdW  Elec       q    Type
REMARK                         _______ _______ _______ _____ _____    ______ ____
ROOT
ATOM      1  C   UNL     1      33.519 -13.350 -22.458  0.00  0.00    +0.004 C 
ATOM      2  C   UNL     1      32.470 -13.292 -21.311  0.00  0.00    +0.005 C 
ATOM      3  C   UNL     1      32.359 -11.850 -20.810  0.00  0.00    +0.001 C 
ATOM      4  C   UNL     1      31.925 -10.844 -21.910  0.00  0.00    +0.004 C 
ATOM      5  C   UNL     1      33.642 -14.809 -23.055  0.00  0.00    +0.015 C 
ATOM      6  C   UNL     1      33.314 -12.238 -23.523  0.00  0.00    +0.000 C 
ATOM      7  C   UNL     1      33.069 -10.834 -22.937  0.00  0.00    +0.000 C 
ATOM      8  C   UNL     1      32.881 -14.241 -20.175  0.00  0.00    +0.025 C 
ATOM      9  C   UNL     1      31.459 -11.533 -19.622  0.00  0.00    +0.000 C 
ATOM     10  C   UNL     1      33.694 -15.853 -21.929  0.00  0.00    -0.047 C 
ATOM     11  C   UNL     1      34.957 -14.888 -23.886  0.00  0.00    +0.006 C 
ATOM     12  C   UNL     1      31.720  -9.628 -21.011  0.00  0.00    +0.024 C 
ATOM     13  C   UNL     1      33.365 -15.572 -20.656  0.00  0.00    -0.035 C 
ATOM     14  C   UNL     1      30.576 -11.208 -22.580  0.00  0.00    +0.000 C 
ATOM     15  C   UNL     1      32.437 -15.147 -23.966  0.00  0.00    +0.004 C 
ATOM     16  C   UNL     1      31.396 -10.038 -19.766  0.00  0.00    +0.004 C 
ATOM     17  C   UNL     1      34.147 -17.246 -22.302  0.00  0.00    +0.051 C 
ATOM     18  C   UNL     1      35.355 -16.304 -24.300  0.00  0.00    +0.030 C 
ATOM     19  C   UNL     1      35.454 -17.226 -23.089  0.00  0.00    +0.115 C 
ENDROOT
BRANCH  12  21
ATOM     20  N   UNL     1      32.263  -5.908 -20.841  0.00  0.00    -0.243 NA
ATOM     21  C   UNL     1      31.810  -8.217 -21.427  0.00  0.00    -0.003 C 
ATOM     22  C   UNL     1      31.545  -7.829 -22.740  0.00  0.00    -0.001 C 
ATOM     23  C   UNL     1      32.162  -7.218 -20.526  0.00  0.00    +0.095 C 
ATOM     24  C   UNL     1      31.638  -6.491 -23.103  0.00  0.00    +0.020 C 
ATOM     25  C   UNL     1      31.997  -5.577 -22.125  0.00  0.00    +0.099 C 
ENDBRANCH  12  21
BRANCH  19  26
ATOM     26  O   UNL     1      35.754 -18.540 -23.548  0.00  0.00    -0.384 OA
ATOM     27  H   UNL     1      36.027 -19.090 -22.797  0.00  0.00    +0.210 HD
ENDBRANCH  19  26
TORSDOF 2
ENDMDL
MODEL 6
REMARK VINA RESULT:      -7.5      7.417     11.716
REMARK  Name = 132971
REMARK  2 active torsions:
REMARK  status: ('A' for Active; 'I' for Inactive)
REMARK    1  A    between atoms: C_12  and  C_21
REMARK    2  A    between atoms: C_19  and  O_26
REMARK                            x       y       z     vdW  Elec       q    Type
REMARK                         _______ _______ _______ _____ _____    ______ ____
ROOT
ATOM      1  C   UNL     1      33.007 -12.621 -21.268  0.00  0.00    +0.004 C 
ATOM      2  C   UNL     1      32.953 -13.161 -22.726  0.00  0.00    +0.005 C 
ATOM      3  C   UNL     1      33.810 -14.427 -22.820  0.00  0.00    +0.001 C 
ATOM      4  C   UNL     1      33.344 -15.561 -21.869  0.00  0.00    +0.004 C 
ATOM      5  C   UNL     1      32.097 -11.340 -21.094  0.00  0.00    +0.015 C 
ATOM      6  C   UNL     1      32.766 -13.726 -20.203  0.00  0.00    +0.000 C 
ATOM      7  C   UNL     1      33.561 -15.025 -20.444  0.00  0.00    +0.000 C 
ATOM      8  C   UNL     1      33.449 -12.085 -23.704  0.00  0.00    +0.025 C 
ATOM      9  C   UNL     1      33.999 -15.109 -24.169  0.00  0.00    +0.000 C 
ATOM     10  C   UNL     1      32.296 -10.369 -22.267  0.00  0.00    -0.047 C 
ATOM     11  C   UNL     1      32.503 -10.629 -19.768  0.00  0.00    +0.006 C 
ATOM     12  C   UNL     1      34.256 -16.664 -22.397  0.00  0.00    +0.024 C 
ATOM     13  C   UNL     1      32.913 -10.721 -23.410  0.00  0.00    -0.035 C 
ATOM     14  C   UNL     1      31.868 -15.982 -22.087  0.00  0.00    +0.000 C 
ATOM     15  C   UNL     1      30.597 -11.718 -21.035  0.00  0.00    +0.004 C 
ATOM     16  C   UNL     1      34.548 -16.425 -23.693  0.00  0.00    +0.004 C 
ATOM     17  C   UNL     1      31.772  -8.963 -22.095  0.00  0.00    +0.051 C 
ATOM     18  C   UNL     1      31.907  -9.233 -19.596  0.00  0.00    +0.030 C 
ATOM     19  C   UNL     1      32.241  -8.338 -20.784  0.00  0.00    +0.115 C 
ENDROOT
BRANCH  12  21
ATOM     20  N   UNL     1      36.555 -19.063 -20.627  0.00  0.00    -0.243 NA
ATOM     21  C   UNL     1      34.721 -17.842 -21.641  0.00  0.00    -0.003 C 
ATOM     22  C   UNL     1      33.833 -18.833 -21.224  0.00  0.00    -0.001 C 
ATOM     23  C   UNL     1      36.063 -18.009 -21.316  0.00  0.00    +0.095 C 
ATOM     24  C   UNL     1      34.301 -19.932 -20.513  0.00  0.00    +0.020 C 
ATOM     25  C   UNL     1      35.659 -20.000 -20.242  0.00  0.00    +0.099 C 
ENDBRANCH  12  21
BRANCH  19  26
ATOM     26  O   UNL     1      31.597  -7.082 -20.597  0.00  0.00    -0.384 OA
ATOM     27  H   UNL     1      32.071  -6.398 -21.097  0.00  0.00    +0.210 HD
ENDBRANCH  19  26
TORSDOF 2
ENDMDL
MODEL 7
REMARK VINA RESULT:      -7.5      4.419      7.311
REMARK  Name = 132971
REMARK  2 active torsions:
REMARK  status: ('A' for Active; 'I' for Inactive)
REMARK    1  A    between atoms: C_12  and  C_21
REMARK    2  A    between atoms: C_19  and  O_26
REMARK                            x       y       z     vdW  Elec       q    Type
REMARK                         _______ _______ _______ _____ _____    ______ ____
ROOT
ATOM      1  C   UNL     1      31.958 -23.292 -15.083  0.00  0.00    +0.004 C 
ATOM      2  C   UNL     1      32.878 -23.351 -16.337  0.00  0.00    +0.005 C 
ATOM      3  C   UNL     1      34.320 -23.062 -15.911  0.00  0.00    +0.001 C 
ATOM      4  C   UNL     1      34.869 -24.067 -14.864  0.00  0.00    +0.004 C 
ATOM      5  C   UNL     1      30.459 -23.635 -15.451  0.00  0.00    +0.015 C 
ATOM      6  C   UNL     1      32.522 -24.098 -13.881  0.00  0.00    +0.000 C 
ATOM      7  C   UNL     1      34.019 -23.857 -13.600  0.00  0.00    +0.000 C 
ATOM      8  C   UNL     1      32.399 -22.338 -17.387  0.00  0.00    +0.025 C 
ATOM      9  C   UNL     1      35.413 -22.971 -16.968  0.00  0.00    +0.000 C 
ATOM     10  C   UNL     1      30.035 -22.906 -16.734  0.00  0.00    -0.047 C 
ATOM     11  C   UNL     1      29.550 -23.171 -14.275  0.00  0.00    +0.006 C 
ATOM     12  C   UNL     1      36.322 -23.602 -14.871  0.00  0.00    +0.024 C 
ATOM     13  C   UNL     1      30.915 -22.325 -17.570  0.00  0.00    -0.035 C 
ATOM     14  C   UNL     1      34.811 -25.542 -15.336  0.00  0.00    +0.000 C 
ATOM     15  C   UNL     1      30.269 -25.154 -15.678  0.00  0.00    +0.004 C 
ATOM     16  C   UNL     1      36.616 -23.060 -16.072  0.00  0.00    +0.004 C 
ATOM     17  C   UNL     1      28.556 -22.849 -17.038  0.00  0.00    +0.051 C 
ATOM     18  C   UNL     1      28.055 -23.184 -14.593  0.00  0.00    +0.030 C 
ATOM     19  C   UNL     1      27.749 -22.360 -15.839  0.00  0.00    +0.115 C 
ENDROOT
BRANCH  12  21
ATOM     20  N   UNL     1      38.172 -22.934 -11.661  0.00  0.00    -0.243 NA
ATOM     21  C   UNL     1      37.286 -23.752 -13.765  0.00  0.00    -0.003 C 
ATOM     22  C   UNL     1      38.206 -24.800 -13.742  0.00  0.00    -0.001 C 
ATOM     23  C   UNL     1      37.315 -22.854 -12.704  0.00  0.00    +0.095 C 
ATOM     24  C   UNL     1      39.103 -24.915 -12.687  0.00  0.00    +0.020 C 
ATOM     25  C   UNL     1      39.046 -23.965 -11.680  0.00  0.00    +0.099 C 
ENDBRANCH  12  21
BRANCH  19  26
ATOM     26  O   UNL     1      26.358 -22.473 -16.122  0.00  0.00    -0.384 OA
ATOM     27  H   UNL     1      26.199 -22.257 -17.055  0.00  0.00    +0.210 HD
ENDBRANCH  19  26
TORSDOF 2
ENDMDL
MODEL 8
REMARK VINA RESULT:      -7.4      4.209      6.203
REMARK  Name = 132971
REMARK  2 active torsions:
REMARK  status: ('A' for Active; 'I' for Inactive)
REMARK    1  A    between atoms: C_12  and  C_21
REMARK    2  A    between atoms: C_19  and  O_26
REMARK                            x       y       z     vdW  Elec       q    Type
REMARK                         _______ _______ _______ _____ _____    ______ ____
ROOT
ATOM      1  C   UNL     1      33.789 -23.731 -15.023  0.00  0.00    +0.004 C 
ATOM      2  C   UNL     1      32.909 -24.479 -13.981  0.00  0.00    +0.005 C 
ATOM      3  C   UNL     1      31.487 -23.913 -14.033  0.00  0.00    +0.001 C 
ATOM      4  C   UNL     1      30.813 -24.058 -15.423  0.00  0.00    +0.004 C 
ATOM      5  C   UNL     1      35.261 -24.308 -15.055  0.00  0.00    +0.015 C 
ATOM      6  C   UNL     1      33.115 -23.622 -16.418  0.00  0.00    +0.000 C 
ATOM      7  C   UNL     1      31.639 -23.179 -16.378  0.00  0.00    +0.000 C 
ATOM      8  C   UNL     1      33.513 -24.326 -12.577  0.00  0.00    +0.025 C 
ATOM      9  C   UNL     1      30.441 -24.415 -13.044  0.00  0.00    +0.000 C 
ATOM     10  C   UNL     1      35.792 -24.518 -13.629  0.00  0.00    -0.047 C 
ATOM     11  C   UNL     1      36.171 -23.282 -15.793  0.00  0.00    +0.006 C 
ATOM     12  C   UNL     1      29.411 -23.611 -15.023  0.00  0.00    +0.024 C 
ATOM     13  C   UNL     1      34.996 -24.508 -12.544  0.00  0.00    -0.035 C 
ATOM     14  C   UNL     1      30.750 -25.522 -15.928  0.00  0.00    +0.000 C 
ATOM     15  C   UNL     1      35.317 -25.668 -15.792  0.00  0.00    +0.004 C 
ATOM     16  C   UNL     1      29.206 -23.882 -13.717  0.00  0.00    +0.004 C 
ATOM     17  C   UNL     1      37.279 -24.736 -13.472  0.00  0.00    +0.051 C 
ATOM     18  C   UNL     1      37.667 -23.565 -15.667  0.00  0.00    +0.030 C 
ATOM     19  C   UNL     1      38.089 -23.671 -14.205  0.00  0.00    +0.115 C 
ENDROOT
BRANCH  12  21
ATOM     20  N   UNL     1      27.537 -22.724 -18.165  0.00  0.00    -0.243 NA
ATOM     21  C   UNL     1      28.402 -23.015 -15.918  0.00  0.00    -0.003 C 
ATOM     22  C   UNL     1      27.381 -22.204 -15.423  0.00  0.00    -0.001 C 
ATOM     23  C   UNL     1      28.429 -23.239 -17.290  0.00  0.00    +0.095 C 
ATOM     24  C   UNL     1      26.445 -21.655 -16.291  0.00  0.00    +0.020 C 
ATOM     25  C   UNL     1      26.565 -21.943 -17.641  0.00  0.00    +0.099 C 
ENDBRANCH  12  21
BRANCH  19  26
ATOM     26  O   UNL     1      39.472 -24.007 -14.159  0.00  0.00    -0.384 OA
ATOM     27  H   UNL     1      39.731 -24.182 -13.240  0.00  0.00    +0.210 HD
ENDBRANCH  19  26
TORSDOF 2
ENDMDL
MODEL 9
REMARK VINA RESULT:      -7.3     13.978     18.969
REMARK  Name = 132971
REMARK  2 active torsions:
REMARK  status: ('A' for Active; 'I' for Inactive)
REMARK    1  A    between atoms: C_12  and  C_21
REMARK    2  A    between atoms: C_19  and  O_26
REMARK                            x       y       z     vdW  Elec       q    Type
REMARK                         _______ _______ _______ _____ _____    ______ ____
ROOT
ATOM      1  C   UNL     1      32.281  -5.681 -25.119  0.00  0.00    +0.004 C 
ATOM      2  C   UNL     1      32.437  -5.112 -23.679  0.00  0.00    +0.005 C 
ATOM      3  C   UNL     1      31.912  -6.143 -22.676  0.00  0.00    +0.001 C 
ATOM      4  C   UNL     1      32.658  -7.503 -22.739  0.00  0.00    +0.004 C 
ATOM      5  C   UNL     1      32.855  -4.681 -26.200  0.00  0.00    +0.015 C 
ATOM      6  C   UNL     1      32.803  -7.138 -25.253  0.00  0.00    +0.000 C 
ATOM      7  C   UNL     1      32.343  -8.085 -24.127  0.00  0.00    +0.000 C 
ATOM      8  C   UNL     1      31.676  -3.783 -23.555  0.00  0.00    +0.025 C 
ATOM      9  C   UNL     1      31.869  -5.796 -21.193  0.00  0.00    +0.000 C 
ATOM     10  C   UNL     1      32.404  -3.243 -25.903  0.00  0.00    -0.047 C 
ATOM     11  C   UNL     1      32.313  -5.108 -27.597  0.00  0.00    +0.006 C 
ATOM     12  C   UNL     1      32.031  -8.141 -21.503  0.00  0.00    +0.024 C 
ATOM     13  C   UNL     1      31.871  -2.873 -24.725  0.00  0.00    -0.035 C 
ATOM     14  C   UNL     1      34.187  -7.378 -22.520  0.00  0.00    +0.000 C 
ATOM     15  C   UNL     1      34.403  -4.703 -26.221  0.00  0.00    +0.004 C 
ATOM     16  C   UNL     1      31.665  -7.176 -20.633  0.00  0.00    +0.004 C 
ATOM     17  C   UNL     1      32.575  -2.226 -27.007  0.00  0.00    +0.051 C 
ATOM     18  C   UNL     1      32.555  -4.085 -28.705  0.00  0.00    +0.030 C 
ATOM     19  C   UNL     1      31.992  -2.719 -28.328  0.00  0.00    +0.115 C 
ENDROOT
BRANCH  12  21
ATOM     20  N   UNL     1      31.773 -11.842 -22.141  0.00  0.00    -0.243 NA
ATOM     21  C   UNL     1      31.880  -9.587 -21.255  0.00  0.00    -0.003 C 
ATOM     22  C   UNL     1      31.707 -10.088 -19.966  0.00  0.00    -0.001 C 
ATOM     23  C   UNL     1      31.905 -10.506 -22.299  0.00  0.00    +0.095 C 
ATOM     24  C   UNL     1      31.567 -11.455 -19.763  0.00  0.00    +0.020 C 
ATOM     25  C   UNL     1      31.607 -12.283 -20.874  0.00  0.00    +0.099 C 
ENDBRANCH  12  21
BRANCH  19  26
ATOM     26  O   UNL     1      32.315  -1.798 -29.365  0.00  0.00    -0.384 OA
ATOM     27  H   UNL     1      32.620  -0.964 -28.973  0.00  0.00    +0.210 HD
ENDBRANCH  19  26
TORSDOF 2
ENDMDL
