MODEL 1
REMARK VINA RESULT:      -7.3      0.000      0.000
REMARK  Name = 9820838
REMARK  3 active torsions:
REMARK  status: ('A' for Active; 'I' for Inactive)
REMARK    1  A    between atoms: C_6  and  C_22
REMARK    2  A    between atoms: C_6  and  O_24
REMARK    3  A    between atoms: O_24  and  C_26
REMARK                            x       y       z     vdW  Elec       q    Type
REMARK                         _______ _______ _______ _____ _____    ______ ____
ROOT
ATOM      1  O   UNL     1      35.795 -23.699 -13.801  0.00  0.00    -0.291 OA
ATOM      2  C   UNL     1      35.107 -19.612 -21.211  0.00  0.00    +0.040 C 
ATOM      3  C   UNL     1      33.976 -20.033 -20.247  0.00  0.00    +0.004 C 
ATOM      4  C   UNL     1      34.253 -21.357 -19.523  0.00  0.00    +0.001 C 
ATOM      5  C   UNL     1      35.537 -21.186 -18.655  0.00  0.00    +0.004 C 
ATOM      6  C   UNL     1      34.485 -18.299 -21.766  0.00  0.00    +0.186 C 
ATOM      7  C   UNL     1      36.396 -19.454 -20.382  0.00  0.00    +0.004 C 
ATOM      8  C   UNL     1      36.757 -20.677 -19.496  0.00  0.00    +0.000 C 
ATOM      9  C   UNL     1      32.718 -19.894 -21.099  0.00  0.00    +0.004 C 
ATOM     10  C   UNL     1      32.989 -18.643 -21.963  0.00  0.00    +0.047 C 
ATOM     11  C   UNL     1      35.843 -22.451 -17.787  0.00  0.00    +0.019 C 
ATOM     12  C   UNL     1      33.062 -21.762 -18.643  0.00  0.00    +0.004 C 
ATOM     13  C   UNL     1      35.323 -20.606 -22.384  0.00  0.00    +0.004 C 
ATOM     14  C   UNL     1      33.348 -23.058 -17.899  0.00  0.00    +0.022 C 
ATOM     15  C   UNL     1      34.600 -22.958 -17.067  0.00  0.00    -0.042 C 
ATOM     16  C   UNL     1      37.471 -21.782 -20.285  0.00  0.00    +0.000 C 
ATOM     17  C   UNL     1      36.981 -22.145 -16.789  0.00  0.00    +0.012 C 
ATOM     18  C   UNL     1      37.135 -23.224 -15.732  0.00  0.00    +0.069 C 
ATOM     19  C   UNL     1      34.581 -23.349 -15.783  0.00  0.00    +0.029 C 
ATOM     20  C   UNL     1      35.834 -23.416 -14.996  0.00  0.00    +0.173 C 
ENDROOT
BRANCH   6  22
ATOM     21  O   UNL     1      36.282 -17.329 -23.002  0.00  0.00    -0.292 OA
ATOM     22  C   UNL     1      35.136 -17.775 -23.011  0.00  0.00    +0.187 C 
ATOM     23  C   UNL     1      34.317 -17.823 -24.273  0.00  0.00    +0.076 C 
ENDBRANCH   6  22
BRANCH   6  24
ATOM     24  O   UNL     1      34.604 -17.231 -20.831  0.00  0.00    -0.449 OA
BRANCH  24  26
ATOM     25  O   UNL     1      32.514 -16.258 -20.970  0.00  0.00    -0.250 OA
ATOM     26  C   UNL     1      33.736 -16.191 -21.005  0.00  0.00    +0.318 C 
ATOM     27  C   UNL     1      34.500 -14.926 -21.249  0.00  0.00    +0.121 C 
ENDBRANCH  24  26
ENDBRANCH   6  24
TORSDOF 3
ENDMDL
MODEL 2
REMARK VINA RESULT:      -6.4      2.105      8.563
REMARK  Name = 9820838
REMARK  3 active torsions:
REMARK  status: ('A' for Active; 'I' for Inactive)
REMARK    1  A    between atoms: C_6  and  C_22
REMARK    2  A    between atoms: C_6  and  O_24
REMARK    3  A    between atoms: O_24  and  C_26
REMARK                            x       y       z     vdW  Elec       q    Type
REMARK                         _______ _______ _______ _____ _____    ______ ____
ROOT
ATOM      1  O   UNL     1      33.529 -18.729 -21.180  0.00  0.00    -0.291 OA
ATOM      2  C   UNL     1      35.866 -24.136 -15.066  0.00  0.00    +0.040 C 
ATOM      3  C   UNL     1      36.745 -23.115 -15.821  0.00  0.00    +0.004 C 
ATOM      4  C   UNL     1      36.334 -22.921 -17.287  0.00  0.00    +0.001 C 
ATOM      5  C   UNL     1      34.876 -22.367 -17.321  0.00  0.00    +0.004 C 
ATOM      6  C   UNL     1      36.572 -24.097 -13.681  0.00  0.00    +0.186 C 
ATOM      7  C   UNL     1      34.413 -23.623 -15.102  0.00  0.00    +0.004 C 
ATOM      8  C   UNL     1      33.880 -23.270 -16.517  0.00  0.00    +0.000 C 
ATOM      9  C   UNL     1      38.166 -23.564 -15.494  0.00  0.00    +0.004 C 
ATOM     10  C   UNL     1      38.079 -24.037 -14.027  0.00  0.00    +0.047 C 
ATOM     11  C   UNL     1      34.403 -22.029 -18.773  0.00  0.00    +0.019 C 
ATOM     12  C   UNL     1      37.291 -21.958 -18.002  0.00  0.00    +0.004 C 
ATOM     13  C   UNL     1      35.958 -25.576 -15.642  0.00  0.00    +0.004 C 
ATOM     14  C   UNL     1      36.866 -21.739 -19.447  0.00  0.00    +0.022 C 
ATOM     15  C   UNL     1      35.450 -21.233 -19.540  0.00  0.00    -0.042 C 
ATOM     16  C   UNL     1      33.400 -24.504 -17.288  0.00  0.00    +0.000 C 
ATOM     17  C   UNL     1      33.053 -21.280 -18.728  0.00  0.00    +0.012 C 
ATOM     18  C   UNL     1      32.677 -20.674 -20.069  0.00  0.00    +0.069 C 
ATOM     19  C   UNL     1      35.172 -20.165 -20.306  0.00  0.00    +0.029 C 
ATOM     20  C   UNL     1      33.770 -19.753 -20.544  0.00  0.00    +0.173 C 
ENDROOT
BRANCH   6  22
ATOM     21  O   UNL     1      35.117 -25.323 -12.239  0.00  0.00    -0.292 OA
ATOM     22  C   UNL     1      36.224 -25.235 -12.769  0.00  0.00    +0.187 C 
ATOM     23  C   UNL     1      37.297 -26.265 -12.533  0.00  0.00    +0.076 C 
ENDBRANCH   6  22
BRANCH   6  24
ATOM     24  O   UNL     1      36.210 -22.933 -12.945  0.00  0.00    -0.449 OA
BRANCH  24  26
ATOM     25  O   UNL     1      38.109 -21.981 -12.038  0.00  0.00    -0.250 OA
ATOM     26  C   UNL     1      37.052 -22.589 -11.927  0.00  0.00    +0.318 C 
ATOM     27  C   UNL     1      36.494 -23.068 -10.622  0.00  0.00    +0.121 C 
ENDBRANCH  24  26
ENDBRANCH   6  24
TORSDOF 3
ENDMDL
MODEL 3
REMARK VINA RESULT:      -6.4      5.039      9.020
REMARK  Name = 9820838
REMARK  3 active torsions:
REMARK  status: ('A' for Active; 'I' for Inactive)
REMARK    1  A    between atoms: C_6  and  C_22
REMARK    2  A    between atoms: C_6  and  O_24
REMARK    3  A    between atoms: O_24  and  C_26
REMARK                            x       y       z     vdW  Elec       q    Type
REMARK                         _______ _______ _______ _____ _____    ______ ____
ROOT
ATOM      1  O   UNL     1      36.318 -18.519 -21.596  0.00  0.00    -0.291 OA
ATOM      2  C   UNL     1      32.250 -11.182 -22.895  0.00  0.00    +0.040 C 
ATOM      3  C   UNL     1      32.566 -11.870 -21.549  0.00  0.00    +0.004 C 
ATOM      4  C   UNL     1      32.521 -13.402 -21.621  0.00  0.00    +0.001 C 
ATOM      5  C   UNL     1      33.609 -13.880 -22.632  0.00  0.00    +0.004 C 
ATOM      6  C   UNL     1      32.349  -9.697 -22.445  0.00  0.00    +0.186 C 
ATOM      7  C   UNL     1      33.299 -11.652 -23.921  0.00  0.00    +0.004 C 
ATOM      8  C   UNL     1      33.459 -13.193 -24.032  0.00  0.00    +0.000 C 
ATOM      9  C   UNL     1      31.662 -11.140 -20.560  0.00  0.00    +0.004 C 
ATOM     10  C   UNL     1      31.674  -9.677 -21.053  0.00  0.00    +0.047 C 
ATOM     11  C   UNL     1      33.721 -15.439 -22.694  0.00  0.00    +0.019 C 
ATOM     12  C   UNL     1      32.764 -14.024 -20.239  0.00  0.00    +0.004 C 
ATOM     13  C   UNL     1      30.811 -11.460 -23.410  0.00  0.00    +0.004 C 
ATOM     14  C   UNL     1      32.754 -15.545 -20.315  0.00  0.00    +0.022 C 
ATOM     15  C   UNL     1      33.767 -16.059 -21.305  0.00  0.00    -0.042 C 
ATOM     16  C   UNL     1      32.388 -13.830 -24.925  0.00  0.00    +0.000 C 
ATOM     17  C   UNL     1      34.953 -15.847 -23.531  0.00  0.00    +0.012 C 
ATOM     18  C   UNL     1      35.284 -17.324 -23.398  0.00  0.00    +0.069 C 
ATOM     19  C   UNL     1      34.609 -17.042 -20.947  0.00  0.00    +0.029 C 
ATOM     20  C   UNL     1      35.496 -17.677 -21.948  0.00  0.00    +0.173 C 
ENDROOT
BRANCH   6  22
ATOM     21  O   UNL     1      32.080  -8.678 -24.587  0.00  0.00    -0.292 OA
ATOM     22  C   UNL     1      31.751  -8.710 -23.402  0.00  0.00    +0.187 C 
ATOM     23  C   UNL     1      30.723  -7.763 -22.842  0.00  0.00    +0.076 C 
ENDBRANCH   6  22
BRANCH   6  24
ATOM     24  O   UNL     1      33.706  -9.282 -22.317  0.00  0.00    -0.449 OA
BRANCH  24  26
ATOM     25  O   UNL     1      33.468  -7.227 -21.290  0.00  0.00    -0.250 OA
ATOM     26  C   UNL     1      33.906  -7.937 -22.186  0.00  0.00    +0.318 C 
ATOM     27  C   UNL     1      34.753  -7.437 -23.315  0.00  0.00    +0.121 C 
ENDBRANCH  24  26
ENDBRANCH   6  24
TORSDOF 3
ENDMDL
MODEL 4
REMARK VINA RESULT:      -5.5      2.278      8.337
REMARK  Name = 9820838
REMARK  3 active torsions:
REMARK  status: ('A' for Active; 'I' for Inactive)
REMARK    1  A    between atoms: C_6  and  C_22
REMARK    2  A    between atoms: C_6  and  O_24
REMARK    3  A    between atoms: O_24  and  C_26
REMARK                            x       y       z     vdW  Elec       q    Type
REMARK                         _______ _______ _______ _____ _____    ______ ____
ROOT
ATOM      1  O   UNL     1      34.945 -19.948 -22.972  0.00  0.00    -0.291 OA
ATOM      2  C   UNL     1      36.675 -23.411 -15.415  0.00  0.00    +0.040 C 
ATOM      3  C   UNL     1      35.471 -23.695 -16.340  0.00  0.00    +0.004 C 
ATOM      4  C   UNL     1      34.993 -22.461 -17.116  0.00  0.00    +0.001 C 
ATOM      5  C   UNL     1      36.156 -21.975 -18.036  0.00  0.00    +0.004 C 
ATOM      6  C   UNL     1      36.850 -24.825 -14.792  0.00  0.00    +0.186 C 
ATOM      7  C   UNL     1      37.836 -22.910 -16.297  0.00  0.00    +0.004 C 
ATOM      8  C   UNL     1      37.479 -21.725 -17.235  0.00  0.00    +0.000 C 
ATOM      9  C   UNL     1      34.494 -24.431 -15.428  0.00  0.00    +0.004 C 
ATOM     10  C   UNL     1      35.402 -25.308 -14.539  0.00  0.00    +0.047 C 
ATOM     11  C   UNL     1      35.730 -20.784 -18.956  0.00  0.00    +0.019 C 
ATOM     12  C   UNL     1      33.748 -22.787 -17.953  0.00  0.00    +0.004 C 
ATOM     13  C   UNL     1      36.361 -22.393 -14.285  0.00  0.00    +0.004 C 
ATOM     14  C   UNL     1      33.292 -21.572 -18.750  0.00  0.00    +0.022 C 
ATOM     15  C   UNL     1      34.391 -21.042 -19.634  0.00  0.00    -0.042 C 
ATOM     16  C   UNL     1      37.521 -20.372 -16.514  0.00  0.00    +0.000 C 
ATOM     17  C   UNL     1      36.837 -20.496 -19.994  0.00  0.00    +0.012 C 
ATOM     18  C   UNL     1      36.376 -19.552 -21.090  0.00  0.00    +0.069 C 
ATOM     19  C   UNL     1      34.141 -20.784 -20.928  0.00  0.00    +0.029 C 
ATOM     20  C   UNL     1      35.153 -20.108 -21.772  0.00  0.00    +0.173 C 
ENDROOT
BRANCH   6  22
ATOM     21  O   UNL     1      38.919 -24.668 -13.613  0.00  0.00    -0.292 OA
ATOM     22  C   UNL     1      37.706 -24.866 -13.563  0.00  0.00    +0.187 C 
ATOM     23  C   UNL     1      37.007 -25.159 -12.262  0.00  0.00    +0.076 C 
ENDBRANCH   6  22
BRANCH   6  24
ATOM     24  O   UNL     1      37.493 -25.716 -15.698  0.00  0.00    -0.449 OA
BRANCH  24  26
ATOM     25  O   UNL     1      36.480 -27.547 -16.677  0.00  0.00    -0.250 OA
ATOM     26  C   UNL     1      37.006 -26.992 -15.721  0.00  0.00    +0.318 C 
ATOM     27  C   UNL     1      37.207 -27.636 -14.383  0.00  0.00    +0.121 C 
ENDBRANCH  24  26
ENDBRANCH   6  24
TORSDOF 3
ENDMDL
MODEL 5
REMARK VINA RESULT:      -5.2      6.012      8.099
REMARK  Name = 9820838
REMARK  3 active torsions:
REMARK  status: ('A' for Active; 'I' for Inactive)
REMARK    1  A    between atoms: C_6  and  C_22
REMARK    2  A    between atoms: C_6  and  O_24
REMARK    3  A    between atoms: O_24  and  C_26
REMARK                            x       y       z     vdW  Elec       q    Type
REMARK                         _______ _______ _______ _____ _____    ______ ____
ROOT
ATOM      1  O   UNL     1      40.393 -26.427 -14.614  0.00  0.00    -0.291 OA
ATOM      2  C   UNL     1      32.453 -23.424 -14.464  0.00  0.00    +0.040 C 
ATOM      3  C   UNL     1      33.441 -23.445 -15.651  0.00  0.00    +0.004 C 
ATOM      4  C   UNL     1      34.904 -23.250 -15.232  0.00  0.00    +0.001 C 
ATOM      5  C   UNL     1      35.309 -24.429 -14.293  0.00  0.00    +0.004 C 
ATOM      6  C   UNL     1      31.121 -23.607 -15.245  0.00  0.00    +0.186 C 
ATOM      7  C   UNL     1      32.843 -24.568 -13.508  0.00  0.00    +0.004 C 
ATOM      8  C   UNL     1      34.335 -24.579 -13.076  0.00  0.00    +0.000 C 
ATOM      9  C   UNL     1      32.813 -22.477 -16.649  0.00  0.00    +0.004 C 
ATOM     10  C   UNL     1      31.296 -22.723 -16.503  0.00  0.00    +0.047 C 
ATOM     11  C   UNL     1      36.822 -24.382 -13.899  0.00  0.00    +0.019 C 
ATOM     12  C   UNL     1      35.826 -23.200 -16.458  0.00  0.00    +0.004 C 
ATOM     13  C   UNL     1      32.418 -22.065 -13.713  0.00  0.00    +0.004 C 
ATOM     14  C   UNL     1      37.281 -23.040 -16.042  0.00  0.00    +0.022 C 
ATOM     15  C   UNL     1      37.716 -24.138 -15.106  0.00  0.00    -0.042 C 
ATOM     16  C   UNL     1      34.620 -23.603 -11.929  0.00  0.00    +0.000 C 
ATOM     17  C   UNL     1      37.217 -25.682 -13.164  0.00  0.00    +0.012 C 
ATOM     18  C   UNL     1      38.720 -25.828 -13.005  0.00  0.00    +0.069 C 
ATOM     19  C   UNL     1      38.859 -24.803 -15.344  0.00  0.00    +0.029 C 
ATOM     20  C   UNL     1      39.390 -25.767 -14.353  0.00  0.00    +0.173 C 
ENDROOT
BRANCH   6  22
ATOM     21  O   UNL     1      29.686 -23.746 -13.343  0.00  0.00    -0.292 OA
ATOM     22  C   UNL     1      29.886 -23.278 -14.463  0.00  0.00    +0.187 C 
ATOM     23  C   UNL     1      28.901 -22.344 -15.116  0.00  0.00    +0.076 C 
ENDBRANCH   6  22
BRANCH   6  24
ATOM     24  O   UNL     1      30.934 -24.963 -15.643  0.00  0.00    -0.449 OA
BRANCH  24  26
ATOM     25  O   UNL     1      29.085 -24.969 -17.026  0.00  0.00    -0.250 OA
ATOM     26  C   UNL     1      29.661 -25.305 -16.000  0.00  0.00    +0.318 C 
ATOM     27  C   UNL     1      29.052 -26.170 -14.940  0.00  0.00    +0.121 C 
ENDBRANCH  24  26
ENDBRANCH   6  24
TORSDOF 3
ENDMDL
MODEL 6
REMARK VINA RESULT:      -5.1      5.560      8.895
REMARK  Name = 9820838
REMARK  3 active torsions:
REMARK  status: ('A' for Active; 'I' for Inactive)
REMARK    1  A    between atoms: C_6  and  C_22
REMARK    2  A    between atoms: C_6  and  O_24
REMARK    3  A    between atoms: O_24  and  C_26
REMARK                            x       y       z     vdW  Elec       q    Type
REMARK                         _______ _______ _______ _____ _____    ______ ____
ROOT
ATOM      1  O   UNL     1      27.854 -21.660 -16.140  0.00  0.00    -0.291 OA
ATOM      2  C   UNL     1      35.667 -24.387 -14.243  0.00  0.00    +0.040 C 
ATOM      3  C   UNL     1      35.258 -23.313 -15.275  0.00  0.00    +0.004 C 
ATOM      4  C   UNL     1      33.919 -23.607 -15.964  0.00  0.00    +0.001 C 
ATOM      5  C   UNL     1      32.799 -23.631 -14.877  0.00  0.00    +0.004 C 
ATOM      6  C   UNL     1      37.033 -23.794 -13.795  0.00  0.00    +0.186 C 
ATOM      7  C   UNL     1      34.567 -24.447 -13.165  0.00  0.00    +0.004 C 
ATOM      8  C   UNL     1      33.125 -24.628 -13.713  0.00  0.00    +0.000 C 
ATOM      9  C   UNL     1      36.515 -23.142 -16.122  0.00  0.00    +0.004 C 
ATOM     10  C   UNL     1      37.670 -23.279 -15.108  0.00  0.00    +0.047 C 
ATOM     11  C   UNL     1      31.374 -23.813 -15.494  0.00  0.00    +0.019 C 
ATOM     12  C   UNL     1      33.606 -22.550 -17.031  0.00  0.00    +0.004 C 
ATOM     13  C   UNL     1      35.903 -25.788 -14.869  0.00  0.00    +0.004 C 
ATOM     14  C   UNL     1      32.262 -22.821 -17.693  0.00  0.00    +0.022 C 
ATOM     15  C   UNL     1      31.147 -22.887 -16.681  0.00  0.00    -0.042 C 
ATOM     16  C   UNL     1      32.802 -26.090 -14.040  0.00  0.00    +0.000 C 
ATOM     17  C   UNL     1      30.297 -23.604 -14.408  0.00  0.00    +0.012 C 
ATOM     18  C   UNL     1      28.899 -23.484 -14.989  0.00  0.00    +0.069 C 
ATOM     19  C   UNL     1      30.021 -22.185 -16.884  0.00  0.00    +0.029 C 
ATOM     20  C   UNL     1      28.851 -22.363 -15.994  0.00  0.00    +0.173 C 
ENDROOT
BRANCH   6  22
ATOM     21  O   UNL     1      37.529 -25.331 -12.037  0.00  0.00    -0.292 OA
ATOM     22  C   UNL     1      37.916 -24.749 -13.049  0.00  0.00    +0.187 C 
ATOM     23  C   UNL     1      39.300 -24.963 -13.602  0.00  0.00    +0.076 C 
ENDBRANCH   6  22
BRANCH   6  24
ATOM     24  O   UNL     1      36.857 -22.704 -12.896  0.00  0.00    -0.449 OA
BRANCH  24  26
ATOM     25  O   UNL     1      38.796 -22.584 -11.646  0.00  0.00    -0.250 OA
ATOM     26  C   UNL     1      37.589 -22.761 -11.744  0.00  0.00    +0.318 C 
ATOM     27  C   UNL     1      36.691 -23.078 -10.587  0.00  0.00    +0.121 C 
ENDBRANCH  24  26
ENDBRANCH   6  24
TORSDOF 3
ENDMDL
MODEL 7
REMARK VINA RESULT:      -4.8      3.064      8.465
REMARK  Name = 9820838
REMARK  3 active torsions:
REMARK  status: ('A' for Active; 'I' for Inactive)
REMARK    1  A    between atoms: C_6  and  C_22
REMARK    2  A    between atoms: C_6  and  O_24
REMARK    3  A    between atoms: O_24  and  C_26
REMARK                            x       y       z     vdW  Elec       q    Type
REMARK                         _______ _______ _______ _____ _____    ______ ____
ROOT
ATOM      1  O   UNL     1      33.995 -10.373 -24.744  0.00  0.00    -0.291 OA
ATOM      2  C   UNL     1      34.034 -18.191 -21.435  0.00  0.00    +0.040 C 
ATOM      3  C   UNL     1      34.581 -17.734 -22.805  0.00  0.00    +0.004 C 
ATOM      4  C   UNL     1      33.760 -16.606 -23.445  0.00  0.00    +0.001 C 
ATOM      5  C   UNL     1      33.816 -15.362 -22.505  0.00  0.00    +0.004 C 
ATOM      6  C   UNL     1      35.055 -19.321 -21.123  0.00  0.00    +0.186 C 
ATOM      7  C   UNL     1      34.059 -16.974 -20.489  0.00  0.00    +0.004 C 
ATOM      8  C   UNL     1      33.362 -15.702 -21.045  0.00  0.00    +0.000 C 
ATOM      9  C   UNL     1      34.770 -19.045 -23.562  0.00  0.00    +0.004 C 
ATOM     10  C   UNL     1      35.257 -20.034 -22.481  0.00  0.00    +0.047 C 
ATOM     11  C   UNL     1      33.100 -14.116 -23.123  0.00  0.00    +0.019 C 
ATOM     12  C   UNL     1      34.304 -16.252 -24.835  0.00  0.00    +0.004 C 
ATOM     13  C   UNL     1      32.608 -18.802 -21.510  0.00  0.00    +0.004 C 
ATOM     14  C   UNL     1      33.512 -15.111 -25.457  0.00  0.00    +0.022 C 
ATOM     15  C   UNL     1      33.506 -13.891 -24.573  0.00  0.00    -0.042 C 
ATOM     16  C   UNL     1      31.841 -15.739 -20.860  0.00  0.00    +0.000 C 
ATOM     17  C   UNL     1      33.379 -12.865 -22.263  0.00  0.00    +0.012 C 
ATOM     18  C   UNL     1      32.957 -11.579 -22.951  0.00  0.00    +0.069 C 
ATOM     19  C   UNL     1      33.805 -12.689 -25.093  0.00  0.00    +0.029 C 
ATOM     20  C   UNL     1      33.644 -11.458 -24.286  0.00  0.00    +0.173 C 
ENDROOT
BRANCH   6  22
ATOM     21  O   UNL     1      35.417 -20.583 -19.129  0.00  0.00    -0.292 OA
ATOM     22  C   UNL     1      34.641 -20.255 -20.026  0.00  0.00    +0.187 C 
ATOM     23  C   UNL     1      33.227 -20.770 -20.075  0.00  0.00    +0.076 C 
ENDBRANCH   6  22
BRANCH   6  24
ATOM     24  O   UNL     1      36.300 -18.789 -20.679  0.00  0.00    -0.449 OA
BRANCH  24  26
ATOM     25  O   UNL     1      37.779 -20.563 -20.650  0.00  0.00    -0.250 OA
ATOM     26  C   UNL     1      37.413 -19.475 -21.075  0.00  0.00    +0.318 C 
ATOM     27  C   UNL     1      38.144 -18.696 -22.125  0.00  0.00    +0.121 C 
ENDBRANCH  24  26
ENDBRANCH   6  24
TORSDOF 3
ENDMDL
MODEL 8
REMARK VINA RESULT:      -4.7      5.750      9.131
REMARK  Name = 9820838
REMARK  3 active torsions:
REMARK  status: ('A' for Active; 'I' for Inactive)
REMARK    1  A    between atoms: C_6  and  C_22
REMARK    2  A    between atoms: C_6  and  O_24
REMARK    3  A    between atoms: O_24  and  C_26
REMARK                            x       y       z     vdW  Elec       q    Type
REMARK                         _______ _______ _______ _____ _____    ______ ____
ROOT
ATOM      1  O   UNL     1      29.380 -23.564 -16.739  0.00  0.00    -0.291 OA
ATOM      2  C   UNL     1      37.455 -24.267 -14.212  0.00  0.00    +0.040 C 
ATOM      3  C   UNL     1      36.190 -24.831 -13.528  0.00  0.00    +0.004 C 
ATOM      4  C   UNL     1      34.959 -23.928 -13.682  0.00  0.00    +0.001 C 
ATOM      5  C   UNL     1      34.626 -23.804 -15.201  0.00  0.00    +0.004 C 
ATOM      6  C   UNL     1      38.465 -25.386 -13.830  0.00  0.00    +0.186 C 
ATOM      7  C   UNL     1      37.148 -24.115 -15.715  0.00  0.00    +0.004 C 
ATOM      8  C   UNL     1      35.856 -23.316 -16.039  0.00  0.00    +0.000 C 
ATOM      9  C   UNL     1      36.681 -25.197 -12.130  0.00  0.00    +0.004 C 
ATOM     10  C   UNL     1      38.110 -25.731 -12.364  0.00  0.00    +0.047 C 
ATOM     11  C   UNL     1      33.314 -22.992 -15.458  0.00  0.00    +0.019 C 
ATOM     12  C   UNL     1      33.759 -24.501 -12.915  0.00  0.00    +0.004 C 
ATOM     13  C   UNL     1      37.938 -22.921 -13.608  0.00  0.00    +0.004 C 
ATOM     14  C   UNL     1      32.527 -23.624 -13.095  0.00  0.00    +0.022 C 
ATOM     15  C   UNL     1      32.179 -23.444 -14.550  0.00  0.00    -0.042 C 
ATOM     16  C   UNL     1      36.077 -21.799 -15.991  0.00  0.00    +0.000 C 
ATOM     17  C   UNL     1      32.913 -23.092 -16.946  0.00  0.00    +0.012 C 
ATOM     18  C   UNL     1      31.511 -22.571 -17.209  0.00  0.00    +0.069 C 
ATOM     19  C   UNL     1      30.917 -23.639 -14.963  0.00  0.00    +0.029 C 
ATOM     20  C   UNL     1      30.517 -23.308 -16.350  0.00  0.00    +0.173 C 
ENDROOT
BRANCH   6  22
ATOM     21  O   UNL     1      40.551 -24.465 -13.125  0.00  0.00    -0.292 OA
ATOM     22  C   UNL     1      39.906 -25.019 -14.015  0.00  0.00    +0.187 C 
ATOM     23  C   UNL     1      40.527 -25.363 -15.342  0.00  0.00    +0.076 C 
ENDBRANCH   6  22
BRANCH   6  24
ATOM     24  O   UNL     1      38.291 -26.543 -14.643  0.00  0.00    -0.449 OA
BRANCH  24  26
ATOM     25  O   UNL     1      36.852 -27.841 -13.386  0.00  0.00    -0.250 OA
ATOM     26  C   UNL     1      37.148 -27.258 -14.420  0.00  0.00    +0.318 C 
ATOM     27  C   UNL     1      36.285 -27.229 -15.644  0.00  0.00    +0.121 C 
ENDBRANCH  24  26
ENDBRANCH   6  24
TORSDOF 3
ENDMDL
MODEL 9
REMARK VINA RESULT:      -4.5      8.686     13.221
REMARK  Name = 9820838
REMARK  3 active torsions:
REMARK  status: ('A' for Active; 'I' for Inactive)
REMARK    1  A    between atoms: C_6  and  C_22
REMARK    2  A    between atoms: C_6  and  O_24
REMARK    3  A    between atoms: O_24  and  C_26
REMARK                            x       y       z     vdW  Elec       q    Type
REMARK                         _______ _______ _______ _____ _____    ______ ____
ROOT
ATOM      1  O   UNL     1      33.132 -15.226 -25.320  0.00  0.00    -0.291 OA
ATOM      2  C   UNL     1      32.388  -7.119 -22.913  0.00  0.00    +0.040 C 
ATOM      3  C   UNL     1      33.252  -7.698 -24.055  0.00  0.00    +0.004 C 
ATOM      4  C   UNL     1      33.818  -9.090 -23.746  0.00  0.00    +0.001 C 
ATOM      5  C   UNL     1      32.624 -10.075 -23.547  0.00  0.00    +0.004 C 
ATOM      6  C   UNL     1      32.032  -5.742 -23.544  0.00  0.00    +0.186 C 
ATOM      7  C   UNL     1      31.209  -8.084 -22.681  0.00  0.00    +0.004 C 
ATOM      8  C   UNL     1      31.612  -9.568 -22.465  0.00  0.00    +0.000 C 
ATOM      9  C   UNL     1      34.209  -6.556 -24.384  0.00  0.00    +0.004 C 
ATOM     10  C   UNL     1      33.346  -5.287 -24.222  0.00  0.00    +0.047 C 
ATOM     11  C   UNL     1      33.099 -11.551 -23.337  0.00  0.00    +0.019 C 
ATOM     12  C   UNL     1      34.731  -9.576 -24.880  0.00  0.00    +0.004 C 
ATOM     13  C   UNL     1      33.177  -6.885 -21.596  0.00  0.00    +0.004 C 
ATOM     14  C   UNL     1      35.266 -10.971 -24.590  0.00  0.00    +0.022 C 
ATOM     15  C   UNL     1      34.152 -11.958 -24.358  0.00  0.00    -0.042 C 
ATOM     16  C   UNL     1      32.051  -9.852 -21.023  0.00  0.00    +0.000 C 
ATOM     17  C   UNL     1      31.885 -12.506 -23.373  0.00  0.00    +0.012 C 
ATOM     18  C   UNL     1      32.295 -13.965 -23.461  0.00  0.00    +0.069 C 
ATOM     19  C   UNL     1      34.158 -13.135 -25.004  0.00  0.00    +0.029 C 
ATOM     20  C   UNL     1      33.168 -14.185 -24.669  0.00  0.00    +0.173 C 
ENDROOT
BRANCH   6  22
ATOM     21  O   UNL     1      31.971  -3.604 -22.484  0.00  0.00    -0.292 OA
ATOM     22  C   UNL     1      31.489  -4.733 -22.578  0.00  0.00    +0.187 C 
ATOM     23  C   UNL     1      30.324  -5.167 -21.730  0.00  0.00    +0.076 C 
ENDBRANCH   6  22
BRANCH   6  24
ATOM     24  O   UNL     1      31.011  -5.870 -24.529  0.00  0.00    -0.449 OA
BRANCH  24  26
ATOM     25  O   UNL     1      29.961  -3.914 -25.167  0.00  0.00    -0.250 OA
ATOM     26  C   UNL     1      30.815  -4.777 -25.325  0.00  0.00    +0.318 C 
ATOM     27  C   UNL     1      31.812  -4.777 -26.443  0.00  0.00    +0.121 C 
ENDBRANCH  24  26
ENDBRANCH   6  24
TORSDOF 3
ENDMDL
