MODEL 1
REMARK VINA RESULT:     -11.0      0.000      0.000
REMARK  Name = 52938427
REMARK  9 active torsions:
REMARK  status: ('A' for Active; 'I' for Inactive)
REMARK    1  A    between atoms: C_4  and  C_11
REMARK    2  A    between atoms: C_5  and  C_22
REMARK    3  A    between atoms: C_6  and  N_15
REMARK    4  A    between atoms: N_15  and  C_18
REMARK    5  A    between atoms: C_18  and  C_19
REMARK    6  A    between atoms: C_19  and  O_20
REMARK    7  A    between atoms: C_25  and  O_30
REMARK    8  A    between atoms: C_26  and  C_29
REMARK    9  A    between atoms: O_30  and  C_31
REMARK                            x       y       z     vdW  Elec       q    Type
REMARK                         _______ _______ _______ _____ _____    ______ ____
ROOT
ATOM      1  O   UNL     1      36.750 -19.929 -20.244  0.00  0.00    -0.311 OA
ATOM      2  N   UNL     1      34.663 -19.835 -21.052  0.00  0.00    -0.309 NA
ATOM      3  N   UNL     1      36.786 -19.024 -21.312  0.00  0.00    -0.007 NA
ATOM      4  C   UNL     1      35.519 -19.022 -21.736  0.00  0.00    +0.127 C 
ATOM      5  C   UNL     1      35.464 -20.359 -20.159  0.00  0.00    +0.317 C 
ENDROOT
BRANCH   4  11
ATOM      6  C   UNL     1      34.179 -14.668 -23.373  0.00  0.00    -0.038 C 
ATOM      7  C   UNL     1      34.042 -14.828 -21.845  0.00  0.00    -0.012 C 
ATOM      8  C   UNL     1      34.904 -16.039 -21.461  0.00  0.00    +0.025 C 
ATOM      9  C   UNL     1      34.366 -16.100 -23.789  0.00  0.00    -0.045 C 
ATOM     10  C   UNL     1      34.784 -16.875 -22.698  0.00  0.00    -0.018 C 
ATOM     11  C   UNL     1      35.075 -18.221 -22.842  0.00  0.00    +0.073 C 
ATOM     12  C   UNL     1      34.240 -16.664 -25.050  0.00  0.00    -0.007 C 
ATOM     13  C   UNL     1      34.932 -18.798 -24.105  0.00  0.00    +0.011 C 
ATOM     14  C   UNL     1      34.517 -18.025 -25.201  0.00  0.00    +0.000 C 
BRANCH   6  15
ATOM     15  N   UNL     1      33.009 -14.016 -23.938  0.00  0.00    +0.389 N 
ATOM     16  H   UNL     1      32.444 -13.630 -23.181  0.00  0.00    -0.084 HD
ATOM     17  H   UNL     1      32.475 -14.706 -24.466  0.00  0.00    -0.084 HD
BRANCH  15  18
ATOM     18  C   UNL     1      33.396 -12.939 -24.841  0.00  0.00    -0.049 C 
BRANCH  18  19
ATOM     19  C   UNL     1      33.752 -11.685 -24.060  0.00  0.00    +0.114 C 
BRANCH  19  20
ATOM     20  O   UNL     1      34.866 -11.059 -24.681  0.00  0.00    -0.384 OA
ATOM     21  H   UNL     1      35.108 -10.261 -24.186  0.00  0.00    +0.210 HD
ENDBRANCH  19  20
ENDBRANCH  18  19
ENDBRANCH  15  18
ENDBRANCH   6  15
ENDBRANCH   4  11
BRANCH   5  22
ATOM     22  C   UNL     1      35.194 -21.307 -19.116  0.00  0.00    +0.070 C 
ATOM     23  C   UNL     1      36.161 -21.571 -18.146  0.00  0.00    +0.019 C 
ATOM     24  C   UNL     1      33.965 -21.966 -19.074  0.00  0.00    +0.009 C 
ATOM     25  C   UNL     1      34.669 -23.151 -17.089  0.00  0.00    +0.148 C 
ATOM     26  C   UNL     1      35.899 -22.492 -17.132  0.00  0.00    +0.102 C 
ATOM     27  C   UNL     1      33.703 -22.887 -18.060  0.00  0.00    +0.038 C 
BRANCH  26  29
ATOM     28  N   UNL     1      37.717 -22.958 -15.345  0.00  0.00    -0.191 NA
ATOM     29  C   UNL     1      36.902 -22.749 -16.145  0.00  0.00    +0.103 C 
ENDBRANCH  26  29
BRANCH  25  30
ATOM     30  O   UNL     1      34.386 -24.057 -16.110  0.00  0.00    -0.478 OA
BRANCH  30  31
ATOM     31  C   UNL     1      33.797 -23.552 -14.914  0.00  0.00    +0.166 C 
ATOM     32  C   UNL     1      32.295 -23.791 -14.956  0.00  0.00    +0.047 C 
ATOM     33  C   UNL     1      34.444 -24.225 -13.713  0.00  0.00    +0.047 C 
ENDBRANCH  30  31
ENDBRANCH  25  30
ENDBRANCH   5  22
TORSDOF 9
ENDMDL
MODEL 2
REMARK VINA RESULT:     -10.8      2.530     10.252
REMARK  Name = 52938427
REMARK  9 active torsions:
REMARK  status: ('A' for Active; 'I' for Inactive)
REMARK    1  A    between atoms: C_4  and  C_11
REMARK    2  A    between atoms: C_5  and  C_22
REMARK    3  A    between atoms: C_6  and  N_15
REMARK    4  A    between atoms: N_15  and  C_18
REMARK    5  A    between atoms: C_18  and  C_19
REMARK    6  A    between atoms: C_19  and  O_20
REMARK    7  A    between atoms: C_25  and  O_30
REMARK    8  A    between atoms: C_26  and  C_29
REMARK    9  A    between atoms: O_30  and  C_31
REMARK                            x       y       z     vdW  Elec       q    Type
REMARK                         _______ _______ _______ _____ _____    ______ ____
ROOT
ATOM      1  O   UNL     1      34.250 -16.717 -23.628  0.00  0.00    -0.311 OA
ATOM      2  N   UNL     1      34.460 -16.739 -21.398  0.00  0.00    -0.309 NA
ATOM      3  N   UNL     1      34.792 -17.966 -23.300  0.00  0.00    -0.007 NA
ATOM      4  C   UNL     1      34.885 -17.903 -21.968  0.00  0.00    +0.127 C 
ATOM      5  C   UNL     1      34.086 -16.057 -22.451  0.00  0.00    +0.317 C 
ENDROOT
BRANCH   4  11
ATOM      6  C   UNL     1      33.979 -21.909 -19.406  0.00  0.00    -0.038 C 
ATOM      7  C   UNL     1      32.759 -20.978 -19.558  0.00  0.00    -0.012 C 
ATOM      8  C   UNL     1      33.080 -20.037 -20.729  0.00  0.00    +0.025 C 
ATOM      9  C   UNL     1      35.086 -20.994 -19.851  0.00  0.00    -0.045 C 
ATOM     10  C   UNL     1      34.569 -19.935 -20.609  0.00  0.00    -0.018 C 
ATOM     11  C   UNL     1      35.401 -18.984 -21.177  0.00  0.00    +0.073 C 
ATOM     12  C   UNL     1      36.453 -21.125 -19.658  0.00  0.00    -0.007 C 
ATOM     13  C   UNL     1      36.777 -19.101 -20.971  0.00  0.00    +0.011 C 
ATOM     14  C   UNL     1      37.299 -20.163 -20.217  0.00  0.00    +0.000 C 
BRANCH   6  15
ATOM     15  N   UNL     1      34.100 -22.394 -18.041  0.00  0.00    +0.389 N 
ATOM     16  H   UNL     1      33.945 -21.619 -17.396  0.00  0.00    -0.084 HD
ATOM     17  H   UNL     1      35.035 -22.782 -17.915  0.00  0.00    -0.084 HD
BRANCH  15  18
ATOM     18  C   UNL     1      33.125 -23.442 -17.770  0.00  0.00    -0.049 C 
BRANCH  18  19
ATOM     19  C   UNL     1      32.284 -23.092 -16.553  0.00  0.00    +0.114 C 
BRANCH  19  20
ATOM     20  O   UNL     1      31.008 -22.647 -16.990  0.00  0.00    -0.384 OA
ATOM     21  H   UNL     1      30.427 -22.524 -16.223  0.00  0.00    +0.210 HD
ENDBRANCH  19  20
ENDBRANCH  18  19
ENDBRANCH  15  18
ENDBRANCH   6  15
ENDBRANCH   4  11
BRANCH   5  22
ATOM     22  C   UNL     1      33.534 -14.737 -22.552  0.00  0.00    +0.070 C 
ATOM     23  C   UNL     1      33.984 -13.866 -23.544  0.00  0.00    +0.019 C 
ATOM     24  C   UNL     1      32.549 -14.323 -21.656  0.00  0.00    +0.009 C 
ATOM     25  C   UNL     1      32.461 -12.168 -22.746  0.00  0.00    +0.148 C 
ATOM     26  C   UNL     1      33.448 -12.582 -23.642  0.00  0.00    +0.102 C 
ATOM     27  C   UNL     1      32.012 -13.039 -21.753  0.00  0.00    +0.038 C 
BRANCH  26  29
ATOM     28  N   UNL     1      34.307 -10.991 -25.499  0.00  0.00    -0.191 NA
ATOM     29  C   UNL     1      33.922 -11.704 -24.667  0.00  0.00    +0.103 C 
ENDBRANCH  26  29
BRANCH  25  30
ATOM     30  O   UNL     1      31.920 -10.919 -22.818  0.00  0.00    -0.478 OA
BRANCH  30  31
ATOM     31  C   UNL     1      32.546  -9.899 -22.044  0.00  0.00    +0.166 C 
ATOM     32  C   UNL     1      32.645  -8.629 -22.876  0.00  0.00    +0.047 C 
ATOM     33  C   UNL     1      31.748  -9.678 -20.767  0.00  0.00    +0.047 C 
ENDBRANCH  30  31
ENDBRANCH  25  30
ENDBRANCH   5  22
TORSDOF 9
ENDMDL
MODEL 3
REMARK VINA RESULT:     -10.5      1.894     10.291
REMARK  Name = 52938427
REMARK  9 active torsions:
REMARK  status: ('A' for Active; 'I' for Inactive)
REMARK    1  A    between atoms: C_4  and  C_11
REMARK    2  A    between atoms: C_5  and  C_22
REMARK    3  A    between atoms: C_6  and  N_15
REMARK    4  A    between atoms: N_15  and  C_18
REMARK    5  A    between atoms: C_18  and  C_19
REMARK    6  A    between atoms: C_19  and  O_20
REMARK    7  A    between atoms: C_25  and  O_30
REMARK    8  A    between atoms: C_26  and  C_29
REMARK    9  A    between atoms: O_30  and  C_31
REMARK                            x       y       z     vdW  Elec       q    Type
REMARK                         _______ _______ _______ _____ _____    ______ ____
ROOT
ATOM      1  O   UNL     1      36.395 -20.672 -21.021  0.00  0.00    -0.311 OA
ATOM      2  N   UNL     1      34.576 -20.266 -19.779  0.00  0.00    -0.309 NA
ATOM      3  N   UNL     1      36.347 -21.687 -20.058  0.00  0.00    -0.007 NA
ATOM      4  C   UNL     1      35.247 -21.380 -19.364  0.00  0.00    +0.127 C 
ATOM      5  C   UNL     1      35.317 -19.878 -20.786  0.00  0.00    +0.317 C 
ENDROOT
BRANCH   4  11
ATOM      6  C   UNL     1      36.179 -23.212 -14.982  0.00  0.00    -0.038 C 
ATOM      7  C   UNL     1      37.443 -22.852 -15.787  0.00  0.00    -0.012 C 
ATOM      8  C   UNL     1      36.985 -21.901 -16.903  0.00  0.00    +0.025 C 
ATOM      9  C   UNL     1      35.134 -23.156 -16.061  0.00  0.00    -0.045 C 
ATOM     10  C   UNL     1      35.596 -22.403 -17.149  0.00  0.00    -0.018 C 
ATOM     11  C   UNL     1      34.791 -22.162 -18.250  0.00  0.00    +0.073 C 
ATOM     12  C   UNL     1      33.847 -23.674 -16.054  0.00  0.00    -0.007 C 
ATOM     13  C   UNL     1      33.501 -22.697 -18.257  0.00  0.00    +0.011 C 
ATOM     14  C   UNL     1      33.034 -23.447 -17.167  0.00  0.00    +0.000 C 
BRANCH   6  15
ATOM     15  N   UNL     1      36.321 -24.508 -14.337  0.00  0.00    +0.389 N 
ATOM     16  H   UNL     1      35.415 -24.976 -14.324  0.00  0.00    -0.084 HD
ATOM     17  H   UNL     1      36.662 -24.363 -13.387  0.00  0.00    -0.084 HD
BRANCH  15  18
ATOM     18  C   UNL     1      37.279 -25.344 -15.049  0.00  0.00    -0.049 C 
BRANCH  18  19
ATOM     19  C   UNL     1      36.834 -26.798 -15.040  0.00  0.00    +0.114 C 
BRANCH  19  20
ATOM     20  O   UNL     1      36.832 -27.284 -16.375  0.00  0.00    -0.384 OA
ATOM     21  H   UNL     1      37.075 -28.223 -16.379  0.00  0.00    +0.210 HD
ENDBRANCH  19  20
ENDBRANCH  18  19
ENDBRANCH  15  18
ENDBRANCH   6  15
ENDBRANCH   4  11
BRANCH   5  22
ATOM     22  C   UNL     1      35.167 -18.758 -21.669  0.00  0.00    +0.070 C 
ATOM     23  C   UNL     1      34.941 -17.483 -21.149  0.00  0.00    +0.019 C 
ATOM     24  C   UNL     1      35.244 -18.944 -23.049  0.00  0.00    +0.009 C 
ATOM     25  C   UNL     1      34.874 -16.580 -23.388  0.00  0.00    +0.148 C 
ATOM     26  C   UNL     1      34.795 -16.394 -22.007  0.00  0.00    +0.102 C 
ATOM     27  C   UNL     1      35.098 -17.854 -23.908  0.00  0.00    +0.038 C 
BRANCH  26  29
ATOM     28  N   UNL     1      34.380 -14.040 -21.006  0.00  0.00    -0.191 NA
ATOM     29  C   UNL     1      34.566 -15.095 -21.454  0.00  0.00    +0.103 C 
ENDBRANCH  26  29
BRANCH  25  30
ATOM     30  O   UNL     1      34.734 -15.534 -24.251  0.00  0.00    -0.478 OA
BRANCH  30  31
ATOM     31  C   UNL     1      33.409 -15.211 -24.665  0.00  0.00    +0.166 C 
ATOM     32  C   UNL     1      33.144 -13.738 -24.391  0.00  0.00    +0.047 C 
ATOM     33  C   UNL     1      33.247 -15.551 -26.139  0.00  0.00    +0.047 C 
ENDBRANCH  30  31
ENDBRANCH  25  30
ENDBRANCH   5  22
TORSDOF 9
ENDMDL
MODEL 4
REMARK VINA RESULT:     -10.5      3.617      7.332
REMARK  Name = 52938427
REMARK  9 active torsions:
REMARK  status: ('A' for Active; 'I' for Inactive)
REMARK    1  A    between atoms: C_4  and  C_11
REMARK    2  A    between atoms: C_5  and  C_22
REMARK    3  A    between atoms: C_6  and  N_15
REMARK    4  A    between atoms: N_15  and  C_18
REMARK    5  A    between atoms: C_18  and  C_19
REMARK    6  A    between atoms: C_19  and  O_20
REMARK    7  A    between atoms: C_25  and  O_30
REMARK    8  A    between atoms: C_26  and  C_29
REMARK    9  A    between atoms: O_30  and  C_31
REMARK                            x       y       z     vdW  Elec       q    Type
REMARK                         _______ _______ _______ _____ _____    ______ ____
ROOT
ATOM      1  O   UNL     1      33.449 -14.705 -24.874  0.00  0.00    -0.311 OA
ATOM      2  N   UNL     1      34.319 -13.544 -23.167  0.00  0.00    -0.309 NA
ATOM      3  N   UNL     1      33.271 -13.353 -25.192  0.00  0.00    -0.007 NA
ATOM      4  C   UNL     1      33.810 -12.732 -24.138  0.00  0.00    +0.127 C 
ATOM      5  C   UNL     1      34.073 -14.729 -23.666  0.00  0.00    +0.317 C 
ENDROOT
BRANCH   4  11
ATOM      6  C   UNL     1      31.964  -8.715 -22.166  0.00  0.00    -0.038 C 
ATOM      7  C   UNL     1      30.994  -9.913 -22.161  0.00  0.00    -0.012 C 
ATOM      8  C   UNL     1      31.855 -11.165 -22.385  0.00  0.00    +0.025 C 
ATOM      9  C   UNL     1      33.014  -9.209 -23.121  0.00  0.00    -0.045 C 
ATOM     10  C   UNL     1      32.951 -10.604 -23.237  0.00  0.00    -0.018 C 
ATOM     11  C   UNL     1      33.854 -11.302 -24.023  0.00  0.00    +0.073 C 
ATOM     12  C   UNL     1      33.994  -8.487 -23.787  0.00  0.00    -0.007 C 
ATOM     13  C   UNL     1      34.831 -10.578 -24.710  0.00  0.00    +0.011 C 
ATOM     14  C   UNL     1      34.900  -9.181 -24.592  0.00  0.00    +0.000 C 
BRANCH   6  15
ATOM     15  N   UNL     1      31.288  -7.496 -22.578  0.00  0.00    +0.389 N 
ATOM     16  H   UNL     1      30.281  -7.624 -22.482  0.00  0.00    -0.084 HD
ATOM     17  H   UNL     1      31.533  -7.300 -23.548  0.00  0.00    -0.084 HD
BRANCH  15  18
ATOM     18  C   UNL     1      31.704  -6.365 -21.758  0.00  0.00    -0.049 C 
BRANCH  18  19
ATOM     19  C   UNL     1      31.492  -5.056 -22.502  0.00  0.00    +0.114 C 
BRANCH  19  20
ATOM     20  O   UNL     1      30.358  -4.397 -21.956  0.00  0.00    -0.384 OA
ATOM     21  H   UNL     1      29.638  -5.036 -21.837  0.00  0.00    +0.210 HD
ENDBRANCH  19  20
ENDBRANCH  18  19
ENDBRANCH  15  18
ENDBRANCH   6  15
ENDBRANCH   4  11
BRANCH   5  22
ATOM     22  C   UNL     1      34.358 -16.033 -23.141  0.00  0.00    +0.070 C 
ATOM     23  C   UNL     1      34.477 -17.123 -24.003  0.00  0.00    +0.019 C 
ATOM     24  C   UNL     1      34.516 -16.211 -21.766  0.00  0.00    +0.009 C 
ATOM     25  C   UNL     1      34.913 -18.568 -22.117  0.00  0.00    +0.148 C 
ATOM     26  C   UNL     1      34.755 -18.390 -23.493  0.00  0.00    +0.102 C 
ATOM     27  C   UNL     1      34.793 -17.479 -21.255  0.00  0.00    +0.038 C 
BRANCH  26  29
ATOM     28  N   UNL     1      34.970 -20.392 -25.124  0.00  0.00    -0.191 NA
ATOM     29  C   UNL     1      34.874 -19.495 -24.393  0.00  0.00    +0.103 C 
ENDBRANCH  26  29
BRANCH  25  30
ATOM     30  O   UNL     1      35.184 -19.796 -21.591  0.00  0.00    -0.478 OA
BRANCH  30  31
ATOM     31  C   UNL     1      34.551 -20.123 -20.356  0.00  0.00    +0.166 C 
ATOM     32  C   UNL     1      33.077 -20.404 -20.609  0.00  0.00    +0.047 C 
ATOM     33  C   UNL     1      35.256 -21.319 -19.732  0.00  0.00    +0.047 C 
ENDBRANCH  30  31
ENDBRANCH  25  30
ENDBRANCH   5  22
TORSDOF 9
ENDMDL
MODEL 5
REMARK VINA RESULT:     -10.4      2.059      3.103
REMARK  Name = 52938427
REMARK  9 active torsions:
REMARK  status: ('A' for Active; 'I' for Inactive)
REMARK    1  A    between atoms: C_4  and  C_11
REMARK    2  A    between atoms: C_5  and  C_22
REMARK    3  A    between atoms: C_6  and  N_15
REMARK    4  A    between atoms: N_15  and  C_18
REMARK    5  A    between atoms: C_18  and  C_19
REMARK    6  A    between atoms: C_19  and  O_20
REMARK    7  A    between atoms: C_25  and  O_30
REMARK    8  A    between atoms: C_26  and  C_29
REMARK    9  A    between atoms: O_30  and  C_31
REMARK                            x       y       z     vdW  Elec       q    Type
REMARK                         _______ _______ _______ _____ _____    ______ ____
ROOT
ATOM      1  O   UNL     1      35.585 -19.340 -22.974  0.00  0.00    -0.311 OA
ATOM      2  N   UNL     1      34.376 -17.893 -21.764  0.00  0.00    -0.309 NA
ATOM      3  N   UNL     1      35.267 -18.283 -23.835  0.00  0.00    -0.007 NA
ATOM      4  C   UNL     1      34.554 -17.470 -23.049  0.00  0.00    +0.127 C 
ATOM      5  C   UNL     1      35.022 -19.031 -21.776  0.00  0.00    +0.317 C 
ENDROOT
BRANCH   4  11
ATOM      6  C   UNL     1      32.702 -13.133 -21.957  0.00  0.00    -0.038 C 
ATOM      7  C   UNL     1      32.608 -14.157 -20.808  0.00  0.00    -0.012 C 
ATOM      8  C   UNL     1      33.609 -15.273 -21.145  0.00  0.00    +0.025 C 
ATOM      9  C   UNL     1      33.043 -14.036 -23.110  0.00  0.00    -0.045 C 
ATOM     10  C   UNL     1      33.565 -15.250 -22.641  0.00  0.00    -0.018 C 
ATOM     11  C   UNL     1      34.003 -16.229 -23.516  0.00  0.00    +0.073 C 
ATOM     12  C   UNL     1      32.961 -13.779 -24.470  0.00  0.00    -0.007 C 
ATOM     13  C   UNL     1      33.906 -15.984 -24.888  0.00  0.00    +0.011 C 
ATOM     14  C   UNL     1      33.389 -14.768 -25.360  0.00  0.00    +0.000 C 
BRANCH   6  15
ATOM     15  N   UNL     1      31.456 -12.398 -22.106  0.00  0.00    +0.389 N 
ATOM     16  H   UNL     1      30.699 -12.937 -21.685  0.00  0.00    -0.084 HD
ATOM     17  H   UNL     1      31.281 -12.252 -23.100  0.00  0.00    -0.084 HD
BRANCH  15  18
ATOM     18  C   UNL     1      31.535 -11.097 -21.454  0.00  0.00    -0.049 C 
BRANCH  18  19
ATOM     19  C   UNL     1      31.482  -9.978 -22.480  0.00  0.00    +0.114 C 
BRANCH  19  20
ATOM     20  O   UNL     1      32.651 -10.038 -23.286  0.00  0.00    -0.384 OA
ATOM     21  H   UNL     1      33.026 -10.931 -23.246  0.00  0.00    +0.210 HD
ENDBRANCH  19  20
ENDBRANCH  18  19
ENDBRANCH  15  18
ENDBRANCH   6  15
ENDBRANCH   4  11
BRANCH   5  22
ATOM     22  C   UNL     1      35.226 -19.991 -20.729  0.00  0.00    +0.070 C 
ATOM     23  C   UNL     1      34.132 -20.630 -20.144  0.00  0.00    +0.019 C 
ATOM     24  C   UNL     1      36.519 -20.285 -20.296  0.00  0.00    +0.009 C 
ATOM     25  C   UNL     1      35.624 -21.858 -18.694  0.00  0.00    +0.148 C 
ATOM     26  C   UNL     1      34.330 -21.563 -19.127  0.00  0.00    +0.102 C 
ATOM     27  C   UNL     1      36.717 -21.219 -19.278  0.00  0.00    +0.038 C 
BRANCH  26  29
ATOM     28  N   UNL     1      32.275 -22.731 -18.064  0.00  0.00    -0.191 NA
ATOM     29  C   UNL     1      33.196 -22.207 -18.540  0.00  0.00    +0.103 C 
ENDBRANCH  26  29
BRANCH  25  30
ATOM     30  O   UNL     1      35.847 -22.765 -17.701  0.00  0.00    -0.478 OA
BRANCH  30  31
ATOM     31  C   UNL     1      36.204 -22.248 -16.421  0.00  0.00    +0.166 C 
ATOM     32  C   UNL     1      35.211 -22.750 -15.383  0.00  0.00    +0.047 C 
ATOM     33  C   UNL     1      37.629 -22.666 -16.092  0.00  0.00    +0.047 C 
ENDBRANCH  30  31
ENDBRANCH  25  30
ENDBRANCH   5  22
TORSDOF 9
ENDMDL
MODEL 6
REMARK VINA RESULT:     -10.4      2.750     10.220
REMARK  Name = 52938427
REMARK  9 active torsions:
REMARK  status: ('A' for Active; 'I' for Inactive)
REMARK    1  A    between atoms: C_4  and  C_11
REMARK    2  A    between atoms: C_5  and  C_22
REMARK    3  A    between atoms: C_6  and  N_15
REMARK    4  A    between atoms: N_15  and  C_18
REMARK    5  A    between atoms: C_18  and  C_19
REMARK    6  A    between atoms: C_19  and  O_20
REMARK    7  A    between atoms: C_25  and  O_30
REMARK    8  A    between atoms: C_26  and  C_29
REMARK    9  A    between atoms: O_30  and  C_31
REMARK                            x       y       z     vdW  Elec       q    Type
REMARK                         _______ _______ _______ _____ _____    ______ ____
ROOT
ATOM      1  O   UNL     1      33.938 -16.190 -23.614  0.00  0.00    -0.311 OA
ATOM      2  N   UNL     1      34.200 -16.370 -21.397  0.00  0.00    -0.309 NA
ATOM      3  N   UNL     1      34.535 -17.437 -23.392  0.00  0.00    -0.007 NA
ATOM      4  C   UNL     1      34.657 -17.471 -22.061  0.00  0.00    +0.127 C 
ATOM      5  C   UNL     1      33.776 -15.627 -22.387  0.00  0.00    +0.317 C 
ENDROOT
BRANCH   4  11
ATOM      6  C   UNL     1      33.956 -21.652 -19.726  0.00  0.00    -0.038 C 
ATOM      7  C   UNL     1      32.710 -20.745 -19.765  0.00  0.00    -0.012 C 
ATOM      8  C   UNL     1      32.957 -19.724 -20.886  0.00  0.00    +0.025 C 
ATOM      9  C   UNL     1      35.021 -20.684 -20.159  0.00  0.00    -0.045 C 
ATOM     10  C   UNL     1      34.447 -19.591 -20.824  0.00  0.00    -0.018 C 
ATOM     11  C   UNL     1      35.231 -18.586 -21.365  0.00  0.00    +0.073 C 
ATOM     12  C   UNL     1      36.398 -20.792 -20.033  0.00  0.00    -0.007 C 
ATOM     13  C   UNL     1      36.618 -18.680 -21.226  0.00  0.00    +0.011 C 
ATOM     14  C   UNL     1      37.196 -19.775 -20.565  0.00  0.00    +0.000 C 
BRANCH   6  15
ATOM     15  N   UNL     1      34.149 -22.220 -18.402  0.00  0.00    +0.389 N 
ATOM     16  H   UNL     1      34.522 -21.501 -17.782  0.00  0.00    -0.084 HD
ATOM     17  H   UNL     1      34.799 -23.003 -18.474  0.00  0.00    -0.084 HD
BRANCH  15  18
ATOM     18  C   UNL     1      32.891 -22.713 -17.856  0.00  0.00    -0.049 C 
BRANCH  18  19
ATOM     19  C   UNL     1      33.112 -23.371 -16.504  0.00  0.00    +0.114 C 
BRANCH  19  20
ATOM     20  O   UNL     1      34.453 -23.838 -16.436  0.00  0.00    -0.384 OA
ATOM     21  H   UNL     1      34.456 -24.790 -16.250  0.00  0.00    +0.210 HD
ENDBRANCH  19  20
ENDBRANCH  18  19
ENDBRANCH  15  18
ENDBRANCH   6  15
ENDBRANCH   4  11
BRANCH   5  22
ATOM     22  C   UNL     1      33.172 -14.326 -22.377  0.00  0.00    +0.070 C 
ATOM     23  C   UNL     1      32.750 -13.761 -21.173  0.00  0.00    +0.019 C 
ATOM     24  C   UNL     1      33.007 -13.625 -23.572  0.00  0.00    +0.009 C 
ATOM     25  C   UNL     1      31.999 -11.795 -22.358  0.00  0.00    +0.148 C 
ATOM     26  C   UNL     1      32.163 -12.496 -21.163  0.00  0.00    +0.102 C 
ATOM     27  C   UNL     1      32.420 -12.359 -23.562  0.00  0.00    +0.038 C 
BRANCH  26  29
ATOM     28  N   UNL     1      31.390 -11.478 -18.909  0.00  0.00    -0.191 NA
ATOM     29  C   UNL     1      31.737 -11.934 -19.919  0.00  0.00    +0.103 C 
ENDBRANCH  26  29
BRANCH  25  30
ATOM     30  O   UNL     1      31.428 -10.557 -22.378  0.00  0.00    -0.478 OA
BRANCH  30  31
ATOM     31  C   UNL     1      32.310  -9.440 -22.468  0.00  0.00    +0.166 C 
ATOM     32  C   UNL     1      31.941  -8.608 -23.687  0.00  0.00    +0.047 C 
ATOM     33  C   UNL     1      32.226  -8.630 -21.183  0.00  0.00    +0.047 C 
ENDBRANCH  30  31
ENDBRANCH  25  30
ENDBRANCH   5  22
TORSDOF 9
ENDMDL
MODEL 7
REMARK VINA RESULT:     -10.2      1.647      2.185
REMARK  Name = 52938427
REMARK  9 active torsions:
REMARK  status: ('A' for Active; 'I' for Inactive)
REMARK    1  A    between atoms: C_4  and  C_11
REMARK    2  A    between atoms: C_5  and  C_22
REMARK    3  A    between atoms: C_6  and  N_15
REMARK    4  A    between atoms: N_15  and  C_18
REMARK    5  A    between atoms: C_18  and  C_19
REMARK    6  A    between atoms: C_19  and  O_20
REMARK    7  A    between atoms: C_25  and  O_30
REMARK    8  A    between atoms: C_26  and  C_29
REMARK    9  A    between atoms: O_30  and  C_31
REMARK                            x       y       z     vdW  Elec       q    Type
REMARK                         _______ _______ _______ _____ _____    ______ ____
ROOT
ATOM      1  O   UNL     1      36.926 -19.803 -20.168  0.00  0.00    -0.311 OA
ATOM      2  N   UNL     1      34.856 -19.960 -21.009  0.00  0.00    -0.309 NA
ATOM      3  N   UNL     1      36.895 -18.960 -21.286  0.00  0.00    -0.007 NA
ATOM      4  C   UNL     1      35.642 -19.106 -21.727  0.00  0.00    +0.127 C 
ATOM      5  C   UNL     1      35.687 -20.353 -20.077  0.00  0.00    +0.317 C 
ENDROOT
BRANCH   4  11
ATOM      6  C   UNL     1      34.200 -14.932 -23.707  0.00  0.00    -0.038 C 
ATOM      7  C   UNL     1      34.131 -14.946 -22.167  0.00  0.00    -0.012 C 
ATOM      8  C   UNL     1      35.018 -16.113 -21.708  0.00  0.00    +0.025 C 
ATOM      9  C   UNL     1      34.379 -16.396 -23.994  0.00  0.00    -0.045 C 
ATOM     10  C   UNL     1      34.850 -17.062 -22.854  0.00  0.00    -0.018 C 
ATOM     11  C   UNL     1      35.144 -18.416 -22.882  0.00  0.00    +0.073 C 
ATOM     12  C   UNL     1      34.201 -17.077 -25.189  0.00  0.00    -0.007 C 
ATOM     13  C   UNL     1      34.950 -19.110 -24.078  0.00  0.00    +0.011 C 
ATOM     14  C   UNL     1      34.482 -18.445 -25.222  0.00  0.00    +0.000 C 
BRANCH   6  15
ATOM     15  N   UNL     1      33.001 -14.339 -24.279  0.00  0.00    +0.389 N 
ATOM     16  H   UNL     1      32.511 -13.814 -23.555  0.00  0.00    -0.084 HD
ATOM     17  H   UNL     1      32.409 -15.087 -24.640  0.00  0.00    -0.084 HD
BRANCH  15  18
ATOM     18  C   UNL     1      33.334 -13.442 -25.377  0.00  0.00    -0.049 C 
BRANCH  18  19
ATOM     19  C   UNL     1      33.014 -14.088 -26.715  0.00  0.00    +0.114 C 
BRANCH  19  20
ATOM     20  O   UNL     1      33.795 -13.463 -27.725  0.00  0.00    -0.384 OA
ATOM     21  H   UNL     1      33.831 -14.034 -28.507  0.00  0.00    +0.210 HD
ENDBRANCH  19  20
ENDBRANCH  18  19
ENDBRANCH  15  18
ENDBRANCH   6  15
ENDBRANCH   4  11
BRANCH   5  22
ATOM     22  C   UNL     1      35.490 -21.263 -18.985  0.00  0.00    +0.070 C 
ATOM     23  C   UNL     1      34.221 -21.783 -18.729  0.00  0.00    +0.019 C 
ATOM     24  C   UNL     1      36.569 -21.628 -18.180  0.00  0.00    +0.009 C 
ATOM     25  C   UNL     1      35.110 -23.034 -16.863  0.00  0.00    +0.148 C 
ATOM     26  C   UNL     1      34.030 -22.668 -17.668  0.00  0.00    +0.102 C 
ATOM     27  C   UNL     1      36.378 -22.514 -17.119  0.00  0.00    +0.038 C 
BRANCH  26  29
ATOM     28  N   UNL     1      31.660 -23.615 -17.221  0.00  0.00    -0.191 NA
ATOM     29  C   UNL     1      32.722 -23.190 -17.421  0.00  0.00    +0.103 C 
ENDBRANCH  26  29
BRANCH  25  30
ATOM     30  O   UNL     1      34.952 -23.896 -15.819  0.00  0.00    -0.478 OA
BRANCH  30  31
ATOM     31  C   UNL     1      36.088 -24.117 -14.986  0.00  0.00    +0.166 C 
ATOM     32  C   UNL     1      35.803 -23.571 -13.595  0.00  0.00    +0.047 C 
ATOM     33  C   UNL     1      36.407 -25.605 -14.957  0.00  0.00    +0.047 C 
ENDBRANCH  30  31
ENDBRANCH  25  30
ENDBRANCH   5  22
TORSDOF 9
ENDMDL
MODEL 8
REMARK VINA RESULT:     -10.2      1.835      2.636
REMARK  Name = 52938427
REMARK  9 active torsions:
REMARK  status: ('A' for Active; 'I' for Inactive)
REMARK    1  A    between atoms: C_4  and  C_11
REMARK    2  A    between atoms: C_5  and  C_22
REMARK    3  A    between atoms: C_6  and  N_15
REMARK    4  A    between atoms: N_15  and  C_18
REMARK    5  A    between atoms: C_18  and  C_19
REMARK    6  A    between atoms: C_19  and  O_20
REMARK    7  A    between atoms: C_25  and  O_30
REMARK    8  A    between atoms: C_26  and  C_29
REMARK    9  A    between atoms: O_30  and  C_31
REMARK                            x       y       z     vdW  Elec       q    Type
REMARK                         _______ _______ _______ _____ _____    ______ ____
ROOT
ATOM      1  O   UNL     1      33.496 -21.278 -19.473  0.00  0.00    -0.311 OA
ATOM      2  N   UNL     1      35.434 -20.378 -20.143  0.00  0.00    -0.309 NA
ATOM      3  N   UNL     1      33.205 -20.547 -20.630  0.00  0.00    -0.007 NA
ATOM      4  C   UNL     1      34.398 -20.046 -20.967  0.00  0.00    +0.127 C 
ATOM      5  C   UNL     1      34.829 -21.125 -19.256  0.00  0.00    +0.317 C 
ENDROOT
BRANCH   4  11
ATOM      6  C   UNL     1      34.925 -15.577 -22.750  0.00  0.00    -0.038 C 
ATOM      7  C   UNL     1      34.241 -15.619 -21.369  0.00  0.00    -0.012 C 
ATOM      8  C   UNL     1      34.560 -16.999 -20.774  0.00  0.00    +0.025 C 
ATOM      9  C   UNL     1      34.846 -17.025 -23.147  0.00  0.00    -0.045 C 
ATOM     10  C   UNL     1      34.644 -17.830 -22.017  0.00  0.00    -0.018 C 
ATOM     11  C   UNL     1      34.589 -19.210 -22.118  0.00  0.00    +0.073 C 
ATOM     12  C   UNL     1      35.006 -17.594 -24.401  0.00  0.00    -0.007 C 
ATOM     13  C   UNL     1      34.732 -19.787 -23.382  0.00  0.00    +0.011 C 
ATOM     14  C   UNL     1      34.938 -18.985 -24.514  0.00  0.00    +0.000 C 
BRANCH   6  15
ATOM     15  N   UNL     1      34.238 -14.660 -23.646  0.00  0.00    +0.389 N 
ATOM     16  H   UNL     1      33.932 -15.170 -24.475  0.00  0.00    -0.084 HD
ATOM     17  H   UNL     1      34.884 -13.914 -23.905  0.00  0.00    -0.084 HD
BRANCH  15  18
ATOM     18  C   UNL     1      33.078 -14.065 -22.997  0.00  0.00    -0.049 C 
BRANCH  18  19
ATOM     19  C   UNL     1      33.030 -12.567 -23.251  0.00  0.00    +0.114 C 
BRANCH  19  20
ATOM     20  O   UNL     1      34.194 -12.186 -23.971  0.00  0.00    -0.384 OA
ATOM     21  H   UNL     1      34.804 -11.719 -23.379  0.00  0.00    +0.210 HD
ENDBRANCH  19  20
ENDBRANCH  18  19
ENDBRANCH  15  18
ENDBRANCH   6  15
ENDBRANCH   4  11
BRANCH   5  22
ATOM     22  C   UNL     1      35.352 -21.801 -18.103  0.00  0.00    +0.070 C 
ATOM     23  C   UNL     1      34.497 -22.516 -17.265  0.00  0.00    +0.019 C 
ATOM     24  C   UNL     1      36.717 -21.741 -17.820  0.00  0.00    +0.009 C 
ATOM     25  C   UNL     1      36.370 -23.114 -15.862  0.00  0.00    +0.148 C 
ATOM     26  C   UNL     1      35.004 -23.173 -16.145  0.00  0.00    +0.102 C 
ATOM     27  C   UNL     1      37.225 -22.398 -16.699  0.00  0.00    +0.038 C 
BRANCH  26  29
ATOM     28  N   UNL     1      33.386 -24.494 -14.611  0.00  0.00    -0.191 NA
ATOM     29  C   UNL     1      34.112 -23.902 -15.298  0.00  0.00    +0.103 C 
ENDBRANCH  26  29
BRANCH  25  30
ATOM     30  O   UNL     1      36.894 -23.746 -14.773  0.00  0.00    -0.478 OA
BRANCH  30  31
ATOM     31  C   UNL     1      37.707 -24.891 -15.021  0.00  0.00    +0.166 C 
ATOM     32  C   UNL     1      38.812 -24.954 -13.977  0.00  0.00    +0.047 C 
ATOM     33  C   UNL     1      36.836 -26.138 -15.000  0.00  0.00    +0.047 C 
ENDBRANCH  30  31
ENDBRANCH  25  30
ENDBRANCH   5  22
TORSDOF 9
ENDMDL
MODEL 9
REMARK VINA RESULT:     -10.0      2.133     10.188
REMARK  Name = 52938427
REMARK  9 active torsions:
REMARK  status: ('A' for Active; 'I' for Inactive)
REMARK    1  A    between atoms: C_4  and  C_11
REMARK    2  A    between atoms: C_5  and  C_22
REMARK    3  A    between atoms: C_6  and  N_15
REMARK    4  A    between atoms: N_15  and  C_18
REMARK    5  A    between atoms: C_18  and  C_19
REMARK    6  A    between atoms: C_19  and  O_20
REMARK    7  A    between atoms: C_25  and  O_30
REMARK    8  A    between atoms: C_26  and  C_29
REMARK    9  A    between atoms: O_30  and  C_31
REMARK                            x       y       z     vdW  Elec       q    Type
REMARK                         _______ _______ _______ _____ _____    ______ ____
ROOT
ATOM      1  O   UNL     1      34.241 -17.776 -23.505  0.00  0.00    -0.311 OA
ATOM      2  N   UNL     1      34.695 -17.429 -21.340  0.00  0.00    -0.309 NA
ATOM      3  N   UNL     1      34.670 -19.007 -22.996  0.00  0.00    -0.007 NA
ATOM      4  C   UNL     1      34.919 -18.723 -21.714  0.00  0.00    +0.127 C 
ATOM      5  C   UNL     1      34.286 -16.902 -22.465  0.00  0.00    +0.317 C 
ENDROOT
BRANCH   4  11
ATOM      6  C   UNL     1      33.887 -22.437 -18.788  0.00  0.00    -0.038 C 
ATOM      7  C   UNL     1      32.672 -21.544 -19.110  0.00  0.00    -0.012 C 
ATOM      8  C   UNL     1      33.056 -20.732 -20.357  0.00  0.00    +0.025 C 
ATOM      9  C   UNL     1      35.013 -21.564 -19.265  0.00  0.00    -0.045 C 
ATOM     10  C   UNL     1      34.535 -20.598 -20.162  0.00  0.00    -0.018 C 
ATOM     11  C   UNL     1      35.393 -19.705 -20.782  0.00  0.00    +0.073 C 
ATOM     12  C   UNL     1      36.367 -21.656 -18.980  0.00  0.00    -0.007 C 
ATOM     13  C   UNL     1      36.756 -19.782 -20.485  0.00  0.00    +0.011 C 
ATOM     14  C   UNL     1      37.238 -20.750 -19.590  0.00  0.00    +0.000 C 
BRANCH   6  15
ATOM     15  N   UNL     1      33.930 -22.770 -17.373  0.00  0.00    +0.389 N 
ATOM     16  H   UNL     1      34.200 -21.942 -16.843  0.00  0.00    -0.084 HD
ATOM     17  H   UNL     1      34.609 -23.520 -17.235  0.00  0.00    -0.084 HD
BRANCH  15  18
ATOM     18  C   UNL     1      32.630 -23.232 -16.904  0.00  0.00    -0.049 C 
BRANCH  18  19
ATOM     19  C   UNL     1      32.680 -23.567 -15.423  0.00  0.00    +0.114 C 
BRANCH  19  20
ATOM     20  O   UNL     1      33.774 -22.876 -14.834  0.00  0.00    -0.384 OA
ATOM     21  H   UNL     1      34.372 -22.563 -15.530  0.00  0.00    +0.210 HD
ENDBRANCH  19  20
ENDBRANCH  18  19
ENDBRANCH  15  18
ENDBRANCH   6  15
ENDBRANCH   4  11
BRANCH   5  22
ATOM     22  C   UNL     1      33.881 -15.559 -22.765  0.00  0.00    +0.070 C 
ATOM     23  C   UNL     1      33.246 -14.787 -21.791  0.00  0.00    +0.019 C 
ATOM     24  C   UNL     1      34.120 -15.025 -24.031  0.00  0.00    +0.009 C 
ATOM     25  C   UNL     1      33.093 -12.947 -23.349  0.00  0.00    +0.148 C 
ATOM     26  C   UNL     1      32.853 -13.481 -22.083  0.00  0.00    +0.102 C 
ATOM     27  C   UNL     1      33.726 -13.719 -24.323  0.00  0.00    +0.038 C 
BRANCH  26  29
ATOM     28  N   UNL     1      31.679 -12.075 -20.249  0.00  0.00    -0.191 NA
ATOM     29  C   UNL     1      32.205 -12.705 -21.071  0.00  0.00    +0.103 C 
ENDBRANCH  26  29
BRANCH  25  30
ATOM     30  O   UNL     1      32.719 -11.674 -23.662  0.00  0.00    -0.478 OA
BRANCH  30  31
ATOM     31  C   UNL     1      33.725 -10.666 -23.580  0.00  0.00    +0.166 C 
ATOM     32  C   UNL     1      34.404 -10.527 -24.934  0.00  0.00    +0.047 C 
ATOM     33  C   UNL     1      33.089  -9.360 -23.128  0.00  0.00    +0.047 C 
ENDBRANCH  30  31
ENDBRANCH  25  30
ENDBRANCH   5  22
TORSDOF 9
ENDMDL
