MODEL 1
REMARK VINA RESULT:      -9.9      0.000      0.000
REMARK  Name = 24752844
REMARK  3 active torsions:
REMARK  status: ('A' for Active; 'I' for Inactive)
REMARK    1  A    between atoms: C_3  and  C_20
REMARK    2  A    between atoms: C_4  and  N_25
REMARK    3  A    between atoms: C_7  and  C_10
REMARK                            x       y       z     vdW  Elec       q    Type
REMARK                         _______ _______ _______ _____ _____    ______ ____
ROOT
ATOM      1  O   UNL     1      33.430 -13.068 -26.191  0.00  0.00    -0.267 OA
ATOM      2  N   UNL     1      33.521 -13.831 -23.999  0.00  0.00    -0.276 N 
ATOM      3  C   UNL     1      33.469 -15.982 -23.004  0.00  0.00    +0.078 C 
ATOM      4  C   UNL     1      33.088 -14.926 -21.956  0.00  0.00    -0.035 C 
ATOM      5  C   UNL     1      33.261 -15.231 -24.318  0.00  0.00    +0.101 C 
ATOM      6  C   UNL     1      33.632 -13.629 -22.554  0.00  0.00    +0.073 C 
ATOM      7  C   UNL     1      33.583 -12.861 -24.988  0.00  0.00    +0.276 C 
ENDROOT
BRANCH   7  10
ATOM      8  N   UNL     1      32.928 -10.914 -23.751  0.00  0.00    -0.402 NA
ATOM      9  N   UNL     1      35.177  -9.520 -24.599  0.00  0.00    -0.264 NA
ATOM     10  C   UNL     1      33.838 -11.474 -24.568  0.00  0.00    +0.186 C 
ATOM     11  C   UNL     1      34.946 -10.788 -24.985  0.00  0.00    +0.188 C 
ATOM     12  C   UNL     1      33.140  -9.647 -23.353  0.00  0.00    +0.126 C 
ATOM     13  C   UNL     1      34.280  -8.941 -23.782  0.00  0.00    +0.084 C 
ATOM     14  C   UNL     1      32.231  -9.015 -22.507  0.00  0.00    +0.086 C 
ATOM     15  C   UNL     1      34.468  -7.631 -23.350  0.00  0.00    +0.073 C 
ATOM     16  C   UNL     1      32.429  -7.703 -22.080  0.00  0.00    -0.023 C 
ATOM     17  C   UNL     1      33.552  -7.008 -22.504  0.00  0.00    -0.024 C 
ENDBRANCH   7  10
BRANCH   3  20
ATOM     18  O   UNL     1      35.807 -15.797 -23.422  0.00  0.00    -0.275 OA
ATOM     19  N   UNL     1      35.097 -17.614 -22.185  0.00  0.00    -0.280 N 
ATOM     20  C   UNL     1      34.900 -16.445 -22.895  0.00  0.00    +0.225 C 
ATOM     21  C   UNL     1      34.071 -18.424 -21.536  0.00  0.00    +0.093 C 
ATOM     22  C   UNL     1      36.418 -18.195 -21.996  0.00  0.00    +0.093 C 
ATOM     23  C   UNL     1      34.787 -19.713 -21.158  0.00  0.00    +0.023 C 
ATOM     24  C   UNL     1      36.218 -19.250 -20.918  0.00  0.00    +0.023 C 
ENDBRANCH   3  20
BRANCH   4  25
ATOM     25  N   UNL     1      33.560 -15.187 -20.607  0.00  0.00    +0.383 N 
ATOM     26  H   UNL     1      33.137 -16.047 -20.259  0.00  0.00    -0.089 HD
ATOM     27  H   UNL     1      33.301 -14.410 -20.000  0.00  0.00    -0.089 HD
ATOM     28  H   UNL     1      34.575 -15.286 -20.615  0.00  0.00    -0.089 HD
ENDBRANCH   4  25
TORSDOF 3
ENDMDL
MODEL 2
REMARK VINA RESULT:      -9.6      4.400     10.707
REMARK  Name = 24752844
REMARK  3 active torsions:
REMARK  status: ('A' for Active; 'I' for Inactive)
REMARK    1  A    between atoms: C_3  and  C_20
REMARK    2  A    between atoms: C_4  and  N_25
REMARK    3  A    between atoms: C_7  and  C_10
REMARK                            x       y       z     vdW  Elec       q    Type
REMARK                         _______ _______ _______ _____ _____    ______ ____
ROOT
ATOM      1  O   UNL     1      32.211 -21.167 -20.794  0.00  0.00    -0.267 OA
ATOM      2  N   UNL     1      34.356 -20.277 -20.861  0.00  0.00    -0.276 N 
ATOM      3  C   UNL     1      35.428 -18.673 -22.238  0.00  0.00    +0.078 C 
ATOM      4  C   UNL     1      36.488 -19.540 -21.546  0.00  0.00    -0.035 C 
ATOM      5  C   UNL     1      34.164 -19.520 -22.093  0.00  0.00    +0.101 C 
ATOM      6  C   UNL     1      35.728 -20.148 -20.368  0.00  0.00    +0.073 C 
ATOM      7  C   UNL     1      33.338 -21.045 -20.316  0.00  0.00    +0.276 C 
ENDROOT
BRANCH   7  10
ATOM      8  N   UNL     1      32.573 -22.133 -18.321  0.00  0.00    -0.402 NA
ATOM      9  N   UNL     1      35.174 -22.772 -17.577  0.00  0.00    -0.264 NA
ATOM     10  C   UNL     1      33.629 -21.782 -19.077  0.00  0.00    +0.186 C 
ATOM     11  C   UNL     1      34.910 -22.097 -18.711  0.00  0.00    +0.188 C 
ATOM     12  C   UNL     1      32.815 -22.809 -17.183  0.00  0.00    +0.126 C 
ATOM     13  C   UNL     1      34.132 -23.133 -16.807  0.00  0.00    +0.084 C 
ATOM     14  C   UNL     1      31.761 -23.199 -16.361  0.00  0.00    +0.086 C 
ATOM     15  C   UNL     1      34.345 -23.834 -15.622  0.00  0.00    +0.073 C 
ATOM     16  C   UNL     1      31.985 -23.900 -15.177  0.00  0.00    -0.023 C 
ATOM     17  C   UNL     1      33.283 -24.218 -14.807  0.00  0.00    -0.024 C 
ENDBRANCH   7  10
BRANCH   3  20
ATOM     18  O   UNL     1      35.493 -17.177 -20.386  0.00  0.00    -0.275 OA
ATOM     19  N   UNL     1      34.736 -16.331 -22.398  0.00  0.00    -0.280 N 
ATOM     20  C   UNL     1      35.228 -17.331 -21.579  0.00  0.00    +0.225 C 
ATOM     21  C   UNL     1      34.407 -16.447 -23.815  0.00  0.00    +0.093 C 
ATOM     22  C   UNL     1      34.482 -14.984 -21.911  0.00  0.00    +0.093 C 
ATOM     23  C   UNL     1      33.659 -15.161 -24.137  0.00  0.00    +0.023 C 
ATOM     24  C   UNL     1      34.275 -14.157 -23.171  0.00  0.00    +0.023 C 
ENDBRANCH   3  20
BRANCH   4  25
ATOM     25  N   UNL     1      37.705 -18.848 -21.157  0.00  0.00    +0.383 N 
ATOM     26  H   UNL     1      38.489 -19.499 -21.177  0.00  0.00    -0.089 HD
ATOM     27  H   UNL     1      37.597 -18.473 -20.214  0.00  0.00    -0.089 HD
ATOM     28  H   UNL     1      37.883 -18.082 -21.808  0.00  0.00    -0.089 HD
ENDBRANCH   4  25
TORSDOF 3
ENDMDL
MODEL 3
REMARK VINA RESULT:      -8.9      2.955      4.471
REMARK  Name = 24752844
REMARK  3 active torsions:
REMARK  status: ('A' for Active; 'I' for Inactive)
REMARK    1  A    between atoms: C_3  and  C_20
REMARK    2  A    between atoms: C_4  and  N_25
REMARK    3  A    between atoms: C_7  and  C_10
REMARK                            x       y       z     vdW  Elec       q    Type
REMARK                         _______ _______ _______ _____ _____    ______ ____
ROOT
ATOM      1  O   UNL     1      35.246 -15.329 -19.691  0.00  0.00    -0.267 OA
ATOM      2  N   UNL     1      34.835 -16.787 -21.453  0.00  0.00    -0.276 N 
ATOM      3  C   UNL     1      35.306 -19.079 -21.834  0.00  0.00    +0.078 C 
ATOM      4  C   UNL     1      35.045 -18.382 -23.177  0.00  0.00    -0.035 C 
ATOM      5  C   UNL     1      35.599 -17.902 -20.904  0.00  0.00    +0.101 C 
ATOM      6  C   UNL     1      34.293 -17.114 -22.772  0.00  0.00    +0.073 C 
ATOM      7  C   UNL     1      34.728 -15.580 -20.778  0.00  0.00    +0.276 C 
ENDROOT
BRANCH   7  10
ATOM      8  N   UNL     1      33.062 -13.861 -20.637  0.00  0.00    -0.402 NA
ATOM      9  N   UNL     1      33.393 -13.209 -23.318  0.00  0.00    -0.264 NA
ATOM     10  C   UNL     1      33.946 -14.510 -21.417  0.00  0.00    +0.186 C 
ATOM     11  C   UNL     1      34.109 -14.188 -22.737  0.00  0.00    +0.188 C 
ATOM     12  C   UNL     1      32.337 -12.877 -21.198  0.00  0.00    +0.126 C 
ATOM     13  C   UNL     1      32.504 -12.547 -22.556  0.00  0.00    +0.084 C 
ATOM     14  C   UNL     1      31.406 -12.171 -20.439  0.00  0.00    +0.086 C 
ATOM     15  C   UNL     1      31.735 -11.523 -23.104  0.00  0.00    +0.073 C 
ATOM     16  C   UNL     1      30.642 -11.148 -20.998  0.00  0.00    -0.023 C 
ATOM     17  C   UNL     1      30.807 -10.823 -22.336  0.00  0.00    -0.024 C 
ENDBRANCH   7  10
BRANCH   3  20
ATOM     18  O   UNL     1      32.992 -19.642 -21.772  0.00  0.00    -0.275 OA
ATOM     19  N   UNL     1      34.396 -20.790 -20.341  0.00  0.00    -0.280 N 
ATOM     20  C   UNL     1      34.119 -19.857 -21.323  0.00  0.00    +0.225 C 
ATOM     21  C   UNL     1      35.704 -21.094 -19.770  0.00  0.00    +0.093 C 
ATOM     22  C   UNL     1      33.359 -21.616 -19.741  0.00  0.00    +0.093 C 
ATOM     23  C   UNL     1      35.397 -21.971 -18.564  0.00  0.00    +0.023 C 
ATOM     24  C   UNL     1      34.122 -22.692 -18.981  0.00  0.00    +0.023 C 
ENDBRANCH   3  20
BRANCH   4  25
ATOM     25  N   UNL     1      34.346 -19.180 -24.170  0.00  0.00    +0.383 N 
ATOM     26  H   UNL     1      34.889 -20.017 -24.377  0.00  0.00    -0.089 HD
ATOM     27  H   UNL     1      34.225 -18.633 -25.022  0.00  0.00    -0.089 HD
ATOM     28  H   UNL     1      33.432 -19.449 -23.807  0.00  0.00    -0.089 HD
ENDBRANCH   4  25
TORSDOF 3
ENDMDL
MODEL 4
REMARK VINA RESULT:      -8.9      3.193      9.244
REMARK  Name = 24752844
REMARK  3 active torsions:
REMARK  status: ('A' for Active; 'I' for Inactive)
REMARK    1  A    between atoms: C_3  and  C_20
REMARK    2  A    between atoms: C_4  and  N_25
REMARK    3  A    between atoms: C_7  and  C_10
REMARK                            x       y       z     vdW  Elec       q    Type
REMARK                         _______ _______ _______ _____ _____    ______ ____
ROOT
ATOM      1  O   UNL     1      36.807 -18.743 -22.275  0.00  0.00    -0.267 OA
ATOM      2  N   UNL     1      35.027 -17.254 -22.172  0.00  0.00    -0.276 N 
ATOM      3  C   UNL     1      34.570 -15.164 -23.196  0.00  0.00    +0.078 C 
ATOM      4  C   UNL     1      33.691 -15.324 -21.948  0.00  0.00    -0.035 C 
ATOM      5  C   UNL     1      35.664 -16.205 -22.962  0.00  0.00    +0.101 C 
ATOM      6  C   UNL     1      33.708 -16.832 -21.698  0.00  0.00    +0.073 C 
ATOM      7  C   UNL     1      35.673 -18.450 -21.899  0.00  0.00    +0.276 C 
ENDROOT
BRANCH   7  10
ATOM      8  N   UNL     1      35.682 -20.124 -20.182  0.00  0.00    -0.402 NA
ATOM      9  N   UNL     1      32.956 -20.568 -20.490  0.00  0.00    -0.264 NA
ATOM     10  C   UNL     1      34.954 -19.442 -21.085  0.00  0.00    +0.186 C 
ATOM     11  C   UNL     1      33.611 -19.660 -21.236  0.00  0.00    +0.188 C 
ATOM     12  C   UNL     1      35.046 -21.036 -19.425  0.00  0.00    +0.126 C 
ATOM     13  C   UNL     1      33.665 -21.260 -19.580  0.00  0.00    +0.084 C 
ATOM     14  C   UNL     1      35.749 -21.772 -18.474  0.00  0.00    +0.086 C 
ATOM     15  C   UNL     1      33.040 -22.213 -18.780  0.00  0.00    +0.073 C 
ATOM     16  C   UNL     1      35.112 -22.722 -17.678  0.00  0.00    -0.023 C 
ATOM     17  C   UNL     1      33.752 -22.944 -17.832  0.00  0.00    -0.024 C 
ENDBRANCH   7  10
BRANCH   3  20
ATOM     18  O   UNL     1      33.542 -16.619 -24.776  0.00  0.00    -0.275 OA
ATOM     19  N   UNL     1      33.558 -14.364 -25.274  0.00  0.00    -0.280 N 
ATOM     20  C   UNL     1      33.843 -15.461 -24.483  0.00  0.00    +0.225 C 
ATOM     21  C   UNL     1      33.882 -12.971 -24.983  0.00  0.00    +0.093 C 
ATOM     22  C   UNL     1      32.867 -14.484 -26.549  0.00  0.00    +0.093 C 
ATOM     23  C   UNL     1      33.604 -12.236 -26.287  0.00  0.00    +0.023 C 
ATOM     24  C   UNL     1      32.481 -13.056 -26.909  0.00  0.00    +0.023 C 
ENDBRANCH   3  20
BRANCH   4  25
ATOM     25  N   UNL     1      32.352 -14.767 -22.051  0.00  0.00    +0.383 N 
ATOM     26  H   UNL     1      32.284 -14.200 -22.895  0.00  0.00    -0.089 HD
ATOM     27  H   UNL     1      32.161 -14.187 -21.234  0.00  0.00    -0.089 HD
ATOM     28  H   UNL     1      31.672 -15.526 -22.095  0.00  0.00    -0.089 HD
ENDBRANCH   4  25
TORSDOF 3
ENDMDL
MODEL 5
REMARK VINA RESULT:      -8.8      1.965      8.067
REMARK  Name = 24752844
REMARK  3 active torsions:
REMARK  status: ('A' for Active; 'I' for Inactive)
REMARK    1  A    between atoms: C_3  and  C_20
REMARK    2  A    between atoms: C_4  and  N_25
REMARK    3  A    between atoms: C_7  and  C_10
REMARK                            x       y       z     vdW  Elec       q    Type
REMARK                         _______ _______ _______ _____ _____    ______ ____
ROOT
ATOM      1  O   UNL     1      31.636 -13.387 -21.194  0.00  0.00    -0.267 OA
ATOM      2  N   UNL     1      32.866 -12.641 -23.017  0.00  0.00    -0.276 N 
ATOM      3  C   UNL     1      32.789 -10.692 -24.366  0.00  0.00    +0.078 C 
ATOM      4  C   UNL     1      33.530 -11.805 -25.120  0.00  0.00    -0.035 C 
ATOM      5  C   UNL     1      32.037 -11.471 -23.287  0.00  0.00    +0.101 C 
ATOM      6  C   UNL     1      33.936 -12.772 -24.007  0.00  0.00    +0.073 C 
ATOM      7  C   UNL     1      32.581 -13.507 -21.973  0.00  0.00    +0.276 C 
ENDROOT
BRANCH   7  10
ATOM      8  N   UNL     1      33.612 -15.490 -22.841  0.00  0.00    -0.402 NA
ATOM      9  N   UNL     1      34.923 -15.957 -20.435  0.00  0.00    -0.264 NA
ATOM     10  C   UNL     1      33.467 -14.666 -21.787  0.00  0.00    +0.186 C 
ATOM     11  C   UNL     1      34.113 -14.896 -20.603  0.00  0.00    +0.188 C 
ATOM     12  C   UNL     1      34.419 -16.556 -22.695  0.00  0.00    +0.126 C 
ATOM     13  C   UNL     1      35.083 -16.793 -21.477  0.00  0.00    +0.084 C 
ATOM     14  C   UNL     1      34.607 -17.443 -23.752  0.00  0.00    +0.086 C 
ATOM     15  C   UNL     1      35.910 -17.907 -21.362  0.00  0.00    +0.073 C 
ATOM     16  C   UNL     1      35.438 -18.556 -23.626  0.00  0.00    -0.023 C 
ATOM     17  C   UNL     1      36.091 -18.789 -22.425  0.00  0.00    -0.024 C 
ENDBRANCH   7  10
BRANCH   3  20
ATOM     18  O   UNL     1      34.928  -9.883 -23.701  0.00  0.00    -0.275 OA
ATOM     19  N   UNL     1      33.098  -8.569 -23.190  0.00  0.00    -0.280 N 
ATOM     20  C   UNL     1      33.712  -9.685 -23.726  0.00  0.00    +0.225 C 
ATOM     21  C   UNL     1      31.668  -8.275 -23.192  0.00  0.00    +0.093 C 
ATOM     22  C   UNL     1      33.849  -7.510 -22.533  0.00  0.00    +0.093 C 
ATOM     23  C   UNL     1      31.524  -7.092 -22.243  0.00  0.00    +0.023 C 
ATOM     24  C   UNL     1      32.854  -6.366 -22.397  0.00  0.00    +0.023 C 
ENDBRANCH   3  20
BRANCH   4  25
ATOM     25  N   UNL     1      34.644 -11.367 -25.945  0.00  0.00    +0.383 N 
ATOM     26  H   UNL     1      35.521 -11.645 -25.507  0.00  0.00    -0.089 HD
ATOM     27  H   UNL     1      34.617 -10.352 -26.041  0.00  0.00    -0.089 HD
ATOM     28  H   UNL     1      34.572 -11.797 -26.867  0.00  0.00    -0.089 HD
ENDBRANCH   4  25
TORSDOF 3
ENDMDL
MODEL 6
REMARK VINA RESULT:      -8.6      2.374      9.065
REMARK  Name = 24752844
REMARK  3 active torsions:
REMARK  status: ('A' for Active; 'I' for Inactive)
REMARK    1  A    between atoms: C_3  and  C_20
REMARK    2  A    between atoms: C_4  and  N_25
REMARK    3  A    between atoms: C_7  and  C_10
REMARK                            x       y       z     vdW  Elec       q    Type
REMARK                         _______ _______ _______ _____ _____    ______ ____
ROOT
ATOM      1  O   UNL     1      34.129 -18.735 -23.962  0.00  0.00    -0.267 OA
ATOM      2  N   UNL     1      34.388 -16.993 -22.447  0.00  0.00    -0.276 N 
ATOM      3  C   UNL     1      34.461 -14.633 -22.652  0.00  0.00    +0.078 C 
ATOM      4  C   UNL     1      35.108 -15.049 -21.324  0.00  0.00    -0.035 C 
ATOM      5  C   UNL     1      34.478 -15.936 -23.449  0.00  0.00    +0.101 C 
ATOM      6  C   UNL     1      34.562 -16.459 -21.096  0.00  0.00    +0.073 C 
ATOM      7  C   UNL     1      34.218 -18.321 -22.807  0.00  0.00    +0.276 C 
ENDROOT
BRANCH   7  10
ATOM      8  N   UNL     1      35.311 -19.641 -21.130  0.00  0.00    -0.402 NA
ATOM      9  N   UNL     1      32.905 -20.796 -20.356  0.00  0.00    -0.264 NA
ATOM     10  C   UNL     1      34.150 -19.317 -21.726  0.00  0.00    +0.186 C 
ATOM     11  C   UNL     1      32.965 -19.886 -21.345  0.00  0.00    +0.188 C 
ATOM     12  C   UNL     1      35.274 -20.548 -20.138  0.00  0.00    +0.126 C 
ATOM     13  C   UNL     1      34.056 -21.133 -19.746  0.00  0.00    +0.084 C 
ATOM     14  C   UNL     1      36.446 -20.922 -19.484  0.00  0.00    +0.086 C 
ATOM     15  C   UNL     1      34.055 -22.070 -18.715  0.00  0.00    +0.073 C 
ATOM     16  C   UNL     1      36.434 -21.860 -18.454  0.00  0.00    -0.023 C 
ATOM     17  C   UNL     1      35.233 -22.437 -18.068  0.00  0.00    -0.024 C 
ENDBRANCH   7  10
BRANCH   3  20
ATOM     18  O   UNL     1      32.152 -14.909 -22.139  0.00  0.00    -0.275 OA
ATOM     19  N   UNL     1      32.842 -12.804 -22.794  0.00  0.00    -0.280 N 
ATOM     20  C   UNL     1      33.044 -14.140 -22.500  0.00  0.00    +0.225 C 
ATOM     21  C   UNL     1      33.853 -11.842 -23.222  0.00  0.00    +0.093 C 
ATOM     22  C   UNL     1      31.532 -12.178 -22.703  0.00  0.00    +0.093 C 
ATOM     23  C   UNL     1      33.055 -10.626 -23.671  0.00  0.00    +0.023 C 
ATOM     24  C   UNL     1      31.816 -10.686 -22.786  0.00  0.00    +0.023 C 
ENDBRANCH   3  20
BRANCH   4  25
ATOM     25  N   UNL     1      34.876 -14.148 -20.207  0.00  0.00    +0.383 N 
ATOM     26  H   UNL     1      33.938 -13.754 -20.276  0.00  0.00    -0.089 HD
ATOM     27  H   UNL     1      35.564 -13.396 -20.228  0.00  0.00    -0.089 HD
ATOM     28  H   UNL     1      34.964 -14.664 -19.331  0.00  0.00    -0.089 HD
ENDBRANCH   4  25
TORSDOF 3
ENDMDL
MODEL 7
REMARK VINA RESULT:      -8.5      1.623      8.151
REMARK  Name = 24752844
REMARK  3 active torsions:
REMARK  status: ('A' for Active; 'I' for Inactive)
REMARK    1  A    between atoms: C_3  and  C_20
REMARK    2  A    between atoms: C_4  and  N_25
REMARK    3  A    between atoms: C_7  and  C_10
REMARK                            x       y       z     vdW  Elec       q    Type
REMARK                         _______ _______ _______ _____ _____    ______ ____
ROOT
ATOM      1  O   UNL     1      32.676 -14.166 -20.275  0.00  0.00    -0.267 OA
ATOM      2  N   UNL     1      32.881 -14.117 -22.588  0.00  0.00    -0.276 N 
ATOM      3  C   UNL     1      32.447 -12.475 -24.243  0.00  0.00    +0.078 C 
ATOM      4  C   UNL     1      32.481 -13.862 -24.898  0.00  0.00    -0.035 C 
ATOM      5  C   UNL     1      32.248 -12.814 -22.766  0.00  0.00    +0.101 C 
ATOM      6  C   UNL     1      33.235 -14.714 -23.877  0.00  0.00    +0.073 C 
ATOM      7  C   UNL     1      33.038 -14.681 -21.332  0.00  0.00    +0.276 C 
ENDROOT
BRANCH   7  10
ATOM      8  N   UNL     1      32.882 -17.039 -20.928  0.00  0.00    -0.402 NA
ATOM      9  N   UNL     1      35.593 -17.386 -21.431  0.00  0.00    -0.264 NA
ATOM     10  C   UNL     1      33.677 -16.004 -21.254  0.00  0.00    +0.186 C 
ATOM     11  C   UNL     1      35.012 -16.175 -21.502  0.00  0.00    +0.188 C 
ATOM     12  C   UNL     1      33.444 -18.259 -20.852  0.00  0.00    +0.126 C 
ATOM     13  C   UNL     1      34.816 -18.435 -21.107  0.00  0.00    +0.084 C 
ATOM     14  C   UNL     1      32.669 -19.368 -20.518  0.00  0.00    +0.086 C 
ATOM     15  C   UNL     1      35.364 -19.713 -21.018  0.00  0.00    +0.073 C 
ATOM     16  C   UNL     1      33.228 -20.643 -20.433  0.00  0.00    -0.023 C 
ATOM     17  C   UNL     1      34.580 -20.815 -20.683  0.00  0.00    -0.024 C 
ENDBRANCH   7  10
BRANCH   3  20
ATOM     18  O   UNL     1      34.720 -12.233 -24.914  0.00  0.00    -0.275 OA
ATOM     19  N   UNL     1      33.684 -10.377 -24.009  0.00  0.00    -0.280 N 
ATOM     20  C   UNL     1      33.725 -11.695 -24.425  0.00  0.00    +0.225 C 
ATOM     21  C   UNL     1      32.541  -9.681 -23.428  0.00  0.00    +0.093 C 
ATOM     22  C   UNL     1      34.836  -9.494 -24.111  0.00  0.00    +0.093 C 
ATOM     23  C   UNL     1      33.119  -8.373 -22.904  0.00  0.00    +0.023 C 
ATOM     24  C   UNL     1      34.274  -8.103 -23.860  0.00  0.00    +0.023 C 
ENDBRANCH   3  20
BRANCH   4  25
ATOM     25  N   UNL     1      33.056 -13.909 -26.232  0.00  0.00    +0.383 N 
ATOM     26  H   UNL     1      32.886 -13.024 -26.708  0.00  0.00    -0.089 HD
ATOM     27  H   UNL     1      32.628 -14.669 -26.761  0.00  0.00    -0.089 HD
ATOM     28  H   UNL     1      34.062 -14.070 -26.162  0.00  0.00    -0.089 HD
ENDBRANCH   4  25
TORSDOF 3
ENDMDL
MODEL 8
REMARK VINA RESULT:      -8.4     12.990     14.528
REMARK  Name = 24752844
REMARK  3 active torsions:
REMARK  status: ('A' for Active; 'I' for Inactive)
REMARK    1  A    between atoms: C_3  and  C_20
REMARK    2  A    between atoms: C_4  and  N_25
REMARK    3  A    between atoms: C_7  and  C_10
REMARK                            x       y       z     vdW  Elec       q    Type
REMARK                         _______ _______ _______ _____ _____    ______ ____
ROOT
ATOM      1  O   UNL     1      31.733 -25.232 -12.728  0.00  0.00    -0.267 OA
ATOM      2  N   UNL     1      33.239 -24.166 -14.140  0.00  0.00    -0.276 N 
ATOM      3  C   UNL     1      35.581 -23.805 -14.074  0.00  0.00    +0.078 C 
ATOM      4  C   UNL     1      34.935 -22.791 -15.028  0.00  0.00    -0.035 C 
ATOM      5  C   UNL     1      34.388 -24.285 -13.249  0.00  0.00    +0.101 C 
ATOM      6  C   UNL     1      33.585 -23.429 -15.356  0.00  0.00    +0.073 C 
ATOM      7  C   UNL     1      31.993 -24.663 -13.787  0.00  0.00    +0.276 C 
ENDROOT
BRANCH   7  10
ATOM      8  N   UNL     1      30.173 -23.354 -14.637  0.00  0.00    -0.402 NA
ATOM      9  N   UNL     1      29.606 -25.258 -16.581  0.00  0.00    -0.264 NA
ATOM     10  C   UNL     1      30.892 -24.485 -14.747  0.00  0.00    +0.186 C 
ATOM     11  C   UNL     1      30.614 -25.423 -15.704  0.00  0.00    +0.188 C 
ATOM     12  C   UNL     1      29.161 -23.169 -15.505  0.00  0.00    +0.126 C 
ATOM     13  C   UNL     1      28.875 -24.133 -16.489  0.00  0.00    +0.084 C 
ATOM     14  C   UNL     1      28.382 -22.016 -15.439  0.00  0.00    +0.086 C 
ATOM     15  C   UNL     1      27.820 -23.909 -17.370  0.00  0.00    +0.073 C 
ATOM     16  C   UNL     1      27.329 -21.802 -16.326  0.00  0.00    -0.023 C 
ATOM     17  C   UNL     1      27.046 -22.752 -17.295  0.00  0.00    -0.024 C 
ENDBRANCH   7  10
BRANCH   3  20
ATOM     18  O   UNL     1      35.578 -25.633 -15.601  0.00  0.00    -0.275 OA
ATOM     19  N   UNL     1      37.536 -25.228 -14.445  0.00  0.00    -0.280 N 
ATOM     20  C   UNL     1      36.220 -24.972 -14.783  0.00  0.00    +0.225 C 
ATOM     21  C   UNL     1      38.352 -24.484 -13.491  0.00  0.00    +0.093 C 
ATOM     22  C   UNL     1      38.292 -26.322 -15.036  0.00  0.00    +0.093 C 
ATOM     23  C   UNL     1      39.593 -25.345 -13.299  0.00  0.00    +0.023 C 
ATOM     24  C   UNL     1      39.736 -26.042 -14.646  0.00  0.00    +0.023 C 
ENDBRANCH   3  20
BRANCH   4  25
ATOM     25  N   UNL     1      35.719 -22.454 -16.205  0.00  0.00    +0.383 N 
ATOM     26  H   UNL     1      35.423 -23.034 -16.989  0.00  0.00    -0.089 HD
ATOM     27  H   UNL     1      36.708 -22.617 -16.014  0.00  0.00    -0.089 HD
ATOM     28  H   UNL     1      35.577 -21.470 -16.437  0.00  0.00    -0.089 HD
ENDBRANCH   4  25
TORSDOF 3
ENDMDL
MODEL 9
REMARK VINA RESULT:      -8.3      4.550     10.374
REMARK  Name = 24752844
REMARK  3 active torsions:
REMARK  status: ('A' for Active; 'I' for Inactive)
REMARK    1  A    between atoms: C_3  and  C_20
REMARK    2  A    between atoms: C_4  and  N_25
REMARK    3  A    between atoms: C_7  and  C_10
REMARK                            x       y       z     vdW  Elec       q    Type
REMARK                         _______ _______ _______ _____ _____    ______ ____
ROOT
ATOM      1  O   UNL     1      37.053 -21.263 -20.530  0.00  0.00    -0.267 OA
ATOM      2  N   UNL     1      35.593 -19.486 -20.857  0.00  0.00    -0.276 N 
ATOM      3  C   UNL     1      35.631 -17.561 -22.240  0.00  0.00    +0.078 C 
ATOM      4  C   UNL     1      34.644 -17.339 -21.085  0.00  0.00    -0.035 C 
ATOM      5  C   UNL     1      36.481 -18.723 -21.728  0.00  0.00    +0.101 C 
ATOM      6  C   UNL     1      34.349 -18.759 -20.601  0.00  0.00    +0.073 C 
ATOM      7  C   UNL     1      35.972 -20.711 -20.330  0.00  0.00    +0.276 C 
ENDROOT
BRANCH   7  10
ATOM      8  N   UNL     1      35.496 -21.884 -18.293  0.00  0.00    -0.402 NA
ATOM      9  N   UNL     1      32.822 -22.175 -18.992  0.00  0.00    -0.264 NA
ATOM     10  C   UNL     1      35.014 -21.401 -19.452  0.00  0.00    +0.186 C 
ATOM     11  C   UNL     1      33.697 -21.544 -19.797  0.00  0.00    +0.188 C 
ATOM     12  C   UNL     1      34.638 -22.517 -17.474  0.00  0.00    +0.126 C 
ATOM     13  C   UNL     1      33.284 -22.665 -17.827  0.00  0.00    +0.084 C 
ATOM     14  C   UNL     1      35.081 -23.037 -16.260  0.00  0.00    +0.086 C 
ATOM     15  C   UNL     1      32.424 -23.327 -16.955  0.00  0.00    +0.073 C 
ATOM     16  C   UNL     1      34.212 -23.698 -15.394  0.00  0.00    -0.023 C 
ATOM     17  C   UNL     1      32.878 -23.844 -15.743  0.00  0.00    -0.024 C 
ENDBRANCH   7  10
BRANCH   3  20
ATOM     18  O   UNL     1      34.867 -19.128 -23.863  0.00  0.00    -0.275 OA
ATOM     19  N   UNL     1      34.485 -16.891 -24.295  0.00  0.00    -0.280 N 
ATOM     20  C   UNL     1      34.961 -17.944 -23.536  0.00  0.00    +0.225 C 
ATOM     21  C   UNL     1      34.561 -15.472 -23.964  0.00  0.00    +0.093 C 
ATOM     22  C   UNL     1      33.820 -17.094 -25.573  0.00  0.00    +0.093 C 
ATOM     23  C   UNL     1      34.153 -14.760 -25.246  0.00  0.00    +0.023 C 
ATOM     24  C   UNL     1      33.188 -15.747 -25.892  0.00  0.00    +0.023 C 
ENDBRANCH   3  20
BRANCH   4  25
ATOM     25  N   UNL     1      33.451 -16.580 -21.420  0.00  0.00    +0.383 N 
ATOM     26  H   UNL     1      33.693 -15.837 -22.074  0.00  0.00    -0.089 HD
ATOM     27  H   UNL     1      33.058 -16.173 -20.571  0.00  0.00    -0.089 HD
ATOM     28  H   UNL     1      32.763 -17.200 -21.848  0.00  0.00    -0.089 HD
ENDBRANCH   4  25
TORSDOF 3
ENDMDL
