MODEL 1
REMARK VINA RESULT:      -7.6      0.000      0.000
REMARK  Name = 3000493
REMARK  5 active torsions:
REMARK  status: ('A' for Active; 'I' for Inactive)
REMARK    1  A    between atoms: C_5  and  C_21
REMARK    2  A    between atoms: C_10  and  O_17
REMARK    3  A    between atoms: C_12  and  O_15
REMARK    4  A    between atoms: O_17  and  C_18
REMARK    5  A    between atoms: C_21  and  S_22
REMARK                            x       y       z     vdW  Elec       q    Type
REMARK                         _______ _______ _______ _____ _____    ______ ____
ROOT
ATOM      1  S   UNL     1      32.338 -13.730 -26.961  0.00  0.00    -0.038 S 
ATOM      2  O   UNL     1      32.189 -14.399 -20.876  0.00  0.00    -0.226 OA
ATOM      3  N   UNL     1      33.036 -14.206 -23.062  0.00  0.00    -0.219 N 
ATOM      4  N   UNL     1      33.794 -15.405 -25.497  0.00  0.00    -0.308 N 
ATOM      5  C   UNL     1      33.094 -13.380 -24.289  0.00  0.00    +0.136 C 
ATOM      6  C   UNL     1      33.837 -15.401 -23.060  0.00  0.00    +0.074 C 
ATOM      7  C   UNL     1      34.229 -15.964 -24.287  0.00  0.00    +0.063 C 
ATOM      8  C   UNL     1      33.080 -14.239 -25.546  0.00  0.00    +0.081 C 
ATOM      9  C   UNL     1      34.264 -16.035 -21.883  0.00  0.00    +0.053 C 
ATOM     10  C   UNL     1      32.297 -13.786 -21.936  0.00  0.00    +0.409 C 
ATOM     11  C   UNL     1      34.994 -17.136 -24.338  0.00  0.00    +0.019 C 
ATOM     12  C   UNL     1      35.038 -17.200 -21.934  0.00  0.00    +0.140 C 
ATOM     13  C   UNL     1      35.400 -17.750 -23.159  0.00  0.00    +0.038 C 
ATOM     14  H   UNL     1      34.007 -15.867 -26.339  0.00  0.00    +0.152 HD
ENDROOT
BRANCH  12  15
ATOM     15  O   UNL     1      35.446 -17.792 -20.778  0.00  0.00    -0.471 OA
ATOM     16  C   UNL     1      36.149 -19.027 -20.895  0.00  0.00    +0.252 C 
ENDBRANCH  12  15
BRANCH  10  17
ATOM     17  O   UNL     1      31.665 -12.585 -22.149  0.00  0.00    -0.438 OA
BRANCH  17  18
ATOM     18  C   UNL     1      32.085 -11.491 -21.325  0.00  0.00    +0.171 C 
ATOM     19  C   UNL     1      31.688 -10.182 -21.992  0.00  0.00    +0.047 C 
ATOM     20  C   UNL     1      31.464 -11.634 -19.945  0.00  0.00    +0.047 C 
ENDBRANCH  17  18
ENDBRANCH  10  17
BRANCH   5  21
ATOM     21  C   UNL     1      34.330 -12.474 -24.262  0.00  0.00    +0.084 C 
BRANCH  21  22
ATOM     22  S   UNL     1      33.887 -10.805 -24.795  0.00  0.00    -0.137 S 
ATOM     23  C   UNL     1      35.375 -10.422 -25.750  0.00  0.00    +0.069 C 
ENDBRANCH  21  22
ENDBRANCH   5  21
TORSDOF 5
ENDMDL
MODEL 2
REMARK VINA RESULT:      -7.5      9.504     12.830
REMARK  Name = 3000493
REMARK  5 active torsions:
REMARK  status: ('A' for Active; 'I' for Inactive)
REMARK    1  A    between atoms: C_5  and  C_21
REMARK    2  A    between atoms: C_10  and  O_17
REMARK    3  A    between atoms: C_12  and  O_15
REMARK    4  A    between atoms: O_17  and  C_18
REMARK    5  A    between atoms: C_21  and  S_22
REMARK                            x       y       z     vdW  Elec       q    Type
REMARK                         _______ _______ _______ _____ _____    ______ ____
ROOT
ATOM      1  S   UNL     1      36.641 -23.305 -12.447  0.00  0.00    -0.038 S 
ATOM      2  O   UNL     1      32.164 -23.112 -16.619  0.00  0.00    -0.226 OA
ATOM      3  N   UNL     1      34.273 -23.495 -15.652  0.00  0.00    -0.219 N 
ATOM      4  N   UNL     1      36.856 -22.581 -14.995  0.00  0.00    -0.308 N 
ATOM      5  C   UNL     1      35.023 -24.162 -14.564  0.00  0.00    +0.136 C 
ATOM      6  C   UNL     1      35.060 -22.792 -16.629  0.00  0.00    +0.074 C 
ATOM      7  C   UNL     1      36.358 -22.372 -16.289  0.00  0.00    +0.063 C 
ATOM      8  C   UNL     1      36.166 -23.295 -14.055  0.00  0.00    +0.081 C 
ATOM      9  C   UNL     1      34.599 -22.510 -17.924  0.00  0.00    +0.053 C 
ATOM     10  C   UNL     1      32.872 -23.624 -15.756  0.00  0.00    +0.409 C 
ATOM     11  C   UNL     1      37.156 -21.669 -17.199  0.00  0.00    +0.019 C 
ATOM     12  C   UNL     1      35.401 -21.817 -18.838  0.00  0.00    +0.140 C 
ATOM     13  C   UNL     1      36.676 -21.395 -18.476  0.00  0.00    +0.038 C 
ATOM     14  H   UNL     1      37.732 -22.200 -14.755  0.00  0.00    +0.152 HD
ENDROOT
BRANCH  12  15
ATOM     15  O   UNL     1      34.934 -21.562 -20.091  0.00  0.00    -0.471 OA
ATOM     16  C   UNL     1      33.869 -20.620 -20.207  0.00  0.00    +0.252 C 
ENDBRANCH  12  15
BRANCH  10  17
ATOM     17  O   UNL     1      32.345 -24.393 -14.746  0.00  0.00    -0.438 OA
BRANCH  17  18
ATOM     18  C   UNL     1      30.951 -24.213 -14.471  0.00  0.00    +0.171 C 
ATOM     19  C   UNL     1      30.206 -25.498 -14.804  0.00  0.00    +0.047 C 
ATOM     20  C   UNL     1      30.774 -23.817 -13.014  0.00  0.00    +0.047 C 
ENDBRANCH  17  18
ENDBRANCH  10  17
BRANCH   5  21
ATOM     21  C   UNL     1      35.542 -25.525 -15.033  0.00  0.00    +0.084 C 
BRANCH  21  22
ATOM     22  S   UNL     1      36.689 -26.206 -13.813  0.00  0.00    -0.137 S 
ATOM     23  C   UNL     1      38.207 -26.123 -14.794  0.00  0.00    +0.069 C 
ENDBRANCH  21  22
ENDBRANCH   5  21
TORSDOF 5
ENDMDL
MODEL 3
REMARK VINA RESULT:      -6.9     11.408     13.819
REMARK  Name = 3000493
REMARK  5 active torsions:
REMARK  status: ('A' for Active; 'I' for Inactive)
REMARK    1  A    between atoms: C_5  and  C_21
REMARK    2  A    between atoms: C_10  and  O_17
REMARK    3  A    between atoms: C_12  and  O_15
REMARK    4  A    between atoms: O_17  and  C_18
REMARK    5  A    between atoms: C_21  and  S_22
REMARK                            x       y       z     vdW  Elec       q    Type
REMARK                         _______ _______ _______ _____ _____    ______ ____
ROOT
ATOM      1  S   UNL     1      37.547 -22.388 -16.472  0.00  0.00    -0.038 S 
ATOM      2  O   UNL     1      33.483 -24.215 -12.272  0.00  0.00    -0.226 OA
ATOM      3  N   UNL     1      34.616 -24.037 -14.325  0.00  0.00    -0.219 N 
ATOM      4  N   UNL     1      34.944 -22.786 -16.828  0.00  0.00    -0.308 N 
ATOM      5  C   UNL     1      35.917 -24.143 -15.023  0.00  0.00    +0.136 C 
ATOM      6  C   UNL     1      33.471 -23.763 -15.150  0.00  0.00    +0.074 C 
ATOM      7  C   UNL     1      33.661 -23.166 -16.409  0.00  0.00    +0.063 C 
ATOM      8  C   UNL     1      36.065 -23.078 -16.102  0.00  0.00    +0.081 C 
ATOM      9  C   UNL     1      32.158 -24.076 -14.766  0.00  0.00    +0.053 C 
ATOM     10  C   UNL     1      34.513 -24.277 -12.939  0.00  0.00    +0.409 C 
ATOM     11  C   UNL     1      32.576 -22.864 -17.241  0.00  0.00    +0.019 C 
ATOM     12  C   UNL     1      31.075 -23.784 -15.603  0.00  0.00    +0.140 C 
ATOM     13  C   UNL     1      31.283 -23.177 -16.837  0.00  0.00    +0.038 C 
ATOM     14  H   UNL     1      35.040 -22.290 -17.674  0.00  0.00    +0.152 HD
ENDROOT
BRANCH  12  15
ATOM     15  O   UNL     1      29.811 -24.104 -15.210  0.00  0.00    -0.471 OA
ATOM     16  C   UNL     1      28.760 -23.857 -16.143  0.00  0.00    +0.252 C 
ENDBRANCH  12  15
BRANCH  10  17
ATOM     17  O   UNL     1      35.728 -24.582 -12.373  0.00  0.00    -0.438 OA
BRANCH  17  18
ATOM     18  C   UNL     1      36.297 -23.586 -11.514  0.00  0.00    +0.171 C 
ATOM     19  C   UNL     1      36.041 -23.971 -10.064  0.00  0.00    +0.047 C 
ATOM     20  C   UNL     1      37.782 -23.456 -11.812  0.00  0.00    +0.047 C 
ENDBRANCH  17  18
ENDBRANCH  10  17
BRANCH   5  21
ATOM     21  C   UNL     1      36.090 -25.545 -15.616  0.00  0.00    +0.084 C 
BRANCH  21  22
ATOM     22  S   UNL     1      37.200 -26.525 -14.580  0.00  0.00    -0.137 S 
ATOM     23  C   UNL     1      38.688 -25.510 -14.742  0.00  0.00    +0.069 C 
ENDBRANCH  21  22
ENDBRANCH   5  21
TORSDOF 5
ENDMDL
MODEL 4
REMARK VINA RESULT:      -6.4      1.933      5.820
REMARK  Name = 3000493
REMARK  5 active torsions:
REMARK  status: ('A' for Active; 'I' for Inactive)
REMARK    1  A    between atoms: C_5  and  C_21
REMARK    2  A    between atoms: C_10  and  O_17
REMARK    3  A    between atoms: C_12  and  O_15
REMARK    4  A    between atoms: O_17  and  C_18
REMARK    5  A    between atoms: C_21  and  S_22
REMARK                            x       y       z     vdW  Elec       q    Type
REMARK                         _______ _______ _______ _____ _____    ______ ____
ROOT
ATOM      1  S   UNL     1      35.804 -10.414 -26.172  0.00  0.00    -0.038 S 
ATOM      2  O   UNL     1      33.543 -14.152 -21.881  0.00  0.00    -0.226 OA
ATOM      3  N   UNL     1      33.627 -12.534 -23.586  0.00  0.00    -0.219 N 
ATOM      4  N   UNL     1      33.919  -9.848 -24.385  0.00  0.00    -0.308 N 
ATOM      5  C   UNL     1      34.045 -12.232 -24.973  0.00  0.00    +0.136 C 
ATOM      6  C   UNL     1      32.914 -11.494 -22.895  0.00  0.00    +0.074 C 
ATOM      7  C   UNL     1      33.051 -10.164 -23.330  0.00  0.00    +0.063 C 
ATOM      8  C   UNL     1      34.572 -10.810 -25.106  0.00  0.00    +0.081 C 
ATOM      9  C   UNL     1      32.068 -11.741 -21.803  0.00  0.00    +0.053 C 
ATOM     10  C   UNL     1      33.852 -13.806 -23.019  0.00  0.00    +0.409 C 
ATOM     11  C   UNL     1      32.391  -9.115 -22.680  0.00  0.00    +0.019 C 
ATOM     12  C   UNL     1      31.399 -10.693 -21.160  0.00  0.00    +0.140 C 
ATOM     13  C   UNL     1      31.562  -9.383 -21.596  0.00  0.00    +0.038 C 
ATOM     14  H   UNL     1      34.066  -8.901 -24.613  0.00  0.00    +0.152 HD
ENDROOT
BRANCH  12  15
ATOM     15  O   UNL     1      30.578 -10.960 -20.107  0.00  0.00    -0.471 OA
ATOM     16  C   UNL     1      31.122 -10.786 -18.800  0.00  0.00    +0.252 C 
ENDBRANCH  12  15
BRANCH  10  17
ATOM     17  O   UNL     1      34.494 -14.656 -23.887  0.00  0.00    -0.438 OA
BRANCH  17  18
ATOM     18  C   UNL     1      34.322 -16.058 -23.649  0.00  0.00    +0.171 C 
ATOM     19  C   UNL     1      34.687 -16.828 -24.910  0.00  0.00    +0.047 C 
ATOM     20  C   UNL     1      35.177 -16.474 -22.463  0.00  0.00    +0.047 C 
ENDBRANCH  17  18
ENDBRANCH  10  17
BRANCH   5  21
ATOM     21  C   UNL     1      32.883 -12.474 -25.943  0.00  0.00    +0.084 C 
BRANCH  21  22
ATOM     22  S   UNL     1      33.405 -13.580 -27.274  0.00  0.00    -0.137 S 
ATOM     23  C   UNL     1      32.504 -15.063 -26.762  0.00  0.00    +0.069 C 
ENDBRANCH  21  22
ENDBRANCH   5  21
TORSDOF 5
ENDMDL
MODEL 5
REMARK VINA RESULT:      -5.8      3.416      5.297
REMARK  Name = 3000493
REMARK  5 active torsions:
REMARK  status: ('A' for Active; 'I' for Inactive)
REMARK    1  A    between atoms: C_5  and  C_21
REMARK    2  A    between atoms: C_10  and  O_17
REMARK    3  A    between atoms: C_12  and  O_15
REMARK    4  A    between atoms: O_17  and  C_18
REMARK    5  A    between atoms: C_21  and  S_22
REMARK                            x       y       z     vdW  Elec       q    Type
REMARK                         _______ _______ _______ _____ _____    ______ ____
ROOT
ATOM      1  S   UNL     1      31.901  -9.239 -19.583  0.00  0.00    -0.038 S 
ATOM      2  O   UNL     1      34.462 -10.677 -24.956  0.00  0.00    -0.226 OA
ATOM      3  N   UNL     1      32.928 -10.642 -23.174  0.00  0.00    -0.219 N 
ATOM      4  N   UNL     1      32.050 -11.650 -20.693  0.00  0.00    -0.308 N 
ATOM      5  C   UNL     1      32.055  -9.806 -22.319  0.00  0.00    +0.136 C 
ATOM      6  C   UNL     1      32.861 -12.062 -22.953  0.00  0.00    +0.074 C 
ATOM      7  C   UNL     1      32.391 -12.542 -21.719  0.00  0.00    +0.063 C 
ATOM      8  C   UNL     1      32.043 -10.294 -20.878  0.00  0.00    +0.081 C 
ATOM      9  C   UNL     1      33.234 -13.005 -23.923  0.00  0.00    +0.053 C 
ATOM     10  C   UNL     1      33.710 -10.069 -24.197  0.00  0.00    +0.409 C 
ATOM     11  C   UNL     1      32.324 -13.915 -21.450  0.00  0.00    +0.019 C 
ATOM     12  C   UNL     1      33.156 -14.378 -23.659  0.00  0.00    +0.140 C 
ATOM     13  C   UNL     1      32.705 -14.831 -22.424  0.00  0.00    +0.038 C 
ATOM     14  H   UNL     1      31.808 -12.010 -19.809  0.00  0.00    +0.152 HD
ENDROOT
BRANCH  12  15
ATOM     15  O   UNL     1      33.516 -15.273 -24.619  0.00  0.00    -0.471 OA
ATOM     16  C   UNL     1      33.112 -14.987 -25.957  0.00  0.00    +0.252 C 
ENDBRANCH  12  15
BRANCH  10  17
ATOM     17  O   UNL     1      33.564  -8.704 -24.259  0.00  0.00    -0.438 OA
BRANCH  17  18
ATOM     18  C   UNL     1      34.724  -7.926 -23.941  0.00  0.00    +0.171 C 
ATOM     19  C   UNL     1      34.795  -6.728 -24.877  0.00  0.00    +0.047 C 
ATOM     20  C   UNL     1      34.659  -7.502 -22.482  0.00  0.00    +0.047 C 
ENDBRANCH  17  18
ENDBRANCH  10  17
BRANCH   5  21
ATOM     21  C   UNL     1      30.634  -9.762 -22.891  0.00  0.00    +0.084 C 
BRANCH  21  22
ATOM     22  S   UNL     1      30.384  -8.231 -23.818  0.00  0.00    -0.137 S 
ATOM     23  C   UNL     1      31.047  -7.067 -22.603  0.00  0.00    +0.069 C 
ENDBRANCH  21  22
ENDBRANCH   5  21
TORSDOF 5
ENDMDL
MODEL 6
REMARK VINA RESULT:      -5.7      9.086     12.538
REMARK  Name = 3000493
REMARK  5 active torsions:
REMARK  status: ('A' for Active; 'I' for Inactive)
REMARK    1  A    between atoms: C_5  and  C_21
REMARK    2  A    between atoms: C_10  and  O_17
REMARK    3  A    between atoms: C_12  and  O_15
REMARK    4  A    between atoms: O_17  and  C_18
REMARK    5  A    between atoms: C_21  and  S_22
REMARK                            x       y       z     vdW  Elec       q    Type
REMARK                         _______ _______ _______ _____ _____    ______ ____
ROOT
ATOM      1  S   UNL     1      30.399 -24.769 -16.152  0.00  0.00    -0.038 S 
ATOM      2  O   UNL     1      36.493 -24.226 -15.915  0.00  0.00    -0.226 OA
ATOM      3  N   UNL     1      34.222 -23.633 -16.064  0.00  0.00    -0.219 N 
ATOM      4  N   UNL     1      31.922 -23.163 -17.623  0.00  0.00    -0.308 N 
ATOM      5  C   UNL     1      32.887 -23.712 -15.429  0.00  0.00    +0.136 C 
ATOM      6  C   UNL     1      34.311 -22.842 -17.262  0.00  0.00    +0.074 C 
ATOM      7  C   UNL     1      33.145 -22.595 -18.007  0.00  0.00    +0.063 C 
ATOM      8  C   UNL     1      31.781 -23.872 -16.462  0.00  0.00    +0.081 C 
ATOM      9  C   UNL     1      35.514 -22.286 -17.725  0.00  0.00    +0.053 C 
ATOM     10  C   UNL     1      35.349 -24.237 -15.468  0.00  0.00    +0.409 C 
ATOM     11  C   UNL     1      33.183 -21.845 -19.189  0.00  0.00    +0.019 C 
ATOM     12  C   UNL     1      35.550 -21.527 -18.900  0.00  0.00    +0.140 C 
ATOM     13  C   UNL     1      34.388 -21.310 -19.632  0.00  0.00    +0.038 C 
ATOM     14  H   UNL     1      31.139 -23.049 -18.209  0.00  0.00    +0.152 HD
ENDROOT
BRANCH  12  15
ATOM     15  O   UNL     1      36.728 -20.993 -19.324  0.00  0.00    -0.471 OA
ATOM     16  C   UNL     1      36.655 -19.957 -20.303  0.00  0.00    +0.252 C 
ENDBRANCH  12  15
BRANCH  10  17
ATOM     17  O   UNL     1      35.032 -24.885 -14.298  0.00  0.00    -0.438 OA
BRANCH  17  18
ATOM     18  C   UNL     1      35.948 -24.714 -13.209  0.00  0.00    +0.171 C 
ATOM     19  C   UNL     1      35.164 -24.420 -11.938  0.00  0.00    +0.047 C 
ATOM     20  C   UNL     1      36.802 -25.965 -13.072  0.00  0.00    +0.047 C 
ENDBRANCH  17  18
ENDBRANCH  10  17
BRANCH   5  21
ATOM     21  C   UNL     1      32.640 -22.478 -14.555  0.00  0.00    +0.084 C 
BRANCH  21  22
ATOM     22  S   UNL     1      31.535 -22.897 -13.188  0.00  0.00    -0.137 S 
ATOM     23  C   UNL     1      31.789 -24.688 -13.173  0.00  0.00    +0.069 C 
ENDBRANCH  21  22
ENDBRANCH   5  21
TORSDOF 5
ENDMDL
MODEL 7
REMARK VINA RESULT:      -5.6      4.308      7.103
REMARK  Name = 3000493
REMARK  5 active torsions:
REMARK  status: ('A' for Active; 'I' for Inactive)
REMARK    1  A    between atoms: C_5  and  C_21
REMARK    2  A    between atoms: C_10  and  O_17
REMARK    3  A    between atoms: C_12  and  O_15
REMARK    4  A    between atoms: O_17  and  C_18
REMARK    5  A    between atoms: C_21  and  S_22
REMARK                            x       y       z     vdW  Elec       q    Type
REMARK                         _______ _______ _______ _____ _____    ______ ____
ROOT
ATOM      1  S   UNL     1      32.437  -6.296 -19.616  0.00  0.00    -0.038 S 
ATOM      2  O   UNL     1      34.697  -9.144 -24.543  0.00  0.00    -0.226 OA
ATOM      3  N   UNL     1      33.168  -8.438 -22.901  0.00  0.00    -0.219 N 
ATOM      4  N   UNL     1      31.959  -8.796 -20.381  0.00  0.00    -0.308 N 
ATOM      5  C   UNL     1      32.528  -7.282 -22.233  0.00  0.00    +0.136 C 
ATOM      6  C   UNL     1      32.707  -9.740 -22.500  0.00  0.00    +0.074 C 
ATOM      7  C   UNL     1      32.079  -9.889 -21.251  0.00  0.00    +0.063 C 
ATOM      8  C   UNL     1      32.331  -7.531 -20.744  0.00  0.00    +0.081 C 
ATOM      9  C   UNL     1      32.841 -10.882 -23.305  0.00  0.00    +0.053 C 
ATOM     10  C   UNL     1      34.114  -8.252 -23.931  0.00  0.00    +0.409 C 
ATOM     11  C   UNL     1      31.629 -11.139 -20.808  0.00  0.00    +0.019 C 
ATOM     12  C   UNL     1      32.381 -12.129 -22.867  0.00  0.00    +0.140 C 
ATOM     13  C   UNL     1      31.779 -12.258 -21.620  0.00  0.00    +0.038 C 
ATOM     14  H   UNL     1      31.597  -8.944 -19.477  0.00  0.00    +0.152 HD
ENDROOT
BRANCH  12  15
ATOM     15  O   UNL     1      32.517 -13.220 -23.670  0.00  0.00    -0.471 OA
ATOM     16  C   UNL     1      33.814 -13.806 -23.753  0.00  0.00    +0.252 C 
ENDBRANCH  12  15
BRANCH  10  17
ATOM     17  O   UNL     1      34.350  -6.922 -24.184  0.00  0.00    -0.438 OA
BRANCH  17  18
ATOM     18  C   UNL     1      34.089  -6.474 -25.519  0.00  0.00    +0.171 C 
ATOM     19  C   UNL     1      32.979  -5.433 -25.489  0.00  0.00    +0.047 C 
ATOM     20  C   UNL     1      35.369  -5.919 -26.122  0.00  0.00    +0.047 C 
ENDBRANCH  17  18
ENDBRANCH  10  17
BRANCH   5  21
ATOM     21  C   UNL     1      31.195  -6.948 -22.910  0.00  0.00    +0.084 C 
BRANCH  21  22
ATOM     22  S   UNL     1      30.402  -5.558 -22.069  0.00  0.00    -0.137 S 
ATOM     23  C   UNL     1      31.215  -4.206 -22.954  0.00  0.00    +0.069 C 
ENDBRANCH  21  22
ENDBRANCH   5  21
TORSDOF 5
ENDMDL
MODEL 8
REMARK VINA RESULT:      -5.2      4.654      8.661
REMARK  Name = 3000493
REMARK  5 active torsions:
REMARK  status: ('A' for Active; 'I' for Inactive)
REMARK    1  A    between atoms: C_5  and  C_21
REMARK    2  A    between atoms: C_10  and  O_17
REMARK    3  A    between atoms: C_12  and  O_15
REMARK    4  A    between atoms: O_17  and  C_18
REMARK    5  A    between atoms: C_21  and  S_22
REMARK                            x       y       z     vdW  Elec       q    Type
REMARK                         _______ _______ _______ _____ _____    ______ ____
ROOT
ATOM      1  S   UNL     1      35.243  -9.641 -24.282  0.00  0.00    -0.038 S 
ATOM      2  O   UNL     1      31.897  -7.461 -19.640  0.00  0.00    -0.226 OA
ATOM      3  N   UNL     1      32.498  -8.126 -21.814  0.00  0.00    -0.219 N 
ATOM      4  N   UNL     1      33.638  -7.523 -24.320  0.00  0.00    -0.308 N 
ATOM      5  C   UNL     1      32.993  -9.228 -22.670  0.00  0.00    +0.136 C 
ATOM      6  C   UNL     1      32.155  -6.902 -22.488  0.00  0.00    +0.074 C 
ATOM      7  C   UNL     1      32.712  -6.636 -23.751  0.00  0.00    +0.063 C 
ATOM      8  C   UNL     1      33.948  -8.723 -23.743  0.00  0.00    +0.081 C 
ATOM      9  C   UNL     1      31.273  -5.953 -21.950  0.00  0.00    +0.053 C 
ATOM     10  C   UNL     1      32.302  -8.311 -20.430  0.00  0.00    +0.409 C 
ATOM     11  C   UNL     1      32.423  -5.452 -24.439  0.00  0.00    +0.019 C 
ATOM     12  C   UNL     1      30.974  -4.774 -22.642  0.00  0.00    +0.140 C 
ATOM     13  C   UNL     1      31.550  -4.523 -23.883  0.00  0.00    +0.038 C 
ATOM     14  H   UNL     1      34.080  -7.272 -25.164  0.00  0.00    +0.152 HD
ENDROOT
BRANCH  12  15
ATOM     15  O   UNL     1      30.109  -3.872 -22.101  0.00  0.00    -0.471 OA
ATOM     16  C   UNL     1      30.266  -2.509 -22.492  0.00  0.00    +0.252 C 
ENDBRANCH  12  15
BRANCH  10  17
ATOM     17  O   UNL     1      32.639  -9.579 -20.023  0.00  0.00    -0.438 OA
BRANCH  17  18
ATOM     18  C   UNL     1      31.583 -10.369 -19.464  0.00  0.00    +0.171 C 
ATOM     19  C   UNL     1      31.684 -11.790 -20.000  0.00  0.00    +0.047 C 
ATOM     20  C   UNL     1      31.675 -10.328 -17.947  0.00  0.00    +0.047 C 
ENDBRANCH  17  18
ENDBRANCH  10  17
BRANCH   5  21
ATOM     21  C   UNL     1      31.816  -9.981 -23.301  0.00  0.00    +0.084 C 
BRANCH  21  22
ATOM     22  S   UNL     1      31.891 -11.731 -22.859  0.00  0.00    -0.137 S 
ATOM     23  C   UNL     1      33.215 -12.239 -23.982  0.00  0.00    +0.069 C 
ENDBRANCH  21  22
ENDBRANCH   5  21
TORSDOF 5
ENDMDL
MODEL 9
REMARK VINA RESULT:      -4.9      3.170      6.551
REMARK  Name = 3000493
REMARK  5 active torsions:
REMARK  status: ('A' for Active; 'I' for Inactive)
REMARK    1  A    between atoms: C_5  and  C_21
REMARK    2  A    between atoms: C_10  and  O_17
REMARK    3  A    between atoms: C_12  and  O_15
REMARK    4  A    between atoms: O_17  and  C_18
REMARK    5  A    between atoms: C_21  and  S_22
REMARK                            x       y       z     vdW  Elec       q    Type
REMARK                         _______ _______ _______ _____ _____    ______ ____
ROOT
ATOM      1  S   UNL     1      31.622 -16.048 -20.284  0.00  0.00    -0.038 S 
ATOM      2  O   UNL     1      34.122 -15.950 -25.873  0.00  0.00    -0.226 OA
ATOM      3  N   UNL     1      33.729 -15.424 -23.615  0.00  0.00    -0.219 N 
ATOM      4  N   UNL     1      32.375 -13.905 -21.665  0.00  0.00    -0.308 N 
ATOM      5  C   UNL     1      33.630 -15.943 -22.232  0.00  0.00    +0.136 C 
ATOM      6  C   UNL     1      33.597 -14.000 -23.772  0.00  0.00    +0.074 C 
ATOM      7  C   UNL     1      32.945 -13.259 -22.772  0.00  0.00    +0.063 C 
ATOM      8  C   UNL     1      32.526 -15.247 -21.447  0.00  0.00    +0.081 C 
ATOM      9  C   UNL     1      34.103 -13.303 -24.878  0.00  0.00    +0.053 C 
ATOM     10  C   UNL     1      34.020 -16.283 -24.695  0.00  0.00    +0.409 C 
ATOM     11  C   UNL     1      32.776 -11.874 -22.887  0.00  0.00    +0.019 C 
ATOM     12  C   UNL     1      33.945 -11.916 -24.989  0.00  0.00    +0.140 C 
ATOM     13  C   UNL     1      33.281 -11.204 -23.996  0.00  0.00    +0.038 C 
ATOM     14  H   UNL     1      31.847 -13.375 -21.024  0.00  0.00    +0.152 HD
ENDROOT
BRANCH  12  15
ATOM     15  O   UNL     1      34.452 -11.261 -26.069  0.00  0.00    -0.471 OA
ATOM     16  C   UNL     1      35.523 -10.349 -25.831  0.00  0.00    +0.252 C 
ENDBRANCH  12  15
BRANCH  10  17
ATOM     17  O   UNL     1      34.164 -17.590 -24.294  0.00  0.00    -0.438 OA
BRANCH  17  18
ATOM     18  C   UNL     1      34.235 -18.570 -25.336  0.00  0.00    +0.171 C 
ATOM     19  C   UNL     1      35.044 -19.762 -24.848  0.00  0.00    +0.047 C 
ATOM     20  C   UNL     1      32.827 -18.970 -25.745  0.00  0.00    +0.047 C 
ENDBRANCH  17  18
ENDBRANCH  10  17
BRANCH   5  21
ATOM     21  C   UNL     1      34.977 -15.804 -21.514  0.00  0.00    +0.084 C 
BRANCH  21  22
ATOM     22  S   UNL     1      35.682 -17.437 -21.196  0.00  0.00    -0.137 S 
ATOM     23  C   UNL     1      34.154 -18.405 -21.236  0.00  0.00    +0.069 C 
ENDBRANCH  21  22
ENDBRANCH   5  21
TORSDOF 5
ENDMDL
