MODEL 1
REMARK VINA RESULT:      -5.4      0.000      0.000
REMARK  Name = 439202
REMARK  8 active torsions:
REMARK  status: ('A' for Active; 'I' for Inactive)
REMARK    1  A    between atoms: C_1  and  CA_2
REMARK    2  A    between atoms: C_1  and  C_11
REMARK    3  A    between atoms: CA_2  and  N_3
REMARK    4  A    between atoms: CA_2  and  C_8
REMARK    5  A    between atoms: C_8  and  O_9
REMARK    6  A    between atoms: C_11  and  O_12
REMARK    7  A    between atoms: O_12  and  N_13
REMARK    8  A    between atoms: N_13  and  C_16
REMARK                            x       y       z     vdW  Elec       q    Type
REMARK                         _______ _______ _______ _____ _____    ______ ____
ROOT
ATOM      1  C   UNL     1      36.033 -23.218 -13.411  0.00  0.00    +0.024 C 
ENDROOT
BRANCH   1   2
ATOM      2  CA  UNL     1      36.473 -23.472 -11.961  0.00  0.00    +0.038 C 
BRANCH   2   3
ATOM      3  N   UNL     1      37.928 -23.494 -11.818  0.00  0.00    +0.389 N 
ATOM      4  H1  UNL     1      38.359 -23.121 -12.664  0.00  0.00    -0.088 HD
ATOM      5  H2  UNL     1      38.242 -24.453 -11.672  0.00  0.00    -0.088 HD
ATOM      6  H3  UNL     1      38.199 -22.922 -11.017  0.00  0.00    -0.088 HD
ENDBRANCH   2   3
BRANCH   2   8
ATOM      7  OXT UNL     1      35.299 -25.017 -10.476  0.00  0.00    -0.253 OA
ATOM      8  C   UNL     1      35.954 -24.822 -11.492  0.00  0.00    +0.293 C 
BRANCH   8   9
ATOM      9  O   UNL     1      36.294 -25.822 -12.349  0.00  0.00    -0.482 OA
ATOM     10  H   UNL     1      37.144 -26.213 -12.299  0.00  0.00    +0.295 HD
ENDBRANCH   8   9
ENDBRANCH   2   8
ENDBRANCH   1   2
BRANCH   1  11
ATOM     11  C   UNL     1      37.171 -23.154 -14.427  0.00  0.00    +0.175 C 
BRANCH  11  12
ATOM     12  O   UNL     1      37.584 -24.455 -14.816  0.00  0.00    -0.234 OA
BRANCH  12  13
ATOM     13  N   UNL     1      38.955 -24.577 -14.543  0.00  0.00    -0.096 NA
BRANCH  13  16
ATOM     14  N   UNL     1      38.288 -26.796 -14.250  0.00  0.00    -0.368 N 
ATOM     15  N   UNL     1      40.526 -26.341 -14.147  0.00  0.00    -0.368 N 
ATOM     16  C   UNL     1      39.261 -25.829 -14.325  0.00  0.00    +0.217 C 
ATOM     17  H   UNL     1      37.341 -26.550 -14.361  0.00  0.00    +0.159 HD
ATOM     18  H   UNL     1      38.538 -27.733 -14.085  0.00  0.00    +0.159 HD
ATOM     19  H   UNL     1      41.307 -25.743 -14.178  0.00  0.00    +0.159 HD
ATOM     20  H   UNL     1      40.649 -27.304 -13.986  0.00  0.00    +0.159 HD
ENDBRANCH  13  16
ENDBRANCH  12  13
ENDBRANCH  11  12
ENDBRANCH   1  11
TORSDOF 8
ENDMDL
MODEL 2
REMARK VINA RESULT:      -5.4      2.190      4.613
REMARK  Name = 439202
REMARK  8 active torsions:
REMARK  status: ('A' for Active; 'I' for Inactive)
REMARK    1  A    between atoms: C_1  and  CA_2
REMARK    2  A    between atoms: C_1  and  C_11
REMARK    3  A    between atoms: CA_2  and  N_3
REMARK    4  A    between atoms: CA_2  and  C_8
REMARK    5  A    between atoms: C_8  and  O_9
REMARK    6  A    between atoms: C_11  and  O_12
REMARK    7  A    between atoms: O_12  and  N_13
REMARK    8  A    between atoms: N_13  and  C_16
REMARK                            x       y       z     vdW  Elec       q    Type
REMARK                         _______ _______ _______ _____ _____    ______ ____
ROOT
ATOM      1  C   UNL     1      37.809 -26.238 -14.697  0.00  0.00    +0.024 C 
ENDROOT
BRANCH   1   2
ATOM      2  CA  UNL     1      38.602 -24.926 -14.600  0.00  0.00    +0.038 C 
BRANCH   2   3
ATOM      3  N   UNL     1      38.130 -23.920 -15.551  0.00  0.00    +0.389 N 
ATOM      4  H1  UNL     1      38.730 -23.097 -15.501  0.00  0.00    -0.088 HD
ATOM      5  H2  UNL     1      37.172 -23.656 -15.320  0.00  0.00    -0.088 HD
ATOM      6  H3  UNL     1      38.158 -24.305 -16.495  0.00  0.00    -0.088 HD
ENDBRANCH   2   3
BRANCH   2   8
ATOM      7  OXT UNL     1      41.014 -24.819 -14.220  0.00  0.00    -0.253 OA
ATOM      8  C   UNL     1      40.068 -25.183 -14.908  0.00  0.00    +0.293 C 
BRANCH   8   9
ATOM      9  O   UNL     1      40.229 -25.894 -16.056  0.00  0.00    -0.482 OA
ATOM     10  H   UNL     1      41.084 -26.006 -16.422  0.00  0.00    +0.295 HD
ENDBRANCH   8   9
ENDBRANCH   2   8
ENDBRANCH   1   2
BRANCH   1  11
ATOM     11  C   UNL     1      37.165 -26.699 -13.391  0.00  0.00    +0.175 C 
BRANCH  11  12
ATOM     12  O   UNL     1      37.577 -25.885 -12.303  0.00  0.00    -0.234 OA
BRANCH  12  13
ATOM     13  N   UNL     1      36.429 -25.466 -11.613  0.00  0.00    -0.096 NA
BRANCH  13  16
ATOM     14  N   UNL     1      35.198 -23.596 -12.277  0.00  0.00    -0.368 N 
ATOM     15  N   UNL     1      37.203 -23.230 -11.242  0.00  0.00    -0.368 N 
ATOM     16  C   UNL     1      36.303 -24.168 -11.696  0.00  0.00    +0.217 C 
ATOM     17  H   UNL     1      34.483 -24.168 -12.641  0.00  0.00    +0.159 HD
ATOM     18  H   UNL     1      35.120 -22.617 -12.330  0.00  0.00    +0.159 HD
ATOM     19  H   UNL     1      38.036 -23.518 -10.806  0.00  0.00    +0.159 HD
ATOM     20  H   UNL     1      37.012 -22.271 -11.354  0.00  0.00    +0.159 HD
ENDBRANCH  13  16
ENDBRANCH  12  13
ENDBRANCH  11  12
ENDBRANCH   1  11
TORSDOF 8
ENDMDL
MODEL 3
REMARK VINA RESULT:      -5.4      2.999      4.726
REMARK  Name = 439202
REMARK  8 active torsions:
REMARK  status: ('A' for Active; 'I' for Inactive)
REMARK    1  A    between atoms: C_1  and  CA_2
REMARK    2  A    between atoms: C_1  and  C_11
REMARK    3  A    between atoms: CA_2  and  N_3
REMARK    4  A    between atoms: CA_2  and  C_8
REMARK    5  A    between atoms: C_8  and  O_9
REMARK    6  A    between atoms: C_11  and  O_12
REMARK    7  A    between atoms: O_12  and  N_13
REMARK    8  A    between atoms: N_13  and  C_16
REMARK                            x       y       z     vdW  Elec       q    Type
REMARK                         _______ _______ _______ _____ _____    ______ ____
ROOT
ATOM      1  C   UNL     1      37.832 -26.299 -14.111  0.00  0.00    +0.024 C 
ENDROOT
BRANCH   1   2
ATOM      2  CA  UNL     1      38.942 -25.263 -14.340  0.00  0.00    +0.038 C 
BRANCH   2   3
ATOM      3  N   UNL     1      38.621 -24.334 -15.423  0.00  0.00    +0.389 N 
ATOM      4  H1  UNL     1      39.313 -24.427 -16.167  0.00  0.00    -0.088 HD
ATOM      5  H2  UNL     1      38.633 -23.378 -15.067  0.00  0.00    -0.088 HD
ATOM      6  H3  UNL     1      37.694 -24.549 -15.791  0.00  0.00    -0.088 HD
ENDBRANCH   2   3
BRANCH   2   8
ATOM      7  OXT UNL     1      41.002 -26.513 -13.936  0.00  0.00    -0.253 OA
ATOM      8  C   UNL     1      40.236 -25.965 -14.718  0.00  0.00    +0.293 C 
BRANCH   8   9
ATOM      9  O   UNL     1      40.458 -25.932 -16.059  0.00  0.00    -0.482 OA
ATOM     10  H   UNL     1      40.640 -26.725 -16.524  0.00  0.00    +0.295 HD
ENDBRANCH   8   9
ENDBRANCH   2   8
ENDBRANCH   1   2
BRANCH   1  11
ATOM     11  C   UNL     1      37.070 -26.714 -15.368  0.00  0.00    +0.175 C 
BRANCH  11  12
ATOM     12  O   UNL     1      35.727 -26.256 -15.326  0.00  0.00    -0.234 OA
BRANCH  12  13
ATOM     13  N   UNL     1      35.717 -24.902 -15.694  0.00  0.00    -0.096 NA
BRANCH  13  16
ATOM     14  N   UNL     1      33.970 -24.806 -14.147  0.00  0.00    -0.368 N 
ATOM     15  N   UNL     1      35.111 -22.872 -14.577  0.00  0.00    -0.368 N 
ATOM     16  C   UNL     1      34.986 -24.214 -14.857  0.00  0.00    +0.217 C 
ATOM     17  H   UNL     1      33.782 -25.765 -14.265  0.00  0.00    +0.159 HD
ATOM     18  H   UNL     1      33.430 -24.271 -13.523  0.00  0.00    +0.159 HD
ATOM     19  H   UNL     1      35.806 -22.339 -15.025  0.00  0.00    +0.159 HD
ATOM     20  H   UNL     1      34.506 -22.447 -13.928  0.00  0.00    +0.159 HD
ENDBRANCH  13  16
ENDBRANCH  12  13
ENDBRANCH  11  12
ENDBRANCH   1  11
TORSDOF 8
ENDMDL
MODEL 4
REMARK VINA RESULT:      -5.3      2.564      4.813
REMARK  Name = 439202
REMARK  8 active torsions:
REMARK  status: ('A' for Active; 'I' for Inactive)
REMARK    1  A    between atoms: C_1  and  CA_2
REMARK    2  A    between atoms: C_1  and  C_11
REMARK    3  A    between atoms: CA_2  and  N_3
REMARK    4  A    between atoms: CA_2  and  C_8
REMARK    5  A    between atoms: C_8  and  O_9
REMARK    6  A    between atoms: C_11  and  O_12
REMARK    7  A    between atoms: O_12  and  N_13
REMARK    8  A    between atoms: N_13  and  C_16
REMARK                            x       y       z     vdW  Elec       q    Type
REMARK                         _______ _______ _______ _____ _____    ______ ____
ROOT
ATOM      1  C   UNL     1      38.709 -25.297 -12.872  0.00  0.00    +0.024 C 
ENDROOT
BRANCH   1   2
ATOM      2  CA  UNL     1      38.919 -25.228 -14.392  0.00  0.00    +0.038 C 
BRANCH   2   3
ATOM      3  N   UNL     1      37.837 -25.877 -15.132  0.00  0.00    +0.389 N 
ATOM      4  H1  UNL     1      37.035 -25.248 -15.181  0.00  0.00    -0.088 HD
ATOM      5  H2  UNL     1      37.566 -26.736 -14.654  0.00  0.00    -0.088 HD
ATOM      6  H3  UNL     1      38.156 -26.097 -16.076  0.00  0.00    -0.088 HD
ENDBRANCH   2   3
BRANCH   2   8
ATOM      7  OXT UNL     1      40.987 -26.465 -13.984  0.00  0.00    -0.253 OA
ATOM      8  C   UNL     1      40.210 -25.936 -14.769  0.00  0.00    +0.293 C 
BRANCH   8   9
ATOM      9  O   UNL     1      40.417 -25.932 -16.113  0.00  0.00    -0.482 OA
ATOM     10  H   UNL     1      39.862 -26.438 -16.673  0.00  0.00    +0.295 HD
ENDBRANCH   8   9
ENDBRANCH   2   8
ENDBRANCH   1   2
BRANCH   1  11
ATOM     11  C   UNL     1      37.331 -25.786 -12.433  0.00  0.00    +0.175 C 
BRANCH  11  12
ATOM     12  O   UNL     1      36.761 -24.914 -11.469  0.00  0.00    -0.234 OA
BRANCH  12  13
ATOM     13  N   UNL     1      35.366 -24.960 -11.610  0.00  0.00    -0.096 NA
BRANCH  13  16
ATOM     14  N   UNL     1      33.972 -24.793 -13.476  0.00  0.00    -0.368 N 
ATOM     15  N   UNL     1      35.563 -23.175 -13.195  0.00  0.00    -0.368 N 
ATOM     16  C   UNL     1      35.003 -24.329 -12.696  0.00  0.00    +0.217 C 
ATOM     17  H   UNL     1      33.493 -25.614 -13.219  0.00  0.00    +0.159 HD
ATOM     18  H   UNL     1      33.712 -24.305 -14.290  0.00  0.00    +0.159 HD
ATOM     19  H   UNL     1      36.312 -22.747 -12.723  0.00  0.00    +0.159 HD
ATOM     20  H   UNL     1      35.213 -22.779 -14.026  0.00  0.00    +0.159 HD
ENDBRANCH  13  16
ENDBRANCH  12  13
ENDBRANCH  11  12
ENDBRANCH   1  11
TORSDOF 8
ENDMDL
MODEL 5
REMARK VINA RESULT:      -5.3      1.401      1.618
REMARK  Name = 439202
REMARK  8 active torsions:
REMARK  status: ('A' for Active; 'I' for Inactive)
REMARK    1  A    between atoms: C_1  and  CA_2
REMARK    2  A    between atoms: C_1  and  C_11
REMARK    3  A    between atoms: CA_2  and  N_3
REMARK    4  A    between atoms: CA_2  and  C_8
REMARK    5  A    between atoms: C_8  and  O_9
REMARK    6  A    between atoms: C_11  and  O_12
REMARK    7  A    between atoms: O_12  and  N_13
REMARK    8  A    between atoms: N_13  and  C_16
REMARK                            x       y       z     vdW  Elec       q    Type
REMARK                         _______ _______ _______ _____ _____    ______ ____
ROOT
ATOM      1  C   UNL     1      36.210 -23.241 -13.164  0.00  0.00    +0.024 C 
ENDROOT
BRANCH   1   2
ATOM      2  CA  UNL     1      36.606 -23.421 -11.690  0.00  0.00    +0.038 C 
BRANCH   2   3
ATOM      3  N   UNL     1      37.947 -23.986 -11.540  0.00  0.00    +0.389 N 
ATOM      4  H1  UNL     1      38.382 -23.610 -10.698  0.00  0.00    -0.088 HD
ATOM      5  H2  UNL     1      38.513 -23.739 -12.353  0.00  0.00    -0.088 HD
ATOM      6  H3  UNL     1      37.881 -25.001 -11.466  0.00  0.00    -0.088 HD
ENDBRANCH   2   3
BRANCH   2   8
ATOM      7  OXT UNL     1      35.499 -24.495  -9.796  0.00  0.00    -0.253 OA
ATOM      8  C   UNL     1      35.637 -24.371 -11.006  0.00  0.00    +0.293 C 
BRANCH   8   9
ATOM      9  O   UNL     1      34.908 -25.085 -11.904  0.00  0.00    -0.482 OA
ATOM     10  H   UNL     1      34.576 -25.930 -11.672  0.00  0.00    +0.295 HD
ENDBRANCH   8   9
ENDBRANCH   2   8
ENDBRANCH   1   2
BRANCH   1  11
ATOM     11  C   UNL     1      37.363 -23.350 -14.158  0.00  0.00    +0.175 C 
BRANCH  11  12
ATOM     12  O   UNL     1      37.071 -24.293 -15.179  0.00  0.00    -0.234 OA
BRANCH  12  13
ATOM     13  N   UNL     1      37.838 -25.444 -14.940  0.00  0.00    -0.096 NA
BRANCH  13  16
ATOM     14  N   UNL     1      36.170 -27.022 -15.366  0.00  0.00    -0.368 N 
ATOM     15  N   UNL     1      37.049 -26.953 -13.256  0.00  0.00    -0.368 N 
ATOM     16  C   UNL     1      37.071 -26.417 -14.524  0.00  0.00    +0.217 C 
ATOM     17  H   UNL     1      36.094 -26.724 -16.301  0.00  0.00    +0.159 HD
ATOM     18  H   UNL     1      35.601 -27.753 -15.034  0.00  0.00    +0.159 HD
ATOM     19  H   UNL     1      37.651 -26.600 -12.563  0.00  0.00    +0.159 HD
ATOM     20  H   UNL     1      36.429 -27.687 -13.044  0.00  0.00    +0.159 HD
ENDBRANCH  13  16
ENDBRANCH  12  13
ENDBRANCH  11  12
ENDBRANCH   1  11
TORSDOF 8
ENDMDL
MODEL 6
REMARK VINA RESULT:      -5.2      1.711      1.938
REMARK  Name = 439202
REMARK  8 active torsions:
REMARK  status: ('A' for Active; 'I' for Inactive)
REMARK    1  A    between atoms: C_1  and  CA_2
REMARK    2  A    between atoms: C_1  and  C_11
REMARK    3  A    between atoms: CA_2  and  N_3
REMARK    4  A    between atoms: CA_2  and  C_8
REMARK    5  A    between atoms: C_8  and  O_9
REMARK    6  A    between atoms: C_11  and  O_12
REMARK    7  A    between atoms: O_12  and  N_13
REMARK    8  A    between atoms: N_13  and  C_16
REMARK                            x       y       z     vdW  Elec       q    Type
REMARK                         _______ _______ _______ _____ _____    ______ ____
ROOT
ATOM      1  C   UNL     1      36.602 -25.446 -12.884  0.00  0.00    +0.024 C 
ENDROOT
BRANCH   1   2
ATOM      2  CA  UNL     1      35.762 -24.367 -12.185  0.00  0.00    +0.038 C 
BRANCH   2   3
ATOM      3  N   UNL     1      35.473 -23.233 -13.062  0.00  0.00    +0.389 N 
ATOM      4  H1  UNL     1      34.485 -23.242 -13.316  0.00  0.00    -0.088 HD
ATOM      5  H2  UNL     1      36.041 -23.303 -13.907  0.00  0.00    -0.088 HD
ATOM      6  H3  UNL     1      35.692 -22.363 -12.576  0.00  0.00    -0.088 HD
ENDBRANCH   2   3
BRANCH   2   8
ATOM      7  OXT UNL     1      36.236 -24.049  -9.809  0.00  0.00    -0.253 OA
ATOM      8  C   UNL     1      36.514 -23.825 -10.980  0.00  0.00    +0.293 C 
BRANCH   8   9
ATOM      9  O   UNL     1      37.568 -23.049 -11.347  0.00  0.00    -0.482 OA
ATOM     10  H   UNL     1      38.291 -22.933 -10.762  0.00  0.00    +0.295 HD
ENDBRANCH   8   9
ENDBRANCH   2   8
ENDBRANCH   1   2
BRANCH   1  11
ATOM     11  C   UNL     1      37.147 -25.050 -14.254  0.00  0.00    +0.175 C 
BRANCH  11  12
ATOM     12  O   UNL     1      38.224 -24.133 -14.130  0.00  0.00    -0.234 OA
BRANCH  12  13
ATOM     13  N   UNL     1      39.282 -24.788 -13.483  0.00  0.00    -0.096 NA
BRANCH  13  16
ATOM     14  N   UNL     1      40.699 -26.579 -13.967  0.00  0.00    -0.368 N 
ATOM     15  N   UNL     1      40.118 -25.194 -15.690  0.00  0.00    -0.368 N 
ATOM     16  C   UNL     1      39.987 -25.468 -14.347  0.00  0.00    +0.217 C 
ATOM     17  H   UNL     1      40.684 -26.875 -13.028  0.00  0.00    +0.159 HD
ATOM     18  H   UNL     1      41.225 -27.079 -14.632  0.00  0.00    +0.159 HD
ATOM     19  H   UNL     1      39.654 -24.420 -16.081  0.00  0.00    +0.159 HD
ATOM     20  H   UNL     1      40.677 -25.772 -16.258  0.00  0.00    +0.159 HD
ENDBRANCH  13  16
ENDBRANCH  12  13
ENDBRANCH  11  12
ENDBRANCH   1  11
TORSDOF 8
ENDMDL
MODEL 7
REMARK VINA RESULT:      -5.1      2.055      4.415
REMARK  Name = 439202
REMARK  8 active torsions:
REMARK  status: ('A' for Active; 'I' for Inactive)
REMARK    1  A    between atoms: C_1  and  CA_2
REMARK    2  A    between atoms: C_1  and  C_11
REMARK    3  A    between atoms: CA_2  and  N_3
REMARK    4  A    between atoms: CA_2  and  C_8
REMARK    5  A    between atoms: C_8  and  O_9
REMARK    6  A    between atoms: C_11  and  O_12
REMARK    7  A    between atoms: O_12  and  N_13
REMARK    8  A    between atoms: N_13  and  C_16
REMARK                            x       y       z     vdW  Elec       q    Type
REMARK                         _______ _______ _______ _____ _____    ______ ____
ROOT
ATOM      1  C   UNL     1      37.607 -25.368 -15.030  0.00  0.00    +0.024 C 
ENDROOT
BRANCH   1   2
ATOM      2  CA  UNL     1      38.796 -26.080 -14.368  0.00  0.00    +0.038 C 
BRANCH   2   3
ATOM      3  N   UNL     1      38.796 -25.925 -12.913  0.00  0.00    +0.389 N 
ATOM      4  H1  UNL     1      39.742 -25.710 -12.595  0.00  0.00    -0.088 HD
ATOM      5  H2  UNL     1      38.482 -26.792 -12.478  0.00  0.00    -0.088 HD
ATOM      6  H3  UNL     1      38.168 -25.165 -12.652  0.00  0.00    -0.088 HD
ENDBRANCH   2   3
BRANCH   2   8
ATOM      7  OXT UNL     1      40.849 -24.760 -14.254  0.00  0.00    -0.253 OA
ATOM      8  C   UNL     1      40.101 -25.498 -14.883  0.00  0.00    +0.293 C 
BRANCH   8   9
ATOM      9  O   UNL     1      40.370 -25.902 -16.154  0.00  0.00    -0.482 OA
ATOM     10  H   UNL     1      40.300 -25.294 -16.863  0.00  0.00    +0.295 HD
ENDBRANCH   8   9
ENDBRANCH   2   8
ENDBRANCH   1   2
BRANCH   1  11
ATOM     11  C   UNL     1      37.692 -23.843 -15.036  0.00  0.00    +0.175 C 
BRANCH  11  12
ATOM     12  O   UNL     1      37.711 -23.327 -13.713  0.00  0.00    -0.234 OA
BRANCH  12  13
ATOM     13  N   UNL     1      36.385 -23.219 -13.269  0.00  0.00    -0.096 NA
BRANCH  13  16
ATOM     14  N   UNL     1      37.040 -23.122 -11.030  0.00  0.00    -0.368 N 
ATOM     15  N   UNL     1      35.455 -24.667 -11.603  0.00  0.00    -0.368 N 
ATOM     16  C   UNL     1      36.283 -23.659 -12.042  0.00  0.00    +0.217 C 
ATOM     17  H   UNL     1      37.672 -22.392 -11.222  0.00  0.00    +0.159 HD
ATOM     18  H   UNL     1      36.950 -23.467 -10.112  0.00  0.00    +0.159 HD
ATOM     19  H   UNL     1      34.864 -25.130 -12.239  0.00  0.00    +0.159 HD
ATOM     20  H   UNL     1      35.456 -24.925 -10.653  0.00  0.00    +0.159 HD
ENDBRANCH  13  16
ENDBRANCH  12  13
ENDBRANCH  11  12
ENDBRANCH   1  11
TORSDOF 8
ENDMDL
MODEL 8
REMARK VINA RESULT:      -5.0      2.339      4.382
REMARK  Name = 439202
REMARK  8 active torsions:
REMARK  status: ('A' for Active; 'I' for Inactive)
REMARK    1  A    between atoms: C_1  and  CA_2
REMARK    2  A    between atoms: C_1  and  C_11
REMARK    3  A    between atoms: CA_2  and  N_3
REMARK    4  A    between atoms: CA_2  and  C_8
REMARK    5  A    between atoms: C_8  and  O_9
REMARK    6  A    between atoms: C_11  and  O_12
REMARK    7  A    between atoms: O_12  and  N_13
REMARK    8  A    between atoms: N_13  and  C_16
REMARK                            x       y       z     vdW  Elec       q    Type
REMARK                         _______ _______ _______ _____ _____    ______ ____
ROOT
ATOM      1  C   UNL     1      38.367 -25.642 -13.094  0.00  0.00    +0.024 C 
ENDROOT
BRANCH   1   2
ATOM      2  CA  UNL     1      38.322 -26.109 -14.557  0.00  0.00    +0.038 C 
BRANCH   2   3
ATOM      3  N   UNL     1      39.240 -25.354 -15.410  0.00  0.00    +0.389 N 
ATOM      4  H1  UNL     1      39.147 -25.672 -16.375  0.00  0.00    -0.088 HD
ATOM      5  H2  UNL     1      40.198 -25.504 -15.094  0.00  0.00    -0.088 HD
ATOM      6  H3  UNL     1      39.015 -24.361 -15.356  0.00  0.00    -0.088 HD
ENDBRANCH   2   3
BRANCH   2   8
ATOM      7  OXT UNL     1      36.442 -24.848 -15.476  0.00  0.00    -0.253 OA
ATOM      8  C   UNL     1      36.923 -25.916 -15.119  0.00  0.00    +0.293 C 
BRANCH   8   9
ATOM      9  O   UNL     1      36.242 -27.090 -15.200  0.00  0.00    -0.482 OA
ATOM     10  H   UNL     1      36.070 -27.475 -16.037  0.00  0.00    +0.295 HD
ENDBRANCH   8   9
ENDBRANCH   2   8
ENDBRANCH   1   2
BRANCH   1  11
ATOM     11  C   UNL     1      37.168 -26.062 -12.247  0.00  0.00    +0.175 C 
BRANCH  11  12
ATOM     12  O   UNL     1      36.736 -24.998 -11.412  0.00  0.00    -0.234 OA
BRANCH  12  13
ATOM     13  N   UNL     1      35.336 -24.931 -11.482  0.00  0.00    -0.096 NA
BRANCH  13  16
ATOM     14  N   UNL     1      33.935 -24.763 -13.342  0.00  0.00    -0.368 N 
ATOM     15  N   UNL     1      35.532 -23.149 -13.072  0.00  0.00    -0.368 N 
ATOM     16  C   UNL     1      34.970 -24.301 -12.568  0.00  0.00    +0.217 C 
ATOM     17  H   UNL     1      33.454 -25.582 -13.082  0.00  0.00    +0.159 HD
ATOM     18  H   UNL     1      33.673 -24.275 -14.156  0.00  0.00    +0.159 HD
ATOM     19  H   UNL     1      36.284 -22.723 -12.603  0.00  0.00    +0.159 HD
ATOM     20  H   UNL     1      35.181 -22.754 -13.902  0.00  0.00    +0.159 HD
ENDBRANCH  13  16
ENDBRANCH  12  13
ENDBRANCH  11  12
ENDBRANCH   1  11
TORSDOF 8
ENDMDL
MODEL 9
REMARK VINA RESULT:      -5.0      4.189      5.340
REMARK  Name = 439202
REMARK  8 active torsions:
REMARK  status: ('A' for Active; 'I' for Inactive)
REMARK    1  A    between atoms: C_1  and  CA_2
REMARK    2  A    between atoms: C_1  and  C_11
REMARK    3  A    between atoms: CA_2  and  N_3
REMARK    4  A    between atoms: CA_2  and  C_8
REMARK    5  A    between atoms: C_8  and  O_9
REMARK    6  A    between atoms: C_11  and  O_12
REMARK    7  A    between atoms: O_12  and  N_13
REMARK    8  A    between atoms: N_13  and  C_16
REMARK                            x       y       z     vdW  Elec       q    Type
REMARK                         _______ _______ _______ _____ _____    ______ ____
ROOT
ATOM      1  C   UNL     1      35.302 -25.010 -14.890  0.00  0.00    +0.024 C 
ENDROOT
BRANCH   1   2
ATOM      2  CA  UNL     1      36.828 -25.048 -14.718  0.00  0.00    +0.038 C 
BRANCH   2   3
ATOM      3  N   UNL     1      37.507 -24.066 -15.564  0.00  0.00    +0.389 N 
ATOM      4  H1  UNL     1      37.583 -23.180 -15.062  0.00  0.00    -0.088 HD
ATOM      5  H2  UNL     1      36.971 -23.925 -16.420  0.00  0.00    -0.088 HD
ATOM      6  H3  UNL     1      38.440 -24.406 -15.797  0.00  0.00    -0.088 HD
ENDBRANCH   2   3
BRANCH   2   8
ATOM      7  OXT UNL     1      38.297 -26.995 -14.569  0.00  0.00    -0.253 OA
ATOM      8  C   UNL     1      37.359 -26.419 -15.105  0.00  0.00    +0.293 C 
BRANCH   8   9
ATOM      9  O   UNL     1      36.655 -26.963 -16.134  0.00  0.00    -0.482 OA
ATOM     10  H   UNL     1      36.632 -26.532 -16.965  0.00  0.00    +0.295 HD
ENDBRANCH   8   9
ENDBRANCH   2   8
ENDBRANCH   1   2
BRANCH   1  11
ATOM     11  C   UNL     1      34.750 -23.699 -15.446  0.00  0.00    +0.175 C 
BRANCH  11  12
ATOM     12  O   UNL     1      34.452 -23.816 -16.830  0.00  0.00    -0.234 OA
BRANCH  12  13
ATOM     13  N   UNL     1      35.149 -22.808 -17.512  0.00  0.00    -0.096 NA
BRANCH  13  16
ATOM     14  N   UNL     1      33.075 -22.621 -18.568  0.00  0.00    -0.368 N 
ATOM     15  N   UNL     1      34.839 -21.502 -19.495  0.00  0.00    -0.368 N 
ATOM     16  C   UNL     1      34.413 -22.327 -18.479  0.00  0.00    +0.217 C 
ATOM     17  H   UNL     1      32.654 -23.205 -17.895  0.00  0.00    +0.159 HD
ATOM     18  H   UNL     1      32.537 -22.250 -19.303  0.00  0.00    +0.159 HD
ATOM     19  H   UNL     1      35.781 -21.221 -19.539  0.00  0.00    +0.159 HD
ATOM     20  H   UNL     1      34.201 -21.194 -20.179  0.00  0.00    +0.159 HD
ENDBRANCH  13  16
ENDBRANCH  12  13
ENDBRANCH  11  12
ENDBRANCH   1  11
TORSDOF 8
ENDMDL
