MODEL 1
REMARK VINA RESULT:      -8.4      0.000      0.000
REMARK  Name = 9818479
REMARK  1 active torsions:
REMARK  status: ('A' for Active; 'I' for Inactive)
REMARK    1  A    between atoms: C_4  and  N_15
REMARK                            x       y       z     vdW  Elec       q    Type
REMARK                         _______ _______ _______ _____ _____    ______ ____
ROOT
ATOM      1  O   UNL     1      33.613 -15.542 -26.389  0.00  0.00    -0.247 OA
ATOM      2  N   UNL     1      33.806 -15.592 -24.025  0.00  0.00    -0.283 N 
ATOM      3  N   UNL     1      34.724 -17.291 -25.219  0.00  0.00    -0.305 N 
ATOM      4  C   UNL     1      32.724 -14.564 -22.054  0.00  0.00    -0.034 C 
ATOM      5  C   UNL     1      33.196 -14.378 -23.515  0.00  0.00    +0.090 C 
ATOM      6  C   UNL     1      33.835 -15.155 -21.143  0.00  0.00    +0.008 C 
ATOM      7  C   UNL     1      34.417 -16.481 -23.147  0.00  0.00    +0.075 A 
ATOM      8  C   UNL     1      34.465 -16.362 -21.777  0.00  0.00    -0.007 C 
ATOM      9  C   UNL     1      34.977 -17.522 -23.864  0.00  0.00    +0.076 A 
ATOM     10  C   UNL     1      33.989 -16.062 -25.349  0.00  0.00    +0.328 A 
ATOM     11  C   UNL     1      35.151 -17.372 -21.104  0.00  0.00    -0.003 C 
ATOM     12  C   UNL     1      35.647 -18.535 -23.222  0.00  0.00    +0.019 C 
ATOM     13  C   UNL     1      35.731 -18.449 -21.822  0.00  0.00    +0.001 C 
ATOM     14  H   UNL     1      35.003 -17.873 -25.963  0.00  0.00    +0.170 HD
ENDROOT
BRANCH   4  15
ATOM     15  N   UNL     1      32.248 -13.299 -21.501  0.00  0.00    +0.385 N 
ATOM     16  C   UNL     1      32.186 -12.275 -22.533  0.00  0.00    -0.105 C 
ATOM     17  H   UNL     1      32.884 -12.994 -20.765  0.00  0.00    -0.084 HD
ATOM     18  H   UNL     1      31.310 -13.440 -21.123  0.00  0.00    -0.084 HD
ENDBRANCH   4  15
TORSDOF 1
ENDMDL
MODEL 2
REMARK VINA RESULT:      -8.2      1.349      4.115
REMARK  Name = 9818479
REMARK  1 active torsions:
REMARK  status: ('A' for Active; 'I' for Inactive)
REMARK    1  A    between atoms: C_4  and  N_15
REMARK                            x       y       z     vdW  Elec       q    Type
REMARK                         _______ _______ _______ _____ _____    ______ ____
ROOT
ATOM      1  O   UNL     1      33.585 -15.286 -26.608  0.00  0.00    -0.247 OA
ATOM      2  N   UNL     1      33.945 -15.699 -24.300  0.00  0.00    -0.283 N 
ATOM      3  N   UNL     1      32.696 -13.898 -24.892  0.00  0.00    -0.305 N 
ATOM      4  C   UNL     1      35.503 -16.975 -22.866  0.00  0.00    -0.034 C 
ATOM      5  C   UNL     1      34.713 -16.927 -24.195  0.00  0.00    +0.090 C 
ATOM      6  C   UNL     1      34.609 -16.671 -21.633  0.00  0.00    +0.008 C 
ATOM      7  C   UNL     1      33.514 -15.051 -23.147  0.00  0.00    +0.075 A 
ATOM      8  C   UNL     1      33.793 -15.429 -21.854  0.00  0.00    -0.007 C 
ATOM      9  C   UNL     1      32.755 -13.950 -23.497  0.00  0.00    +0.076 A 
ATOM     10  C   UNL     1      33.437 -15.008 -25.428  0.00  0.00    +0.328 A 
ATOM     11  C   UNL     1      33.235 -14.632 -20.855  0.00  0.00    -0.003 C 
ATOM     12  C   UNL     1      32.207 -13.142 -22.531  0.00  0.00    +0.019 C 
ATOM     13  C   UNL     1      32.455 -13.496 -21.194  0.00  0.00    +0.001 C 
ATOM     14  H   UNL     1      32.224 -13.215 -25.422  0.00  0.00    +0.170 HD
ENDROOT
BRANCH   4  15
ATOM     15  N   UNL     1      36.153 -18.273 -22.701  0.00  0.00    +0.385 N 
ATOM     16  C   UNL     1      36.154 -18.676 -21.303  0.00  0.00    -0.105 C 
ATOM     17  H   UNL     1      37.117 -18.210 -23.032  0.00  0.00    -0.084 HD
ATOM     18  H   UNL     1      35.638 -18.968 -23.243  0.00  0.00    -0.084 HD
ENDBRANCH   4  15
TORSDOF 1
ENDMDL
MODEL 3
REMARK VINA RESULT:      -8.1      1.614      4.071
REMARK  Name = 9818479
REMARK  1 active torsions:
REMARK  status: ('A' for Active; 'I' for Inactive)
REMARK    1  A    between atoms: C_4  and  N_15
REMARK                            x       y       z     vdW  Elec       q    Type
REMARK                         _______ _______ _______ _____ _____    ______ ____
ROOT
ATOM      1  O   UNL     1      34.590 -16.663 -25.908  0.00  0.00    -0.247 OA
ATOM      2  N   UNL     1      34.311 -16.377 -23.570  0.00  0.00    -0.283 N 
ATOM      3  N   UNL     1      33.443 -14.806 -24.960  0.00  0.00    -0.305 N 
ATOM      4  C   UNL     1      35.318 -17.203 -21.468  0.00  0.00    -0.034 C 
ATOM      5  C   UNL     1      34.899 -17.534 -22.920  0.00  0.00    +0.090 C 
ATOM      6  C   UNL     1      34.177 -16.525 -20.662  0.00  0.00    +0.008 C 
ATOM      7  C   UNL     1      33.671 -15.406 -22.808  0.00  0.00    +0.075 A 
ATOM      8  C   UNL     1      33.574 -15.387 -21.435  0.00  0.00    -0.007 C 
ATOM      9  C   UNL     1      33.141 -14.442 -23.645  0.00  0.00    +0.076 A 
ATOM     10  C   UNL     1      34.178 -16.041 -24.940  0.00  0.00    +0.328 A 
ATOM     11  C   UNL     1      32.866 -14.316 -20.891  0.00  0.00    -0.003 C 
ATOM     12  C   UNL     1      32.452 -13.370 -23.132  0.00  0.00    +0.019 C 
ATOM     13  C   UNL     1      32.317 -13.316 -21.734  0.00  0.00    +0.001 C 
ATOM     14  H   UNL     1      33.192 -14.302 -25.768  0.00  0.00    +0.170 HD
ENDROOT
BRANCH   4  15
ATOM     15  N   UNL     1      35.770 -18.407 -20.775  0.00  0.00    +0.385 N 
ATOM     16  C   UNL     1      34.919 -19.541 -21.101  0.00  0.00    -0.105 C 
ATOM     17  H   UNL     1      35.742 -18.244 -19.768  0.00  0.00    -0.084 HD
ATOM     18  H   UNL     1      36.724 -18.616 -21.073  0.00  0.00    -0.084 HD
ENDBRANCH   4  15
TORSDOF 1
ENDMDL
MODEL 4
REMARK VINA RESULT:      -8.0      2.381      3.265
REMARK  Name = 9818479
REMARK  1 active torsions:
REMARK  status: ('A' for Active; 'I' for Inactive)
REMARK    1  A    between atoms: C_4  and  N_15
REMARK                            x       y       z     vdW  Elec       q    Type
REMARK                         _______ _______ _______ _____ _____    ______ ____
ROOT
ATOM      1  O   UNL     1      34.819 -15.378 -19.928  0.00  0.00    -0.247 OA
ATOM      2  N   UNL     1      34.410 -15.693 -22.243  0.00  0.00    -0.283 N 
ATOM      3  N   UNL     1      35.198 -17.448 -21.038  0.00  0.00    -0.305 N 
ATOM      4  C   UNL     1      34.117 -14.319 -24.278  0.00  0.00    -0.034 C 
ATOM      5  C   UNL     1      33.861 -14.452 -22.758  0.00  0.00    +0.090 C 
ATOM      6  C   UNL     1      33.685 -15.587 -25.065  0.00  0.00    +0.008 C 
ATOM      7  C   UNL     1      34.533 -16.796 -23.081  0.00  0.00    +0.075 A 
ATOM      8  C   UNL     1      34.231 -16.831 -24.424  0.00  0.00    -0.007 C 
ATOM      9  C   UNL     1      35.016 -17.870 -22.358  0.00  0.00    +0.076 A 
ATOM     10  C   UNL     1      34.809 -16.068 -20.936  0.00  0.00    +0.328 A 
ATOM     11  C   UNL     1      34.420 -18.059 -25.056  0.00  0.00    -0.003 C 
ATOM     12  C   UNL     1      35.224 -19.086 -22.963  0.00  0.00    +0.019 C 
ATOM     13  C   UNL     1      34.917 -19.172 -24.332  0.00  0.00    +0.001 C 
ATOM     14  H   UNL     1      35.537 -18.004 -20.299  0.00  0.00    +0.170 HD
ENDROOT
BRANCH   4  15
ATOM     15  N   UNL     1      33.436 -13.144 -24.815  0.00  0.00    +0.385 N 
ATOM     16  C   UNL     1      33.766 -11.957 -24.041  0.00  0.00    -0.105 C 
ATOM     17  H   UNL     1      32.428 -13.296 -24.781  0.00  0.00    -0.084 HD
ATOM     18  H   UNL     1      33.740 -13.002 -25.779  0.00  0.00    -0.084 HD
ENDBRANCH   4  15
TORSDOF 1
ENDMDL
MODEL 5
REMARK VINA RESULT:      -7.9      2.556      4.900
REMARK  Name = 9818479
REMARK  1 active torsions:
REMARK  status: ('A' for Active; 'I' for Inactive)
REMARK    1  A    between atoms: C_4  and  N_15
REMARK                            x       y       z     vdW  Elec       q    Type
REMARK                         _______ _______ _______ _____ _____    ______ ____
ROOT
ATOM      1  O   UNL     1      34.880 -14.775 -20.233  0.00  0.00    -0.247 OA
ATOM      2  N   UNL     1      34.877 -16.643 -21.694  0.00  0.00    -0.283 N 
ATOM      3  N   UNL     1      34.272 -14.620 -22.528  0.00  0.00    -0.305 N 
ATOM      4  C   UNL     1      34.842 -19.111 -21.549  0.00  0.00    -0.034 C 
ATOM      5  C   UNL     1      35.354 -17.786 -20.937  0.00  0.00    +0.090 C 
ATOM      6  C   UNL     1      35.106 -19.199 -23.077  0.00  0.00    +0.008 C 
ATOM      7  C   UNL     1      34.588 -16.782 -23.048  0.00  0.00    +0.075 A 
ATOM      8  C   UNL     1      34.654 -17.949 -23.774  0.00  0.00    -0.007 C 
ATOM      9  C   UNL     1      34.215 -15.555 -23.565  0.00  0.00    +0.076 A 
ATOM     10  C   UNL     1      34.702 -15.286 -21.329  0.00  0.00    +0.328 A 
ATOM     11  C   UNL     1      34.333 -17.840 -25.127  0.00  0.00    -0.003 C 
ATOM     12  C   UNL     1      33.882 -15.426 -24.892  0.00  0.00    +0.019 C 
ATOM     13  C   UNL     1      33.946 -16.591 -25.676  0.00  0.00    +0.001 C 
ATOM     14  H   UNL     1      34.055 -13.663 -22.605  0.00  0.00    +0.170 HD
ENDROOT
BRANCH   4  15
ATOM     15  N   UNL     1      35.445 -20.257 -20.872  0.00  0.00    +0.385 N 
ATOM     16  C   UNL     1      34.485 -20.896 -19.985  0.00  0.00    -0.105 C 
ATOM     17  H   UNL     1      36.247 -19.941 -20.327  0.00  0.00    -0.084 HD
ATOM     18  H   UNL     1      35.741 -20.934 -21.577  0.00  0.00    -0.084 HD
ENDBRANCH   4  15
TORSDOF 1
ENDMDL
MODEL 6
REMARK VINA RESULT:      -7.7      2.256      4.587
REMARK  Name = 9818479
REMARK  1 active torsions:
REMARK  status: ('A' for Active; 'I' for Inactive)
REMARK    1  A    between atoms: C_4  and  N_15
REMARK                            x       y       z     vdW  Elec       q    Type
REMARK                         _______ _______ _______ _____ _____    ______ ____
ROOT
ATOM      1  O   UNL     1      32.332 -13.183 -20.690  0.00  0.00    -0.247 OA
ATOM      2  N   UNL     1      33.492 -14.842 -21.926  0.00  0.00    -0.283 N 
ATOM      3  N   UNL     1      32.197 -13.361 -23.059  0.00  0.00    -0.305 N 
ATOM      4  C   UNL     1      34.579 -17.027 -21.531  0.00  0.00    -0.034 C 
ATOM      5  C   UNL     1      34.282 -15.612 -20.982  0.00  0.00    +0.090 C 
ATOM      6  C   UNL     1      35.155 -16.995 -22.973  0.00  0.00    +0.008 C 
ATOM      7  C   UNL     1      33.578 -15.116 -23.287  0.00  0.00    +0.075 A 
ATOM      8  C   UNL     1      34.323 -16.119 -23.865  0.00  0.00    -0.007 C 
ATOM      9  C   UNL     1      32.791 -14.221 -23.986  0.00  0.00    +0.076 A 
ATOM     10  C   UNL     1      32.636 -13.728 -21.740  0.00  0.00    +0.328 A 
ATOM     11  C   UNL     1      34.268 -16.190 -25.256  0.00  0.00    -0.003 C 
ATOM     12  C   UNL     1      32.709 -14.281 -25.356  0.00  0.00    +0.019 C 
ATOM     13  C   UNL     1      33.463 -15.282 -25.992  0.00  0.00    +0.001 C 
ATOM     14  H   UNL     1      31.580 -12.623 -23.272  0.00  0.00    +0.170 HD
ENDROOT
BRANCH   4  15
ATOM     15  N   UNL     1      35.496 -17.740 -20.645  0.00  0.00    +0.385 N 
ATOM     16  C   UNL     1      36.255 -18.739 -21.382  0.00  0.00    -0.105 C 
ATOM     17  H   UNL     1      34.960 -18.203 -19.910  0.00  0.00    -0.084 HD
ATOM     18  H   UNL     1      36.147 -17.068 -20.238  0.00  0.00    -0.084 HD
ENDBRANCH   4  15
TORSDOF 1
ENDMDL
MODEL 7
REMARK VINA RESULT:      -7.6      8.034      9.973
REMARK  Name = 9818479
REMARK  1 active torsions:
REMARK  status: ('A' for Active; 'I' for Inactive)
REMARK    1  A    between atoms: C_4  and  N_15
REMARK                            x       y       z     vdW  Elec       q    Type
REMARK                         _______ _______ _______ _____ _____    ______ ____
ROOT
ATOM      1  O   UNL     1      31.956 -23.671 -16.442  0.00  0.00    -0.247 OA
ATOM      2  N   UNL     1      34.218 -23.005 -16.701  0.00  0.00    -0.283 N 
ATOM      3  N   UNL     1      32.768 -22.585 -18.397  0.00  0.00    -0.305 N 
ATOM      4  C   UNL     1      36.426 -23.513 -15.711  0.00  0.00    -0.034 C 
ATOM      5  C   UNL     1      34.909 -23.330 -15.467  0.00  0.00    +0.090 C 
ATOM      6  C   UNL     1      37.046 -22.327 -16.500  0.00  0.00    +0.008 C 
ATOM      7  C   UNL     1      34.897 -22.349 -17.723  0.00  0.00    +0.075 A 
ATOM      8  C   UNL     1      36.230 -22.006 -17.719  0.00  0.00    -0.007 C 
ATOM      9  C   UNL     1      34.023 -22.092 -18.763  0.00  0.00    +0.076 A 
ATOM     10  C   UNL     1      32.863 -23.161 -17.083  0.00  0.00    +0.328 A 
ATOM     11  C   UNL     1      36.687 -21.336 -18.853  0.00  0.00    -0.003 C 
ATOM     12  C   UNL     1      34.454 -21.445 -19.896  0.00  0.00    +0.019 C 
ATOM     13  C   UNL     1      35.807 -21.065 -19.932  0.00  0.00    +0.001 C 
ATOM     14  H   UNL     1      31.952 -22.544 -18.947  0.00  0.00    +0.170 HD
ENDROOT
BRANCH   4  15
ATOM     15  N   UNL     1      37.133 -23.693 -14.446  0.00  0.00    +0.385 N 
ATOM     16  C   UNL     1      38.239 -24.626 -14.600  0.00  0.00    -0.105 C 
ATOM     17  H   UNL     1      36.484 -24.057 -13.748  0.00  0.00    -0.084 HD
ATOM     18  H   UNL     1      37.505 -22.791 -14.148  0.00  0.00    -0.084 HD
ENDBRANCH   4  15
TORSDOF 1
ENDMDL
MODEL 8
REMARK VINA RESULT:      -7.5      2.153      3.270
REMARK  Name = 9818479
REMARK  1 active torsions:
REMARK  status: ('A' for Active; 'I' for Inactive)
REMARK    1  A    between atoms: C_4  and  N_15
REMARK                            x       y       z     vdW  Elec       q    Type
REMARK                         _______ _______ _______ _____ _____    ______ ____
ROOT
ATOM      1  O   UNL     1      34.936 -19.354 -24.621  0.00  0.00    -0.247 OA
ATOM      2  N   UNL     1      34.439 -17.066 -24.237  0.00  0.00    -0.283 N 
ATOM      3  N   UNL     1      34.997 -18.362 -22.459  0.00  0.00    -0.305 N 
ATOM      4  C   UNL     1      33.284 -15.203 -25.381  0.00  0.00    -0.034 C 
ATOM      5  C   UNL     1      34.176 -16.458 -25.529  0.00  0.00    +0.090 C 
ATOM      6  C   UNL     1      33.821 -14.218 -24.305  0.00  0.00    +0.008 C 
ATOM      7  C   UNL     1      34.433 -16.282 -23.089  0.00  0.00    +0.075 A 
ATOM      8  C   UNL     1      34.139 -14.939 -23.027  0.00  0.00    -0.007 C 
ATOM      9  C   UNL     1      34.770 -17.063 -21.998  0.00  0.00    +0.076 A 
ATOM     10  C   UNL     1      34.804 -18.389 -23.883  0.00  0.00    +0.328 A 
ATOM     11  C   UNL     1      34.215 -14.359 -21.761  0.00  0.00    -0.003 C 
ATOM     12  C   UNL     1      34.838 -16.516 -20.740  0.00  0.00    +0.019 C 
ATOM     13  C   UNL     1      34.556 -15.144 -20.630  0.00  0.00    +0.001 C 
ATOM     14  H   UNL     1      35.250 -19.133 -21.901  0.00  0.00    +0.170 HD
ENDROOT
BRANCH   4  15
ATOM     15  N   UNL     1      33.147 -14.515 -26.662  0.00  0.00    +0.385 N 
ATOM     16  C   UNL     1      33.372 -13.086 -26.507  0.00  0.00    -0.105 C 
ATOM     17  H   UNL     1      32.207 -14.669 -27.026  0.00  0.00    -0.084 HD
ATOM     18  H   UNL     1      33.843 -14.888 -27.309  0.00  0.00    -0.084 HD
ENDBRANCH   4  15
TORSDOF 1
ENDMDL
MODEL 9
REMARK VINA RESULT:      -7.4     10.024     11.567
REMARK  Name = 9818479
REMARK  1 active torsions:
REMARK  status: ('A' for Active; 'I' for Inactive)
REMARK    1  A    between atoms: C_4  and  N_15
REMARK                            x       y       z     vdW  Elec       q    Type
REMARK                         _______ _______ _______ _____ _____    ______ ____
ROOT
ATOM      1  O   UNL     1      34.577 -22.939 -18.304  0.00  0.00    -0.247 OA
ATOM      2  N   UNL     1      33.587 -23.542 -16.235  0.00  0.00    -0.283 N 
ATOM      3  N   UNL     1      32.267 -22.619 -17.834  0.00  0.00    -0.305 N 
ATOM      4  C   UNL     1      34.291 -24.036 -13.917  0.00  0.00    -0.034 C 
ATOM      5  C   UNL     1      34.621 -24.157 -15.423  0.00  0.00    +0.090 C 
ATOM      6  C   UNL     1      32.849 -24.511 -13.586  0.00  0.00    +0.008 C 
ATOM      7  C   UNL     1      32.283 -23.471 -15.757  0.00  0.00    +0.075 A 
ATOM      8  C   UNL     1      31.850 -23.888 -14.519  0.00  0.00    -0.007 C 
ATOM      9  C   UNL     1      31.470 -22.907 -16.723  0.00  0.00    +0.076 A 
ATOM     10  C   UNL     1      33.617 -23.024 -17.553  0.00  0.00    +0.328 A 
ATOM     11  C   UNL     1      30.488 -23.731 -14.268  0.00  0.00    -0.003 C 
ATOM     12  C   UNL     1      30.128 -22.729 -16.493  0.00  0.00    +0.019 C 
ATOM     13  C   UNL     1      29.638 -23.152 -15.245  0.00  0.00    +0.001 C 
ATOM     14  H   UNL     1      31.955 -22.207 -18.673  0.00  0.00    +0.170 HD
ENDROOT
BRANCH   4  15
ATOM     15  N   UNL     1      35.257 -24.783 -13.116  0.00  0.00    +0.385 N 
ATOM     16  C   UNL     1      35.570 -24.070 -11.887  0.00  0.00    -0.105 C 
ATOM     17  H   UNL     1      36.113 -24.911 -13.656  0.00  0.00    -0.084 HD
ATOM     18  H   UNL     1      34.852 -25.689 -12.876  0.00  0.00    -0.084 HD
ENDBRANCH   4  15
TORSDOF 1
ENDMDL
