MODEL 1
REMARK VINA RESULT:      -6.1      0.000      0.000
REMARK  Name = 5634
REMARK  10 active torsions:
REMARK  status: ('A' for Active; 'I' for Inactive)
REMARK    1  A    between atoms: C_1  and  C_2
REMARK    2  A    between atoms: C_1  and  C_8
REMARK    3  A    between atoms: C_2  and  C_3
REMARK    4  A    between atoms: C_3  and  C_4
REMARK    5  A    between atoms: C_4  and  C_5
REMARK    6  A    between atoms: C_5  and  C_6
REMARK    7  A    between atoms: C_8  and  C_9
REMARK    8  A    between atoms: C_9  and  C_10
REMARK    9  A    between atoms: C_10  and  C_12
REMARK   10  A    between atoms: C_12  and  O_13
REMARK                            x       y       z     vdW  Elec       q    Type
REMARK                         _______ _______ _______ _____ _____    ______ ____
ROOT
ATOM      1  C   UNL     1      34.593 -19.313 -21.378  0.00  0.00    +0.000 C 
ENDROOT
BRANCH   1   2
ATOM      2  C   UNL     1      34.638 -19.271 -22.907  0.00  0.00    +0.000 C 
BRANCH   2   3
ATOM      3  C   UNL     1      35.519 -18.143 -23.457  0.00  0.00    +0.000 C 
BRANCH   3   4
ATOM      4  C   UNL     1      34.718 -16.970 -24.028  0.00  0.00    +0.005 C 
BRANCH   4   5
ATOM      5  C   UNL     1      34.848 -15.728 -23.139  0.00  0.00    +0.026 C 
BRANCH   5   6
ATOM      6  C   UNL     1      34.029 -15.714 -21.877  0.00  0.00    -0.026 C 
ATOM      7  C   UNL     1      34.450 -15.442 -20.636  0.00  0.00    -0.005 C 
ENDBRANCH   5   6
ENDBRANCH   4   5
ENDBRANCH   3   4
ENDBRANCH   2   3
ENDBRANCH   1   2
BRANCH   1   8
ATOM      8  C   UNL     1      33.190 -19.575 -20.822  0.00  0.00    +0.001 C 
BRANCH   8   9
ATOM      9  C   UNL     1      33.122 -20.797 -19.898  0.00  0.00    +0.012 C 
BRANCH   9  10
ATOM     10  C   UNL     1      34.503 -21.365 -19.584  0.00  0.00    +0.109 C 
BRANCH  10  12
ATOM     11  O   UNL     1      34.813 -22.752 -17.631  0.00  0.00    -0.250 OA
ATOM     12  C   UNL     1      34.431 -22.644 -18.789  0.00  0.00    +0.314 C 
BRANCH  12  13
ATOM     13  O   UNL     1      33.899 -23.671 -19.497  0.00  0.00    -0.480 OA
ATOM     14  H   UNL     1      33.120 -24.095 -19.195  0.00  0.00    +0.295 HD
ENDBRANCH  12  13
ENDBRANCH  10  12
ENDBRANCH   9  10
ENDBRANCH   8   9
ENDBRANCH   1   8
TORSDOF 10
ENDMDL
MODEL 2
REMARK VINA RESULT:      -6.0      4.072      6.519
REMARK  Name = 5634
REMARK  10 active torsions:
REMARK  status: ('A' for Active; 'I' for Inactive)
REMARK    1  A    between atoms: C_1  and  C_2
REMARK    2  A    between atoms: C_1  and  C_8
REMARK    3  A    between atoms: C_2  and  C_3
REMARK    4  A    between atoms: C_3  and  C_4
REMARK    5  A    between atoms: C_4  and  C_5
REMARK    6  A    between atoms: C_5  and  C_6
REMARK    7  A    between atoms: C_8  and  C_9
REMARK    8  A    between atoms: C_9  and  C_10
REMARK    9  A    between atoms: C_10  and  C_12
REMARK   10  A    between atoms: C_12  and  O_13
REMARK                            x       y       z     vdW  Elec       q    Type
REMARK                         _______ _______ _______ _____ _____    ______ ____
ROOT
ATOM      1  C   UNL     1      34.888 -16.891 -21.090  0.00  0.00    +0.000 C 
ENDROOT
BRANCH   1   2
ATOM      2  C   UNL     1      35.563 -17.856 -22.067  0.00  0.00    +0.000 C 
BRANCH   2   3
ATOM      3  C   UNL     1      34.832 -19.197 -22.199  0.00  0.00    +0.000 C 
BRANCH   3   4
ATOM      4  C   UNL     1      33.766 -19.417 -21.122  0.00  0.00    +0.005 C 
BRANCH   4   5
ATOM      5  C   UNL     1      34.178 -20.535 -20.158  0.00  0.00    +0.026 C 
BRANCH   5   6
ATOM      6  C   UNL     1      35.633 -20.917 -20.150  0.00  0.00    -0.026 C 
ATOM      7  C   UNL     1      36.349 -21.375 -19.116  0.00  0.00    -0.005 C 
ENDBRANCH   5   6
ENDBRANCH   4   5
ENDBRANCH   3   4
ENDBRANCH   2   3
ENDBRANCH   1   2
BRANCH   1   8
ATOM      8  C   UNL     1      34.351 -15.625 -21.764  0.00  0.00    +0.001 C 
BRANCH   8   9
ATOM      9  C   UNL     1      34.812 -15.468 -23.218  0.00  0.00    +0.012 C 
BRANCH   9  10
ATOM     10  C   UNL     1      33.642 -15.348 -24.189  0.00  0.00    +0.109 C 
BRANCH  10  12
ATOM     11  O   UNL     1      34.313 -17.242 -25.529  0.00  0.00    -0.250 OA
ATOM     12  C   UNL     1      33.882 -16.098 -25.475  0.00  0.00    +0.314 C 
BRANCH  12  13
ATOM     13  O   UNL     1      33.572 -15.365 -26.573  0.00  0.00    -0.480 OA
ATOM     14  H   UNL     1      34.037 -14.572 -26.753  0.00  0.00    +0.295 HD
ENDBRANCH  12  13
ENDBRANCH  10  12
ENDBRANCH   9  10
ENDBRANCH   8   9
ENDBRANCH   1   8
TORSDOF 10
ENDMDL
MODEL 3
REMARK VINA RESULT:      -6.0      4.132      6.200
REMARK  Name = 5634
REMARK  10 active torsions:
REMARK  status: ('A' for Active; 'I' for Inactive)
REMARK    1  A    between atoms: C_1  and  C_2
REMARK    2  A    between atoms: C_1  and  C_8
REMARK    3  A    between atoms: C_2  and  C_3
REMARK    4  A    between atoms: C_3  and  C_4
REMARK    5  A    between atoms: C_4  and  C_5
REMARK    6  A    between atoms: C_5  and  C_6
REMARK    7  A    between atoms: C_8  and  C_9
REMARK    8  A    between atoms: C_9  and  C_10
REMARK    9  A    between atoms: C_10  and  C_12
REMARK   10  A    between atoms: C_12  and  O_13
REMARK                            x       y       z     vdW  Elec       q    Type
REMARK                         _______ _______ _______ _____ _____    ______ ____
ROOT
ATOM      1  C   UNL     1      32.907 -23.307 -16.443  0.00  0.00    +0.000 C 
ENDROOT
BRANCH   1   2
ATOM      2  C   UNL     1      32.856 -22.669 -17.832  0.00  0.00    +0.000 C 
BRANCH   2   3
ATOM      3  C   UNL     1      34.190 -22.745 -18.584  0.00  0.00    +0.000 C 
BRANCH   3   4
ATOM      4  C   UNL     1      34.427 -21.560 -19.524  0.00  0.00    +0.005 C 
BRANCH   4   5
ATOM      5  C   UNL     1      33.113 -20.838 -19.845  0.00  0.00    +0.026 C 
BRANCH   5   6
ATOM      6  C   UNL     1      33.196 -19.681 -20.803  0.00  0.00    -0.026 C 
ATOM      7  C   UNL     1      34.257 -19.293 -21.521  0.00  0.00    -0.005 C 
ENDBRANCH   5   6
ENDBRANCH   4   5
ENDBRANCH   3   4
ENDBRANCH   2   3
ENDBRANCH   1   2
BRANCH   1   8
ATOM      8  C   UNL     1      31.559 -23.282 -15.715  0.00  0.00    +0.001 C 
BRANCH   8   9
ATOM      9  C   UNL     1      30.433 -22.655 -16.546  0.00  0.00    +0.012 C 
BRANCH   9  10
ATOM     10  C   UNL     1      29.054 -22.915 -15.945  0.00  0.00    +0.109 C 
BRANCH  10  12
ATOM     11  O   UNL     1      27.383 -21.650 -17.145  0.00  0.00    -0.250 OA
ATOM     12  C   UNL     1      27.944 -22.719 -16.947  0.00  0.00    +0.314 C 
BRANCH  12  13
ATOM     13  O   UNL     1      27.629 -23.861 -17.607  0.00  0.00    -0.480 OA
ATOM     14  H   UNL     1      27.064 -23.829 -18.354  0.00  0.00    +0.295 HD
ENDBRANCH  12  13
ENDBRANCH  10  12
ENDBRANCH   9  10
ENDBRANCH   8   9
ENDBRANCH   1   8
TORSDOF 10
ENDMDL
MODEL 4
REMARK VINA RESULT:      -6.0      3.842      6.398
REMARK  Name = 5634
REMARK  10 active torsions:
REMARK  status: ('A' for Active; 'I' for Inactive)
REMARK    1  A    between atoms: C_1  and  C_2
REMARK    2  A    between atoms: C_1  and  C_8
REMARK    3  A    between atoms: C_2  and  C_3
REMARK    4  A    between atoms: C_3  and  C_4
REMARK    5  A    between atoms: C_4  and  C_5
REMARK    6  A    between atoms: C_5  and  C_6
REMARK    7  A    between atoms: C_8  and  C_9
REMARK    8  A    between atoms: C_9  and  C_10
REMARK    9  A    between atoms: C_10  and  C_12
REMARK   10  A    between atoms: C_12  and  O_13
REMARK                            x       y       z     vdW  Elec       q    Type
REMARK                         _______ _______ _______ _____ _____    ______ ____
ROOT
ATOM      1  C   UNL     1      33.840 -19.735 -21.501  0.00  0.00    +0.000 C 
ENDROOT
BRANCH   1   2
ATOM      2  C   UNL     1      32.698 -19.802 -20.484  0.00  0.00    +0.000 C 
BRANCH   2   3
ATOM      3  C   UNL     1      32.830 -20.967 -19.498  0.00  0.00    +0.000 C 
BRANCH   3   4
ATOM      4  C   UNL     1      33.983 -21.918 -19.831  0.00  0.00    +0.005 C 
BRANCH   4   5
ATOM      5  C   UNL     1      34.942 -22.061 -18.644  0.00  0.00    +0.026 C 
BRANCH   5   6
ATOM      6  C   UNL     1      36.349 -21.572 -18.851  0.00  0.00    -0.026 C 
ATOM      7  C   UNL     1      36.791 -20.741 -19.803  0.00  0.00    -0.005 C 
ENDBRANCH   5   6
ENDBRANCH   4   5
ENDBRANCH   3   4
ENDBRANCH   2   3
ENDBRANCH   1   2
BRANCH   1   8
ATOM      8  C   UNL     1      34.558 -18.382 -21.516  0.00  0.00    +0.001 C 
BRANCH   8   9
ATOM      9  C   UNL     1      35.631 -18.277 -22.605  0.00  0.00    +0.012 C 
BRANCH   9  10
ATOM     10  C   UNL     1      35.035 -18.287 -24.010  0.00  0.00    +0.109 C 
BRANCH  10  12
ATOM     11  O   UNL     1      34.705 -16.703 -25.804  0.00  0.00    -0.250 OA
ATOM     12  C   UNL     1      35.044 -16.921 -24.648  0.00  0.00    +0.314 C 
BRANCH  12  13
ATOM     13  O   UNL     1      35.473 -15.952 -23.802  0.00  0.00    -0.480 OA
ATOM     14  H   UNL     1      34.917 -15.657 -23.107  0.00  0.00    +0.295 HD
ENDBRANCH  12  13
ENDBRANCH  10  12
ENDBRANCH   9  10
ENDBRANCH   8   9
ENDBRANCH   1   8
TORSDOF 10
ENDMDL
MODEL 5
REMARK VINA RESULT:      -5.9      1.576      2.497
REMARK  Name = 5634
REMARK  10 active torsions:
REMARK  status: ('A' for Active; 'I' for Inactive)
REMARK    1  A    between atoms: C_1  and  C_2
REMARK    2  A    between atoms: C_1  and  C_8
REMARK    3  A    between atoms: C_2  and  C_3
REMARK    4  A    between atoms: C_3  and  C_4
REMARK    5  A    between atoms: C_4  and  C_5
REMARK    6  A    between atoms: C_5  and  C_6
REMARK    7  A    between atoms: C_8  and  C_9
REMARK    8  A    between atoms: C_9  and  C_10
REMARK    9  A    between atoms: C_10  and  C_12
REMARK   10  A    between atoms: C_12  and  O_13
REMARK                            x       y       z     vdW  Elec       q    Type
REMARK                         _______ _______ _______ _____ _____    ______ ____
ROOT
ATOM      1  C   UNL     1      34.637 -18.890 -23.704  0.00  0.00    +0.000 C 
ENDROOT
BRANCH   1   2
ATOM      2  C   UNL     1      34.516 -17.873 -24.840  0.00  0.00    +0.000 C 
BRANCH   2   3
ATOM      3  C   UNL     1      34.949 -16.459 -24.438  0.00  0.00    +0.000 C 
BRANCH   3   4
ATOM      4  C   UNL     1      33.867 -15.684 -23.680  0.00  0.00    +0.005 C 
BRANCH   4   5
ATOM      5  C   UNL     1      34.467 -14.901 -22.507  0.00  0.00    +0.026 C 
BRANCH   5   6
ATOM      6  C   UNL     1      33.900 -15.188 -21.144  0.00  0.00    -0.026 C 
ATOM      7  C   UNL     1      32.661 -15.601 -20.848  0.00  0.00    -0.005 C 
ENDBRANCH   5   6
ENDBRANCH   4   5
ENDBRANCH   3   4
ENDBRANCH   2   3
ENDBRANCH   1   2
BRANCH   1   8
ATOM      8  C   UNL     1      35.727 -18.536 -22.687  0.00  0.00    +0.001 C 
BRANCH   8   9
ATOM      9  C   UNL     1      35.315 -18.807 -21.236  0.00  0.00    +0.012 C 
BRANCH   9  10
ATOM     10  C   UNL     1      33.849 -19.217 -21.115  0.00  0.00    +0.109 C 
BRANCH  10  12
ATOM     11  O   UNL     1      32.580 -20.727 -19.721  0.00  0.00    -0.250 OA
ATOM     12  C   UNL     1      33.657 -20.402 -20.202  0.00  0.00    +0.314 C 
BRANCH  12  13
ATOM     13  O   UNL     1      34.813 -21.071 -19.965  0.00  0.00    -0.480 OA
ATOM     14  H   UNL     1      35.226 -21.552 -20.655  0.00  0.00    +0.295 HD
ENDBRANCH  12  13
ENDBRANCH  10  12
ENDBRANCH   9  10
ENDBRANCH   8   9
ENDBRANCH   1   8
TORSDOF 10
ENDMDL
MODEL 6
REMARK VINA RESULT:      -5.9      3.341      5.708
REMARK  Name = 5634
REMARK  10 active torsions:
REMARK  status: ('A' for Active; 'I' for Inactive)
REMARK    1  A    between atoms: C_1  and  C_2
REMARK    2  A    between atoms: C_1  and  C_8
REMARK    3  A    between atoms: C_2  and  C_3
REMARK    4  A    between atoms: C_3  and  C_4
REMARK    5  A    between atoms: C_4  and  C_5
REMARK    6  A    between atoms: C_5  and  C_6
REMARK    7  A    between atoms: C_8  and  C_9
REMARK    8  A    between atoms: C_9  and  C_10
REMARK    9  A    between atoms: C_10  and  C_12
REMARK   10  A    between atoms: C_12  and  O_13
REMARK                            x       y       z     vdW  Elec       q    Type
REMARK                         _______ _______ _______ _____ _____    ______ ____
ROOT
ATOM      1  C   UNL     1      34.613 -17.599 -24.705  0.00  0.00    +0.000 C 
ENDROOT
BRANCH   1   2
ATOM      2  C   UNL     1      34.681 -18.840 -23.813  0.00  0.00    +0.000 C 
BRANCH   2   3
ATOM      3  C   UNL     1      35.765 -18.753 -22.734  0.00  0.00    +0.000 C 
BRANCH   3   4
ATOM      4  C   UNL     1      35.255 -19.092 -21.330  0.00  0.00    +0.005 C 
BRANCH   4   5
ATOM      5  C   UNL     1      33.735 -18.916 -21.238  0.00  0.00    +0.026 C 
BRANCH   5   6
ATOM      6  C   UNL     1      32.978 -19.975 -20.484  0.00  0.00    -0.026 C 
ATOM      7  C   UNL     1      33.478 -21.065 -19.889  0.00  0.00    -0.005 C 
ENDBRANCH   5   6
ENDBRANCH   4   5
ENDBRANCH   3   4
ENDBRANCH   2   3
ENDBRANCH   1   2
BRANCH   1   8
ATOM      8  C   UNL     1      35.026 -16.312 -23.984  0.00  0.00    +0.001 C 
BRANCH   8   9
ATOM      9  C   UNL     1      33.871 -15.641 -23.232  0.00  0.00    +0.012 C 
BRANCH   9  10
ATOM     10  C   UNL     1      34.358 -14.590 -22.238  0.00  0.00    +0.109 C 
BRANCH  10  12
ATOM     11  O   UNL     1      32.803 -14.633 -20.390  0.00  0.00    -0.250 OA
ATOM     12  C   UNL     1      33.918 -14.887 -20.826  0.00  0.00    +0.314 C 
BRANCH  12  13
ATOM     13  O   UNL     1      34.895 -15.464 -20.085  0.00  0.00    -0.480 OA
ATOM     14  H   UNL     1      35.391 -14.949 -19.480  0.00  0.00    +0.295 HD
ENDBRANCH  12  13
ENDBRANCH  10  12
ENDBRANCH   9  10
ENDBRANCH   8   9
ENDBRANCH   1   8
TORSDOF 10
ENDMDL
MODEL 7
REMARK VINA RESULT:      -5.9      1.350      2.246
REMARK  Name = 5634
REMARK  10 active torsions:
REMARK  status: ('A' for Active; 'I' for Inactive)
REMARK    1  A    between atoms: C_1  and  C_2
REMARK    2  A    between atoms: C_1  and  C_8
REMARK    3  A    between atoms: C_2  and  C_3
REMARK    4  A    between atoms: C_3  and  C_4
REMARK    5  A    between atoms: C_4  and  C_5
REMARK    6  A    between atoms: C_5  and  C_6
REMARK    7  A    between atoms: C_8  and  C_9
REMARK    8  A    between atoms: C_9  and  C_10
REMARK    9  A    between atoms: C_10  and  C_12
REMARK   10  A    between atoms: C_12  and  O_13
REMARK                            x       y       z     vdW  Elec       q    Type
REMARK                         _______ _______ _______ _____ _____    ______ ____
ROOT
ATOM      1  C   UNL     1      35.346 -20.031 -20.629  0.00  0.00    +0.000 C 
ENDROOT
BRANCH   1   2
ATOM      2  C   UNL     1      36.091 -18.826 -21.208  0.00  0.00    +0.000 C 
BRANCH   2   3
ATOM      3  C   UNL     1      35.251 -17.544 -21.224  0.00  0.00    +0.000 C 
BRANCH   3   4
ATOM      4  C   UNL     1      35.221 -16.854 -22.590  0.00  0.00    +0.005 C 
BRANCH   4   5
ATOM      5  C   UNL     1      35.060 -17.876 -23.722  0.00  0.00    +0.026 C 
BRANCH   5   6
ATOM      6  C   UNL     1      34.694 -17.331 -25.076  0.00  0.00    -0.026 C 
ATOM      7  C   UNL     1      33.964 -16.242 -25.344  0.00  0.00    -0.005 C 
ENDBRANCH   5   6
ENDBRANCH   4   5
ENDBRANCH   3   4
ENDBRANCH   2   3
ENDBRANCH   1   2
BRANCH   1   8
ATOM      8  C   UNL     1      33.823 -19.917 -20.750  0.00  0.00    +0.001 C 
BRANCH   8   9
ATOM      9  C   UNL     1      33.068 -20.951 -19.908  0.00  0.00    +0.012 C 
BRANCH   9  10
ATOM     10  C   UNL     1      33.960 -22.111 -19.476  0.00  0.00    +0.109 C 
BRANCH  10  12
ATOM     11  O   UNL     1      34.300 -23.239 -17.367  0.00  0.00    -0.250 OA
ATOM     12  C   UNL     1      33.533 -22.705 -18.157  0.00  0.00    +0.314 C 
BRANCH  12  13
ATOM     13  O   UNL     1      32.200 -22.588 -17.939  0.00  0.00    -0.480 OA
ATOM     14  H   UNL     1      31.593 -23.023 -18.504  0.00  0.00    +0.295 HD
ENDBRANCH  12  13
ENDBRANCH  10  12
ENDBRANCH   9  10
ENDBRANCH   8   9
ENDBRANCH   1   8
TORSDOF 10
ENDMDL
MODEL 8
REMARK VINA RESULT:      -5.9      4.603      7.049
REMARK  Name = 5634
REMARK  10 active torsions:
REMARK  status: ('A' for Active; 'I' for Inactive)
REMARK    1  A    between atoms: C_1  and  C_2
REMARK    2  A    between atoms: C_1  and  C_8
REMARK    3  A    between atoms: C_2  and  C_3
REMARK    4  A    between atoms: C_3  and  C_4
REMARK    5  A    between atoms: C_4  and  C_5
REMARK    6  A    between atoms: C_5  and  C_6
REMARK    7  A    between atoms: C_8  and  C_9
REMARK    8  A    between atoms: C_9  and  C_10
REMARK    9  A    between atoms: C_10  and  C_12
REMARK   10  A    between atoms: C_12  and  O_13
REMARK                            x       y       z     vdW  Elec       q    Type
REMARK                         _______ _______ _______ _____ _____    ______ ____
ROOT
ATOM      1  C   UNL     1      35.546 -18.079 -22.828  0.00  0.00    +0.000 C 
ENDROOT
BRANCH   1   2
ATOM      2  C   UNL     1      34.812 -18.316 -21.506  0.00  0.00    +0.000 C 
BRANCH   2   3
ATOM      3  C   UNL     1      34.695 -19.798 -21.135  0.00  0.00    +0.000 C 
BRANCH   3   4
ATOM      4  C   UNL     1      33.348 -20.162 -20.504  0.00  0.00    +0.005 C 
BRANCH   4   5
ATOM      5  C   UNL     1      33.485 -21.369 -19.569  0.00  0.00    +0.026 C 
BRANCH   5   6
ATOM      6  C   UNL     1      34.852 -21.988 -19.462  0.00  0.00    -0.026 C 
ATOM      7  C   UNL     1      35.711 -21.891 -18.440  0.00  0.00    -0.005 C 
ENDBRANCH   5   6
ENDBRANCH   4   5
ENDBRANCH   3   4
ENDBRANCH   2   3
ENDBRANCH   1   2
BRANCH   1   8
ATOM      8  C   UNL     1      34.763 -18.567 -24.051  0.00  0.00    +0.001 C 
BRANCH   8   9
ATOM      9  C   UNL     1      34.564 -17.483 -25.116  0.00  0.00    +0.012 C 
BRANCH   9  10
ATOM     10  C   UNL     1      34.134 -16.148 -24.513  0.00  0.00    +0.109 C 
BRANCH  10  12
ATOM     11  O   UNL     1      33.379 -15.502 -26.715  0.00  0.00    -0.250 OA
ATOM     12  C   UNL     1      33.442 -15.261 -25.516  0.00  0.00    +0.314 C 
BRANCH  12  13
ATOM     13  O   UNL     1      32.897 -14.157 -24.948  0.00  0.00    -0.480 OA
ATOM     14  H   UNL     1      32.482 -14.218 -24.111  0.00  0.00    +0.295 HD
ENDBRANCH  12  13
ENDBRANCH  10  12
ENDBRANCH   9  10
ENDBRANCH   8   9
ENDBRANCH   1   8
TORSDOF 10
ENDMDL
MODEL 9
REMARK VINA RESULT:      -5.8      3.908      6.916
REMARK  Name = 5634
REMARK  10 active torsions:
REMARK  status: ('A' for Active; 'I' for Inactive)
REMARK    1  A    between atoms: C_1  and  C_2
REMARK    2  A    between atoms: C_1  and  C_8
REMARK    3  A    between atoms: C_2  and  C_3
REMARK    4  A    between atoms: C_3  and  C_4
REMARK    5  A    between atoms: C_4  and  C_5
REMARK    6  A    between atoms: C_5  and  C_6
REMARK    7  A    between atoms: C_8  and  C_9
REMARK    8  A    between atoms: C_9  and  C_10
REMARK    9  A    between atoms: C_10  and  C_12
REMARK   10  A    between atoms: C_12  and  O_13
REMARK                            x       y       z     vdW  Elec       q    Type
REMARK                         _______ _______ _______ _____ _____    ______ ____
ROOT
ATOM      1  C   UNL     1      34.628 -19.764 -21.348  0.00  0.00    +0.000 C 
ENDROOT
BRANCH   1   2
ATOM      2  C   UNL     1      33.187 -19.824 -20.835  0.00  0.00    +0.000 C 
BRANCH   2   3
ATOM      3  C   UNL     1      32.998 -20.807 -19.674  0.00  0.00    +0.000 C 
BRANCH   3   4
ATOM      4  C   UNL     1      34.247 -21.638 -19.370  0.00  0.00    +0.005 C 
BRANCH   4   5
ATOM      5  C   UNL     1      33.871 -23.036 -18.866  0.00  0.00    +0.026 C 
BRANCH   5   6
ATOM      6  C   UNL     1      33.193 -23.110 -17.525  0.00  0.00    -0.026 C 
ATOM      7  C   UNL     1      33.763 -23.342 -16.336  0.00  0.00    -0.005 C 
ENDBRANCH   5   6
ENDBRANCH   4   5
ENDBRANCH   3   4
ENDBRANCH   2   3
ENDBRANCH   1   2
BRANCH   1   8
ATOM      8  C   UNL     1      35.178 -18.337 -21.440  0.00  0.00    +0.001 C 
BRANCH   8   9
ATOM      9  C   UNL     1      35.977 -18.077 -22.722  0.00  0.00    +0.012 C 
BRANCH   9  10
ATOM     10  C   UNL     1      35.114 -18.183 -23.977  0.00  0.00    +0.109 C 
BRANCH  10  12
ATOM     11  O   UNL     1      34.533 -16.746 -25.829  0.00  0.00    -0.250 OA
ATOM     12  C   UNL     1      34.985 -16.865 -24.698  0.00  0.00    +0.314 C 
BRANCH  12  13
ATOM     13  O   UNL     1      35.428 -15.819 -23.958  0.00  0.00    -0.480 OA
ATOM     14  H   UNL     1      35.785 -15.063 -24.382  0.00  0.00    +0.295 HD
ENDBRANCH  12  13
ENDBRANCH  10  12
ENDBRANCH   9  10
ENDBRANCH   8   9
ENDBRANCH   1   8
TORSDOF 10
ENDMDL
