MODEL 1
REMARK VINA RESULT:     -11.8      0.000      0.000
REMARK  Name = 25058128
REMARK  13 active torsions:
REMARK  status: ('A' for Active; 'I' for Inactive)
REMARK    1  A    between atoms: C_1  and  S_11
REMARK    2  A    between atoms: C_9  and  O_27
REMARK    3  A    between atoms: S_11  and  N_14
REMARK    4  A    between atoms: N_14  and  C_16
REMARK    5  A    between atoms: C_16  and  C_18
REMARK    6  A    between atoms: C_16  and  C_21
REMARK    7  A    between atoms: C_18  and  O_19
REMARK    8  A    between atoms: C_21  and  C_22
REMARK    9  A    between atoms: C_22  and  C_24
REMARK   10  A    between atoms: C_24  and  O_25
REMARK   11  A    between atoms: O_27  and  C_28
REMARK   12  A    between atoms: C_28  and  C_30
REMARK   13  A    between atoms: C_35  and  C_37
REMARK                            x       y       z     vdW  Elec       q    Type
REMARK                         _______ _______ _______ _____ _____    ______ ____
ROOT
ATOM      1  C   UNL     1      35.568 -23.131 -16.491  0.00  0.00    +0.122 C 
ATOM      2  C   UNL     1      34.506 -22.068 -18.403  0.00  0.00    +0.002 C 
ATOM      3  C   UNL     1      34.439 -22.904 -17.276  0.00  0.00    +0.020 C 
ATOM      4  C   UNL     1      35.737 -21.454 -18.737  0.00  0.00    +0.003 C 
ATOM      5  C   UNL     1      36.778 -22.527 -16.818  0.00  0.00    +0.020 C 
ATOM      6  C   UNL     1      36.864 -21.694 -17.934  0.00  0.00    +0.001 C 
ATOM      7  C   UNL     1      35.805 -20.618 -19.863  0.00  0.00    +0.037 C 
ATOM      8  C   UNL     1      33.379 -21.828 -19.207  0.00  0.00    +0.003 C 
ATOM      9  C   UNL     1      34.675 -20.390 -20.650  0.00  0.00    +0.139 C 
ATOM     10  C   UNL     1      33.465 -20.994 -20.322  0.00  0.00    +0.037 C 
ENDROOT
BRANCH   1  11
ATOM     11  S   UNL     1      35.462 -24.187 -15.076  0.00  0.00    +0.061 S 
ATOM     12  O   UNL     1      34.301 -23.787 -14.306  0.00  0.00    -0.153 OA
ATOM     13  O   UNL     1      35.586 -25.550 -15.557  0.00  0.00    -0.153 OA
BRANCH  11  14
ATOM     14  N   UNL     1      36.874 -23.774 -14.226  0.00  0.00    -0.170 NA
ATOM     15  H   UNL     1      36.612 -23.057 -13.549  0.00  0.00    +0.149 HD
BRANCH  14  16
ATOM     16  C   UNL     1      37.619 -24.813 -13.482  0.00  0.00    +0.174 C 
BRANCH  16  18
ATOM     17  O   UNL     1      39.999 -24.804 -13.981  0.00  0.00    -0.249 OA
ATOM     18  C   UNL     1      38.861 -25.153 -14.269  0.00  0.00    +0.330 C 
BRANCH  18  19
ATOM     19  O   UNL     1      38.586 -25.926 -15.352  0.00  0.00    -0.479 OA
ATOM     20  H   UNL     1      38.738 -25.595 -16.215  0.00  0.00    +0.295 HD
ENDBRANCH  18  19
ENDBRANCH  16  18
BRANCH  16  21
ATOM     21  C   UNL     1      37.882 -24.357 -12.041  0.00  0.00    +0.040 C 
BRANCH  21  22
ATOM     22  C   UNL     1      36.769 -23.549 -11.369  0.00  0.00    +0.111 C 
BRANCH  22  24
ATOM     23  O   UNL     1      35.418 -24.536  -9.627  0.00  0.00    -0.250 OA
ATOM     24  C   UNL     1      35.646 -24.393 -10.822  0.00  0.00    +0.314 C 
BRANCH  24  25
ATOM     25  O   UNL     1      34.920 -24.998 -11.794  0.00  0.00    -0.480 OA
ATOM     26  H   UNL     1      35.054 -24.764 -12.692  0.00  0.00    +0.295 HD
ENDBRANCH  24  25
ENDBRANCH  22  24
ENDBRANCH  21  22
ENDBRANCH  16  21
ENDBRANCH  14  16
ENDBRANCH  11  14
ENDBRANCH   1  11
BRANCH   9  27
ATOM     27  O   UNL     1      34.756 -19.576 -21.737  0.00  0.00    -0.471 OA
BRANCH  27  28
ATOM     28  C   UNL     1      35.806 -18.611 -21.750  0.00  0.00    +0.234 C 
BRANCH  28  30
ATOM     29  F   UNL     1      35.408 -17.761 -24.420  0.00  0.00    -0.204 F 
ATOM     30  C   UNL     1      35.235 -17.270 -22.104  0.00  0.00    +0.049 C 
ATOM     31  C   UNL     1      35.066 -16.912 -23.442  0.00  0.00    +0.140 C 
ATOM     32  C   UNL     1      34.874 -16.380 -21.093  0.00  0.00    +0.002 C 
ATOM     33  C   UNL     1      34.535 -15.663 -23.767  0.00  0.00    +0.040 C 
ATOM     34  C   UNL     1      34.344 -15.131 -21.419  0.00  0.00    +0.010 C 
ATOM     35  C   UNL     1      34.175 -14.772 -22.756  0.00  0.00    +0.071 C 
BRANCH  35  37
ATOM     36  N   UNL     1      33.188 -12.456 -23.362  0.00  0.00    -0.191 NA
ATOM     37  C   UNL     1      33.630 -13.495 -23.090  0.00  0.00    +0.100 C 
ENDBRANCH  35  37
ENDBRANCH  28  30
ENDBRANCH  27  28
ENDBRANCH   9  27
TORSDOF 13
ENDMDL
MODEL 2
REMARK VINA RESULT:     -11.7      1.446      3.012
REMARK  Name = 25058128
REMARK  13 active torsions:
REMARK  status: ('A' for Active; 'I' for Inactive)
REMARK    1  A    between atoms: C_1  and  S_11
REMARK    2  A    between atoms: C_9  and  O_27
REMARK    3  A    between atoms: S_11  and  N_14
REMARK    4  A    between atoms: N_14  and  C_16
REMARK    5  A    between atoms: C_16  and  C_18
REMARK    6  A    between atoms: C_16  and  C_21
REMARK    7  A    between atoms: C_18  and  O_19
REMARK    8  A    between atoms: C_21  and  C_22
REMARK    9  A    between atoms: C_22  and  C_24
REMARK   10  A    between atoms: C_24  and  O_25
REMARK   11  A    between atoms: O_27  and  C_28
REMARK   12  A    between atoms: C_28  and  C_30
REMARK   13  A    between atoms: C_35  and  C_37
REMARK                            x       y       z     vdW  Elec       q    Type
REMARK                         _______ _______ _______ _____ _____    ______ ____
ROOT
ATOM      1  C   UNL     1      35.844 -23.204 -15.682  0.00  0.00    +0.122 C 
ATOM      2  C   UNL     1      34.884 -22.361 -17.752  0.00  0.00    +0.002 C 
ATOM      3  C   UNL     1      34.758 -23.072 -16.547  0.00  0.00    +0.020 C 
ATOM      4  C   UNL     1      36.130 -21.775 -18.082  0.00  0.00    +0.003 C 
ATOM      5  C   UNL     1      37.068 -22.628 -16.007  0.00  0.00    +0.020 C 
ATOM      6  C   UNL     1      37.211 -21.917 -17.199  0.00  0.00    +0.001 C 
ATOM      7  C   UNL     1      36.256 -21.063 -19.286  0.00  0.00    +0.037 C 
ATOM      8  C   UNL     1      33.802 -22.218 -18.636  0.00  0.00    +0.003 C 
ATOM      9  C   UNL     1      35.170 -20.931 -20.153  0.00  0.00    +0.139 C 
ATOM     10  C   UNL     1      33.946 -21.507 -19.828  0.00  0.00    +0.037 C 
ENDROOT
BRANCH   1  11
ATOM     11  S   UNL     1      35.664 -24.104 -14.170  0.00  0.00    +0.061 S 
ATOM     12  O   UNL     1      34.327 -23.864 -13.664  0.00  0.00    -0.153 OA
ATOM     13  O   UNL     1      36.115 -25.458 -14.429  0.00  0.00    -0.153 OA
BRANCH  11  14
ATOM     14  N   UNL     1      36.796 -23.330 -13.167  0.00  0.00    -0.170 NA
ATOM     15  H   UNL     1      36.310 -22.554 -12.716  0.00  0.00    +0.149 HD
BRANCH  14  16
ATOM     16  C   UNL     1      37.474 -24.090 -12.094  0.00  0.00    +0.174 C 
BRANCH  16  18
ATOM     17  O   UNL     1      36.334 -23.861  -9.958  0.00  0.00    -0.249 OA
ATOM     18  C   UNL     1      36.448 -24.425 -11.038  0.00  0.00    +0.330 C 
BRANCH  18  19
ATOM     19  O   UNL     1      35.625 -25.434 -11.426  0.00  0.00    -0.479 OA
ATOM     20  H   UNL     1      35.825 -26.319 -11.192  0.00  0.00    +0.295 HD
ENDBRANCH  18  19
ENDBRANCH  16  18
BRANCH  16  21
ATOM     21  C   UNL     1      38.209 -25.302 -12.678  0.00  0.00    +0.040 C 
BRANCH  21  22
ATOM     22  C   UNL     1      39.515 -25.013 -13.424  0.00  0.00    +0.111 C 
BRANCH  22  24
ATOM     23  O   UNL     1      40.844 -26.525 -14.758  0.00  0.00    -0.250 OA
ATOM     24  C   UNL     1      39.779 -25.949 -14.576  0.00  0.00    +0.314 C 
BRANCH  24  25
ATOM     25  O   UNL     1      38.715 -26.075 -15.407  0.00  0.00    -0.480 OA
ATOM     26  H   UNL     1      38.762 -26.653 -16.143  0.00  0.00    +0.295 HD
ENDBRANCH  24  25
ENDBRANCH  22  24
ENDBRANCH  21  22
ENDBRANCH  16  21
ENDBRANCH  14  16
ENDBRANCH  11  14
ENDBRANCH   1  11
BRANCH   9  27
ATOM     27  O   UNL     1      35.308 -20.237 -21.315  0.00  0.00    -0.471 OA
BRANCH  27  28
ATOM     28  C   UNL     1      35.801 -18.902 -21.221  0.00  0.00    +0.234 C 
BRANCH  28  30
ATOM     29  F   UNL     1      35.227 -16.135 -21.059  0.00  0.00    -0.204 F 
ATOM     30  C   UNL     1      35.284 -18.105 -22.382  0.00  0.00    +0.049 C 
ATOM     31  C   UNL     1      35.020 -16.743 -22.235  0.00  0.00    +0.140 C 
ATOM     32  C   UNL     1      35.067 -18.729 -23.610  0.00  0.00    +0.002 C 
ATOM     33  C   UNL     1      34.539 -16.006 -23.317  0.00  0.00    +0.040 C 
ATOM     34  C   UNL     1      34.585 -17.991 -24.692  0.00  0.00    +0.010 C 
ATOM     35  C   UNL     1      34.321 -16.629 -24.545  0.00  0.00    +0.071 C 
BRANCH  35  37
ATOM     36  N   UNL     1      33.430 -15.260 -26.554  0.00  0.00    -0.191 NA
ATOM     37  C   UNL     1      33.830 -15.873 -25.653  0.00  0.00    +0.100 C 
ENDBRANCH  35  37
ENDBRANCH  28  30
ENDBRANCH  27  28
ENDBRANCH   9  27
TORSDOF 13
ENDMDL
MODEL 3
REMARK VINA RESULT:     -11.0      3.721     11.325
REMARK  Name = 25058128
REMARK  13 active torsions:
REMARK  status: ('A' for Active; 'I' for Inactive)
REMARK    1  A    between atoms: C_1  and  S_11
REMARK    2  A    between atoms: C_9  and  O_27
REMARK    3  A    between atoms: S_11  and  N_14
REMARK    4  A    between atoms: N_14  and  C_16
REMARK    5  A    between atoms: C_16  and  C_18
REMARK    6  A    between atoms: C_16  and  C_21
REMARK    7  A    between atoms: C_18  and  O_19
REMARK    8  A    between atoms: C_21  and  C_22
REMARK    9  A    between atoms: C_22  and  C_24
REMARK   10  A    between atoms: C_24  and  O_25
REMARK   11  A    between atoms: O_27  and  C_28
REMARK   12  A    between atoms: C_28  and  C_30
REMARK   13  A    between atoms: C_35  and  C_37
REMARK                            x       y       z     vdW  Elec       q    Type
REMARK                         _______ _______ _______ _____ _____    ______ ____
ROOT
ATOM      1  C   UNL     1      35.350 -19.513 -21.228  0.00  0.00    +0.122 C 
ATOM      2  C   UNL     1      34.200 -21.038 -19.722  0.00  0.00    +0.002 C 
ATOM      3  C   UNL     1      34.171 -20.091 -20.759  0.00  0.00    +0.020 C 
ATOM      4  C   UNL     1      35.444 -21.404 -19.154  0.00  0.00    +0.003 C 
ATOM      5  C   UNL     1      36.573 -19.873 -20.671  0.00  0.00    +0.020 C 
ATOM      6  C   UNL     1      36.621 -20.813 -19.640  0.00  0.00    +0.001 C 
ATOM      7  C   UNL     1      35.474 -22.351 -18.117  0.00  0.00    +0.037 C 
ATOM      8  C   UNL     1      33.023 -21.629 -19.235  0.00  0.00    +0.003 C 
ATOM      9  C   UNL     1      34.294 -22.929 -17.647  0.00  0.00    +0.139 C 
ATOM     10  C   UNL     1      33.071 -22.569 -18.204  0.00  0.00    +0.037 C 
ENDROOT
BRANCH   1  11
ATOM     11  S   UNL     1      35.291 -18.323 -22.535  0.00  0.00    +0.061 S 
ATOM     12  O   UNL     1      36.574 -18.335 -23.208  0.00  0.00    -0.153 OA
ATOM     13  O   UNL     1      34.073 -18.575 -23.280  0.00  0.00    -0.153 OA
BRANCH  11  14
ATOM     14  N   UNL     1      35.118 -16.868 -21.674  0.00  0.00    -0.170 NA
ATOM     15  H   UNL     1      36.029 -16.408 -21.685  0.00  0.00    +0.149 HD
BRANCH  14  16
ATOM     16  C   UNL     1      34.126 -15.862 -22.114  0.00  0.00    +0.174 C 
BRANCH  16  18
ATOM     17  O   UNL     1      32.923 -14.179 -20.836  0.00  0.00    -0.249 OA
ATOM     18  C   UNL     1      33.910 -14.891 -20.979  0.00  0.00    +0.330 C 
BRANCH  18  19
ATOM     19  O   UNL     1      34.941 -14.898 -20.094  0.00  0.00    -0.479 OA
ATOM     20  H   UNL     1      35.765 -14.522 -20.332  0.00  0.00    +0.295 HD
ENDBRANCH  18  19
ENDBRANCH  16  18
BRANCH  16  21
ATOM     21  C   UNL     1      34.567 -15.216 -23.433  0.00  0.00    +0.040 C 
BRANCH  21  22
ATOM     22  C   UNL     1      33.472 -14.982 -24.477  0.00  0.00    +0.111 C 
BRANCH  22  24
ATOM     23  O   UNL     1      33.187 -15.344 -26.848  0.00  0.00    -0.250 OA
ATOM     24  C   UNL     1      33.734 -15.659 -25.798  0.00  0.00    +0.314 C 
BRANCH  24  25
ATOM     25  O   UNL     1      34.632 -16.671 -25.703  0.00  0.00    -0.480 OA
ATOM     26  H   UNL     1      35.440 -16.538 -25.246  0.00  0.00    +0.295 HD
ENDBRANCH  24  25
ENDBRANCH  22  24
ENDBRANCH  21  22
ENDBRANCH  16  21
ENDBRANCH  14  16
ENDBRANCH  11  14
ENDBRANCH   1  11
BRANCH   9  27
ATOM     27  O   UNL     1      34.339 -23.846 -16.643  0.00  0.00    -0.471 OA
BRANCH  27  28
ATOM     28  C   UNL     1      34.900 -23.423 -15.401  0.00  0.00    +0.234 C 
BRANCH  28  30
ATOM     29  F   UNL     1      37.380 -22.062 -15.496  0.00  0.00    -0.204 F 
ATOM     30  C   UNL     1      36.218 -24.110 -15.198  0.00  0.00    +0.049 C 
ATOM     31  C   UNL     1      37.405 -23.381 -15.259  0.00  0.00    +0.140 C 
ATOM     32  C   UNL     1      36.254 -25.483 -14.950  0.00  0.00    +0.002 C 
ATOM     33  C   UNL     1      38.629 -24.025 -15.070  0.00  0.00    +0.040 C 
ATOM     34  C   UNL     1      37.478 -26.126 -14.762  0.00  0.00    +0.010 C 
ATOM     35  C   UNL     1      38.665 -25.397 -14.822  0.00  0.00    +0.071 C 
BRANCH  35  37
ATOM     36  N   UNL     1      40.936 -26.589 -14.471  0.00  0.00    -0.191 NA
ATOM     37  C   UNL     1      39.919 -26.054 -14.628  0.00  0.00    +0.100 C 
ENDBRANCH  35  37
ENDBRANCH  28  30
ENDBRANCH  27  28
ENDBRANCH   9  27
TORSDOF 13
ENDMDL
MODEL 4
REMARK VINA RESULT:     -11.0      2.007      2.963
REMARK  Name = 25058128
REMARK  13 active torsions:
REMARK  status: ('A' for Active; 'I' for Inactive)
REMARK    1  A    between atoms: C_1  and  S_11
REMARK    2  A    between atoms: C_9  and  O_27
REMARK    3  A    between atoms: S_11  and  N_14
REMARK    4  A    between atoms: N_14  and  C_16
REMARK    5  A    between atoms: C_16  and  C_18
REMARK    6  A    between atoms: C_16  and  C_21
REMARK    7  A    between atoms: C_18  and  O_19
REMARK    8  A    between atoms: C_21  and  C_22
REMARK    9  A    between atoms: C_22  and  C_24
REMARK   10  A    between atoms: C_24  and  O_25
REMARK   11  A    between atoms: O_27  and  C_28
REMARK   12  A    between atoms: C_28  and  C_30
REMARK   13  A    between atoms: C_35  and  C_37
REMARK                            x       y       z     vdW  Elec       q    Type
REMARK                         _______ _______ _______ _____ _____    ______ ____
ROOT
ATOM      1  C   UNL     1      35.272 -22.632 -17.063  0.00  0.00    +0.122 C 
ATOM      2  C   UNL     1      34.445 -21.475 -19.037  0.00  0.00    +0.002 C 
ATOM      3  C   UNL     1      34.217 -22.267 -17.899  0.00  0.00    +0.020 C 
ATOM      4  C   UNL     1      35.763 -21.048 -19.329  0.00  0.00    +0.003 C 
ATOM      5  C   UNL     1      36.567 -22.211 -17.350  0.00  0.00    +0.020 C 
ATOM      6  C   UNL     1      36.813 -21.424 -18.475  0.00  0.00    +0.001 C 
ATOM      7  C   UNL     1      35.992 -20.255 -20.466  0.00  0.00    +0.037 C 
ATOM      8  C   UNL     1      33.396 -21.098 -19.891  0.00  0.00    +0.003 C 
ATOM      9  C   UNL     1      34.937 -19.890 -21.303  0.00  0.00    +0.139 C 
ATOM     10  C   UNL     1      33.642 -20.311 -21.016  0.00  0.00    +0.037 C 
ENDROOT
BRANCH   1  11
ATOM     11  S   UNL     1      34.963 -23.629 -15.636  0.00  0.00    +0.061 S 
ATOM     12  O   UNL     1      35.382 -22.880 -14.468  0.00  0.00    -0.153 OA
ATOM     13  O   UNL     1      33.599 -24.110 -15.745  0.00  0.00    -0.153 OA
BRANCH  11  14
ATOM     14  N   UNL     1      36.026 -24.931 -15.883  0.00  0.00    -0.170 NA
ATOM     15  H   UNL     1      36.739 -24.610 -16.539  0.00  0.00    +0.149 HD
BRANCH  14  16
ATOM     16  C   UNL     1      36.742 -25.530 -14.735  0.00  0.00    +0.174 C 
BRANCH  16  18
ATOM     17  O   UNL     1      38.013 -27.592 -14.517  0.00  0.00    -0.249 OA
ATOM     18  C   UNL     1      37.216 -26.903 -15.143  0.00  0.00    +0.330 C 
BRANCH  18  19
ATOM     19  O   UNL     1      36.640 -27.322 -16.300  0.00  0.00    -0.479 OA
ATOM     20  H   UNL     1      35.717 -27.221 -16.427  0.00  0.00    +0.295 HD
ENDBRANCH  18  19
ENDBRANCH  16  18
BRANCH  16  21
ATOM     21  C   UNL     1      37.851 -24.591 -14.245  0.00  0.00    +0.040 C 
BRANCH  21  22
ATOM     22  C   UNL     1      38.933 -24.225 -15.264  0.00  0.00    +0.111 C 
BRANCH  22  24
ATOM     23  O   UNL     1      41.065 -24.694 -14.230  0.00  0.00    -0.250 OA
ATOM     24  C   UNL     1      40.227 -24.976 -15.078  0.00  0.00    +0.314 C 
BRANCH  24  25
ATOM     25  O   UNL     1      40.377 -25.994 -15.961  0.00  0.00    -0.480 OA
ATOM     26  H   UNL     1      40.362 -25.819 -16.882  0.00  0.00    +0.295 HD
ENDBRANCH  24  25
ENDBRANCH  22  24
ENDBRANCH  21  22
ENDBRANCH  16  21
ENDBRANCH  14  16
ENDBRANCH  11  14
ENDBRANCH   1  11
BRANCH   9  27
ATOM     27  O   UNL     1      35.174 -19.121 -22.400  0.00  0.00    -0.471 OA
BRANCH  27  28
ATOM     28  C   UNL     1      35.556 -17.766 -22.174  0.00  0.00    +0.234 C 
BRANCH  28  30
ATOM     29  F   UNL     1      34.754 -15.101 -21.653  0.00  0.00    -0.204 F 
ATOM     30  C   UNL     1      34.901 -16.893 -23.203  0.00  0.00    +0.049 C 
ATOM     31  C   UNL     1      34.528 -15.588 -22.881  0.00  0.00    +0.140 C 
ATOM     32  C   UNL     1      34.663 -17.390 -24.485  0.00  0.00    +0.002 C 
ATOM     33  C   UNL     1      33.918 -14.780 -23.841  0.00  0.00    +0.040 C 
ATOM     34  C   UNL     1      34.052 -16.582 -25.444  0.00  0.00    +0.010 C 
ATOM     35  C   UNL     1      33.680 -15.277 -25.123  0.00  0.00    +0.071 C 
BRANCH  35  37
ATOM     36  N   UNL     1      32.551 -13.776 -26.905  0.00  0.00    -0.191 NA
ATOM     37  C   UNL     1      33.057 -14.448 -26.106  0.00  0.00    +0.100 C 
ENDBRANCH  35  37
ENDBRANCH  28  30
ENDBRANCH  27  28
ENDBRANCH   9  27
TORSDOF 13
ENDMDL
MODEL 5
REMARK VINA RESULT:     -10.9      1.323      2.103
REMARK  Name = 25058128
REMARK  13 active torsions:
REMARK  status: ('A' for Active; 'I' for Inactive)
REMARK    1  A    between atoms: C_1  and  S_11
REMARK    2  A    between atoms: C_9  and  O_27
REMARK    3  A    between atoms: S_11  and  N_14
REMARK    4  A    between atoms: N_14  and  C_16
REMARK    5  A    between atoms: C_16  and  C_18
REMARK    6  A    between atoms: C_16  and  C_21
REMARK    7  A    between atoms: C_18  and  O_19
REMARK    8  A    between atoms: C_21  and  C_22
REMARK    9  A    between atoms: C_22  and  C_24
REMARK   10  A    between atoms: C_24  and  O_25
REMARK   11  A    between atoms: O_27  and  C_28
REMARK   12  A    between atoms: C_28  and  C_30
REMARK   13  A    between atoms: C_35  and  C_37
REMARK                            x       y       z     vdW  Elec       q    Type
REMARK                         _______ _______ _______ _____ _____    ______ ____
ROOT
ATOM      1  C   UNL     1      34.742 -23.505 -16.487  0.00  0.00    +0.122 C 
ATOM      2  C   UNL     1      35.441 -21.992 -18.258  0.00  0.00    +0.002 C 
ATOM      3  C   UNL     1      35.743 -22.787 -17.141  0.00  0.00    +0.020 C 
ATOM      4  C   UNL     1      34.103 -21.926 -18.719  0.00  0.00    +0.003 C 
ATOM      5  C   UNL     1      33.428 -23.440 -16.940  0.00  0.00    +0.020 C 
ATOM      6  C   UNL     1      33.109 -22.656 -18.049  0.00  0.00    +0.001 C 
ATOM      7  C   UNL     1      33.801 -21.131 -19.837  0.00  0.00    +0.037 C 
ATOM      8  C   UNL     1      36.435 -21.260 -18.929  0.00  0.00    +0.003 C 
ATOM      9  C   UNL     1      34.802 -20.412 -20.491  0.00  0.00    +0.139 C 
ATOM     10  C   UNL     1      36.116 -20.476 -20.038  0.00  0.00    +0.037 C 
ENDROOT
BRANCH   1  11
ATOM     11  S   UNL     1      35.144 -24.500 -15.081  0.00  0.00    +0.061 S 
ATOM     12  O   UNL     1      34.273 -24.107 -13.992  0.00  0.00    -0.153 OA
ATOM     13  O   UNL     1      35.172 -25.878 -15.534  0.00  0.00    -0.153 OA
BRANCH  11  14
ATOM     14  N   UNL     1      36.733 -24.001 -14.743  0.00  0.00    -0.170 NA
ATOM     15  H   UNL     1      36.690 -23.433 -13.897  0.00  0.00    +0.149 HD
BRANCH  14  16
ATOM     16  C   UNL     1      37.794 -25.009 -14.528  0.00  0.00    +0.174 C 
BRANCH  16  18
ATOM     17  O   UNL     1      40.203 -24.674 -14.527  0.00  0.00    -0.249 OA
ATOM     18  C   UNL     1      39.102 -24.419 -14.998  0.00  0.00    +0.330 C 
BRANCH  18  19
ATOM     19  O   UNL     1      38.934 -23.565 -16.041  0.00  0.00    -0.479 OA
ATOM     20  H   UNL     1      38.920 -23.894 -16.918  0.00  0.00    +0.295 HD
ENDBRANCH  18  19
ENDBRANCH  16  18
BRANCH  16  21
ATOM     21  C   UNL     1      37.796 -25.483 -13.069  0.00  0.00    +0.040 C 
BRANCH  21  22
ATOM     22  C   UNL     1      37.020 -24.619 -12.071  0.00  0.00    +0.111 C 
BRANCH  22  24
ATOM     23  O   UNL     1      37.163 -22.322 -11.339  0.00  0.00    -0.250 OA
ATOM     24  C   UNL     1      37.734 -23.352 -11.677  0.00  0.00    +0.314 C 
BRANCH  24  25
ATOM     25  O   UNL     1      39.084 -23.462 -11.751  0.00  0.00    -0.480 OA
ATOM     26  H   UNL     1      39.586 -22.790 -12.168  0.00  0.00    +0.295 HD
ENDBRANCH  24  25
ENDBRANCH  22  24
ENDBRANCH  21  22
ENDBRANCH  16  21
ENDBRANCH  14  16
ENDBRANCH  11  14
ENDBRANCH   1  11
BRANCH   9  27
ATOM     27  O   UNL     1      34.493 -19.647 -21.574  0.00  0.00    -0.471 OA
BRANCH  27  28
ATOM     28  C   UNL     1      35.571 -18.978 -22.225  0.00  0.00    +0.234 C 
BRANCH  28  30
ATOM     29  F   UNL     1      35.168 -16.881 -20.366  0.00  0.00    -0.204 F 
ATOM     30  C   UNL     1      35.123 -17.603 -22.627  0.00  0.00    +0.049 C 
ATOM     31  C   UNL     1      34.942 -16.615 -21.660  0.00  0.00    +0.140 C 
ATOM     32  C   UNL     1      34.887 -17.315 -23.971  0.00  0.00    +0.002 C 
ATOM     33  C   UNL     1      34.525 -15.338 -22.037  0.00  0.00    +0.040 C 
ATOM     34  C   UNL     1      34.469 -16.038 -24.348  0.00  0.00    +0.010 C 
ATOM     35  C   UNL     1      34.288 -15.050 -23.381  0.00  0.00    +0.071 C 
BRANCH  35  37
ATOM     36  N   UNL     1      33.518 -12.679 -24.082  0.00  0.00    -0.191 NA
ATOM     37  C   UNL     1      33.863 -13.741 -23.767  0.00  0.00    +0.100 C 
ENDBRANCH  35  37
ENDBRANCH  28  30
ENDBRANCH  27  28
ENDBRANCH   9  27
TORSDOF 13
ENDMDL
MODEL 6
REMARK VINA RESULT:     -10.9      2.871      4.612
REMARK  Name = 25058128
REMARK  13 active torsions:
REMARK  status: ('A' for Active; 'I' for Inactive)
REMARK    1  A    between atoms: C_1  and  S_11
REMARK    2  A    between atoms: C_9  and  O_27
REMARK    3  A    between atoms: S_11  and  N_14
REMARK    4  A    between atoms: N_14  and  C_16
REMARK    5  A    between atoms: C_16  and  C_18
REMARK    6  A    between atoms: C_16  and  C_21
REMARK    7  A    between atoms: C_18  and  O_19
REMARK    8  A    between atoms: C_21  and  C_22
REMARK    9  A    between atoms: C_22  and  C_24
REMARK   10  A    between atoms: C_24  and  O_25
REMARK   11  A    between atoms: O_27  and  C_28
REMARK   12  A    between atoms: C_28  and  C_30
REMARK   13  A    between atoms: C_35  and  C_37
REMARK                            x       y       z     vdW  Elec       q    Type
REMARK                         _______ _______ _______ _____ _____    ______ ____
ROOT
ATOM      1  C   UNL     1      35.333 -23.098 -16.024  0.00  0.00    +0.122 C 
ATOM      2  C   UNL     1      34.729 -22.066 -18.143  0.00  0.00    +0.002 C 
ATOM      3  C   UNL     1      34.378 -22.792 -16.993  0.00  0.00    +0.020 C 
ATOM      4  C   UNL     1      36.070 -21.643 -18.310  0.00  0.00    +0.003 C 
ATOM      5  C   UNL     1      36.650 -22.682 -16.189  0.00  0.00    +0.020 C 
ATOM      6  C   UNL     1      37.018 -21.959 -17.324  0.00  0.00    +0.001 C 
ATOM      7  C   UNL     1      36.423 -20.916 -19.459  0.00  0.00    +0.037 C 
ATOM      8  C   UNL     1      33.782 -21.750 -19.130  0.00  0.00    +0.003 C 
ATOM      9  C   UNL     1      35.467 -20.611 -20.429  0.00  0.00    +0.139 C 
ATOM     10  C   UNL     1      34.149 -21.027 -20.265  0.00  0.00    +0.037 C 
ENDROOT
BRANCH   1  11
ATOM     11  S   UNL     1      34.869 -24.013 -14.584  0.00  0.00    +0.061 S 
ATOM     12  O   UNL     1      34.794 -25.414 -14.950  0.00  0.00    -0.153 OA
ATOM     13  O   UNL     1      35.745 -23.585 -13.511  0.00  0.00    -0.153 OA
BRANCH  11  14
ATOM     14  N   UNL     1      33.304 -23.423 -14.285  0.00  0.00    -0.170 NA
ATOM     15  H   UNL     1      33.237 -22.515 -14.746  0.00  0.00    +0.149 HD
BRANCH  14  16
ATOM     16  C   UNL     1      32.124 -24.206 -14.713  0.00  0.00    +0.174 C 
BRANCH  16  18
ATOM     17  O   UNL     1      31.119 -23.531 -12.603  0.00  0.00    -0.249 OA
ATOM     18  C   UNL     1      31.188 -24.324 -13.534  0.00  0.00    +0.330 C 
BRANCH  18  19
ATOM     19  O   UNL     1      30.391 -25.421 -13.621  0.00  0.00    -0.479 OA
ATOM     20  H   UNL     1      30.701 -26.193 -14.051  0.00  0.00    +0.295 HD
ENDBRANCH  18  19
ENDBRANCH  16  18
BRANCH  16  21
ATOM     21  C   UNL     1      31.495 -23.587 -15.967  0.00  0.00    +0.040 C 
BRANCH  21  22
ATOM     22  C   UNL     1      30.180 -22.830 -15.768  0.00  0.00    +0.111 C 
BRANCH  22  24
ATOM     23  O   UNL     1      28.458 -23.044 -17.449  0.00  0.00    -0.250 OA
ATOM     24  C   UNL     1      28.994 -23.478 -16.437  0.00  0.00    +0.314 C 
BRANCH  24  25
ATOM     25  O   UNL     1      28.568 -24.591 -15.790  0.00  0.00    -0.480 OA
ATOM     26  H   UNL     1      29.110 -24.989 -15.136  0.00  0.00    +0.295 HD
ENDBRANCH  24  25
ENDBRANCH  22  24
ENDBRANCH  21  22
ENDBRANCH  16  21
ENDBRANCH  14  16
ENDBRANCH  11  14
ENDBRANCH   1  11
BRANCH   9  27
ATOM     27  O   UNL     1      35.824 -19.905 -21.537  0.00  0.00    -0.471 OA
BRANCH  27  28
ATOM     28  C   UNL     1      36.043 -18.505 -21.372  0.00  0.00    +0.234 C 
BRANCH  28  30
ATOM     29  F   UNL     1      35.103 -15.842 -21.181  0.00  0.00    -0.204 F 
ATOM     30  C   UNL     1      35.423 -17.772 -22.524  0.00  0.00    +0.049 C 
ATOM     31  C   UNL     1      34.979 -16.460 -22.364  0.00  0.00    +0.140 C 
ATOM     32  C   UNL     1      35.291 -18.407 -23.760  0.00  0.00    +0.002 C 
ATOM     33  C   UNL     1      34.402 -15.782 -23.438  0.00  0.00    +0.040 C 
ATOM     34  C   UNL     1      34.713 -17.729 -24.834  0.00  0.00    +0.010 C 
ATOM     35  C   UNL     1      34.269 -16.417 -24.673  0.00  0.00    +0.071 C 
BRANCH  35  37
ATOM     36  N   UNL     1      33.202 -15.156 -26.667  0.00  0.00    -0.191 NA
ATOM     37  C   UNL     1      33.680 -15.721 -25.774  0.00  0.00    +0.100 C 
ENDBRANCH  35  37
ENDBRANCH  28  30
ENDBRANCH  27  28
ENDBRANCH   9  27
TORSDOF 13
ENDMDL
MODEL 7
REMARK VINA RESULT:     -10.8      4.184     11.948
REMARK  Name = 25058128
REMARK  13 active torsions:
REMARK  status: ('A' for Active; 'I' for Inactive)
REMARK    1  A    between atoms: C_1  and  S_11
REMARK    2  A    between atoms: C_9  and  O_27
REMARK    3  A    between atoms: S_11  and  N_14
REMARK    4  A    between atoms: N_14  and  C_16
REMARK    5  A    between atoms: C_16  and  C_18
REMARK    6  A    between atoms: C_16  and  C_21
REMARK    7  A    between atoms: C_18  and  O_19
REMARK    8  A    between atoms: C_21  and  C_22
REMARK    9  A    between atoms: C_22  and  C_24
REMARK   10  A    between atoms: C_24  and  O_25
REMARK   11  A    between atoms: O_27  and  C_28
REMARK   12  A    between atoms: C_28  and  C_30
REMARK   13  A    between atoms: C_35  and  C_37
REMARK                            x       y       z     vdW  Elec       q    Type
REMARK                         _______ _______ _______ _____ _____    ______ ____
ROOT
ATOM      1  C   UNL     1      35.028 -18.137 -22.126  0.00  0.00    +0.122 C 
ATOM      2  C   UNL     1      34.160 -19.911 -20.706  0.00  0.00    +0.002 C 
ATOM      3  C   UNL     1      33.952 -18.862 -21.617  0.00  0.00    +0.020 C 
ATOM      4  C   UNL     1      35.482 -20.228 -20.307  0.00  0.00    +0.003 C 
ATOM      5  C   UNL     1      36.326 -18.449 -21.735  0.00  0.00    +0.020 C 
ATOM      6  C   UNL     1      36.553 -19.487 -20.831  0.00  0.00    +0.001 C 
ATOM      7  C   UNL     1      35.691 -21.276 -19.397  0.00  0.00    +0.037 C 
ATOM      8  C   UNL     1      33.089 -20.652 -20.182  0.00  0.00    +0.003 C 
ATOM      9  C   UNL     1      34.614 -22.002 -18.887  0.00  0.00    +0.139 C 
ATOM     10  C   UNL     1      33.316 -21.691 -19.278  0.00  0.00    +0.037 C 
ENDROOT
BRANCH   1  11
ATOM     11  S   UNL     1      34.743 -16.821 -23.272  0.00  0.00    +0.061 S 
ATOM     12  O   UNL     1      36.027 -16.249 -23.625  0.00  0.00    -0.153 OA
ATOM     13  O   UNL     1      33.867 -17.342 -24.304  0.00  0.00    -0.153 OA
BRANCH  11  14
ATOM     14  N   UNL     1      33.873 -15.713 -22.321  0.00  0.00    -0.170 NA
ATOM     15  H   UNL     1      34.559 -15.178 -21.789  0.00  0.00    +0.149 HD
BRANCH  14  16
ATOM     16  C   UNL     1      32.974 -14.731 -22.967  0.00  0.00    +0.174 C 
BRANCH  16  18
ATOM     17  O   UNL     1      32.712 -13.880 -20.704  0.00  0.00    -0.249 OA
ATOM     18  C   UNL     1      32.447 -13.805 -21.897  0.00  0.00    +0.330 C 
BRANCH  18  19
ATOM     19  O   UNL     1      31.640 -12.839 -22.408  0.00  0.00    -0.479 OA
ATOM     20  H   UNL     1      30.789 -13.062 -22.732  0.00  0.00    +0.295 HD
ENDBRANCH  18  19
ENDBRANCH  16  18
BRANCH  16  21
ATOM     21  C   UNL     1      33.692 -14.026 -24.124  0.00  0.00    +0.040 C 
BRANCH  21  22
ATOM     22  C   UNL     1      32.851 -13.731 -25.369  0.00  0.00    +0.111 C 
BRANCH  22  24
ATOM     23  O   UNL     1      33.724 -13.752 -27.621  0.00  0.00    -0.250 OA
ATOM     24  C   UNL     1      33.375 -14.377 -26.627  0.00  0.00    +0.314 C 
BRANCH  24  25
ATOM     25  O   UNL     1      33.404 -15.731 -26.551  0.00  0.00    -0.480 OA
ATOM     26  H   UNL     1      32.625 -16.225 -26.713  0.00  0.00    +0.295 HD
ENDBRANCH  24  25
ENDBRANCH  22  24
ENDBRANCH  21  22
ENDBRANCH  16  21
ENDBRANCH  14  16
ENDBRANCH  11  14
ENDBRANCH   1  11
BRANCH   9  27
ATOM     27  O   UNL     1      34.833 -23.017 -18.006  0.00  0.00    -0.471 OA
BRANCH  27  28
ATOM     28  C   UNL     1      33.831 -23.247 -17.018  0.00  0.00    +0.234 C 
BRANCH  28  30
ATOM     29  F   UNL     1      32.530 -24.402 -14.785  0.00  0.00    -0.204 F 
ATOM     30  C   UNL     1      34.490 -23.406 -15.679  0.00  0.00    +0.049 C 
ATOM     31  C   UNL     1      33.792 -23.983 -14.619  0.00  0.00    +0.140 C 
ATOM     32  C   UNL     1      35.804 -22.975 -15.497  0.00  0.00    +0.002 C 
ATOM     33  C   UNL     1      34.408 -24.129 -13.375  0.00  0.00    +0.040 C 
ATOM     34  C   UNL     1      36.420 -23.120 -14.253  0.00  0.00    +0.010 C 
ATOM     35  C   UNL     1      35.722 -23.697 -13.193  0.00  0.00    +0.071 C 
BRANCH  35  37
ATOM     36  N   UNL     1      36.865 -23.970 -10.885  0.00  0.00    -0.191 NA
ATOM     37  C   UNL     1      36.353 -23.848 -11.920  0.00  0.00    +0.100 C 
ENDBRANCH  35  37
ENDBRANCH  28  30
ENDBRANCH  27  28
ENDBRANCH   9  27
TORSDOF 13
ENDMDL
MODEL 8
REMARK VINA RESULT:     -10.8      1.144      2.831
REMARK  Name = 25058128
REMARK  13 active torsions:
REMARK  status: ('A' for Active; 'I' for Inactive)
REMARK    1  A    between atoms: C_1  and  S_11
REMARK    2  A    between atoms: C_9  and  O_27
REMARK    3  A    between atoms: S_11  and  N_14
REMARK    4  A    between atoms: N_14  and  C_16
REMARK    5  A    between atoms: C_16  and  C_18
REMARK    6  A    between atoms: C_16  and  C_21
REMARK    7  A    between atoms: C_18  and  O_19
REMARK    8  A    between atoms: C_21  and  C_22
REMARK    9  A    between atoms: C_22  and  C_24
REMARK   10  A    between atoms: C_24  and  O_25
REMARK   11  A    between atoms: O_27  and  C_28
REMARK   12  A    between atoms: C_28  and  C_30
REMARK   13  A    between atoms: C_35  and  C_37
REMARK                            x       y       z     vdW  Elec       q    Type
REMARK                         _______ _______ _______ _____ _____    ______ ____
ROOT
ATOM      1  C   UNL     1      34.885 -23.242 -16.516  0.00  0.00    +0.122 C 
ATOM      2  C   UNL     1      35.400 -21.818 -18.419  0.00  0.00    +0.002 C 
ATOM      3  C   UNL     1      35.806 -22.517 -17.271  0.00  0.00    +0.020 C 
ATOM      4  C   UNL     1      34.039 -21.855 -18.806  0.00  0.00    +0.003 C 
ATOM      5  C   UNL     1      33.547 -23.279 -16.896  0.00  0.00    +0.020 C 
ATOM      6  C   UNL     1      33.125 -22.590 -18.034  0.00  0.00    +0.001 C 
ATOM      7  C   UNL     1      33.632 -21.156 -19.954  0.00  0.00    +0.037 C 
ATOM      8  C   UNL     1      36.314 -21.082 -19.192  0.00  0.00    +0.003 C 
ATOM      9  C   UNL     1      34.554 -20.430 -20.710  0.00  0.00    +0.139 C 
ATOM     10  C   UNL     1      35.892 -20.393 -20.330  0.00  0.00    +0.037 C 
ENDROOT
BRANCH   1  11
ATOM     11  S   UNL     1      35.417 -24.116 -15.074  0.00  0.00    +0.061 S 
ATOM     12  O   UNL     1      34.473 -23.840 -14.010  0.00  0.00    -0.153 OA
ATOM     13  O   UNL     1      35.679 -25.483 -15.482  0.00  0.00    -0.153 OA
BRANCH  11  14
ATOM     14  N   UNL     1      36.896 -23.352 -14.729  0.00  0.00    -0.170 NA
ATOM     15  H   UNL     1      36.686 -22.371 -14.544  0.00  0.00    +0.149 HD
BRANCH  14  16
ATOM     16  C   UNL     1      37.730 -23.830 -13.605  0.00  0.00    +0.174 C 
BRANCH  16  18
ATOM     17  O   UNL     1      36.325 -23.527 -11.643  0.00  0.00    -0.249 OA
ATOM     18  C   UNL     1      37.254 -23.148 -12.345  0.00  0.00    +0.330 C 
BRANCH  18  19
ATOM     19  O   UNL     1      37.993 -22.048 -12.048  0.00  0.00    -0.479 OA
ATOM     20  H   UNL     1      38.598 -21.705 -12.676  0.00  0.00    +0.295 HD
ENDBRANCH  18  19
ENDBRANCH  16  18
BRANCH  16  21
ATOM     21  C   UNL     1      37.721 -25.362 -13.543  0.00  0.00    +0.040 C 
BRANCH  21  22
ATOM     22  C   UNL     1      38.544 -26.092 -14.608  0.00  0.00    +0.111 C 
BRANCH  22  24
ATOM     23  O   UNL     1      40.562 -24.990 -13.866  0.00  0.00    -0.250 OA
ATOM     24  C   UNL     1      39.951 -25.571 -14.755  0.00  0.00    +0.314 C 
BRANCH  24  25
ATOM     25  O   UNL     1      40.470 -25.796 -15.988  0.00  0.00    -0.480 OA
ATOM     26  H   UNL     1      41.391 -25.942 -16.088  0.00  0.00    +0.295 HD
ENDBRANCH  24  25
ENDBRANCH  22  24
ENDBRANCH  21  22
ENDBRANCH  16  21
ENDBRANCH  14  16
ENDBRANCH  11  14
ENDBRANCH   1  11
BRANCH   9  27
ATOM     27  O   UNL     1      34.144 -19.759 -21.821  0.00  0.00    -0.471 OA
BRANCH  27  28
ATOM     28  C   UNL     1      35.159 -19.197 -22.652  0.00  0.00    +0.234 C 
BRANCH  28  30
ATOM     29  F   UNL     1      34.575 -18.148 -25.215  0.00  0.00    -0.204 F 
ATOM     30  C   UNL     1      34.850 -17.749 -22.891  0.00  0.00    +0.049 C 
ATOM     31  C   UNL     1      34.572 -17.296 -24.181  0.00  0.00    +0.140 C 
ATOM     32  C   UNL     1      34.842 -16.855 -21.821  0.00  0.00    +0.002 C 
ATOM     33  C   UNL     1      34.285 -15.948 -24.399  0.00  0.00    +0.040 C 
ATOM     34  C   UNL     1      34.556 -15.507 -22.040  0.00  0.00    +0.010 C 
ATOM     35  C   UNL     1      34.278 -15.053 -23.329  0.00  0.00    +0.071 C 
BRANCH  35  37
ATOM     36  N   UNL     1      33.742 -12.553 -23.736  0.00  0.00    -0.191 NA
ATOM     37  C   UNL     1      33.983 -13.673 -23.554  0.00  0.00    +0.100 C 
ENDBRANCH  35  37
ENDBRANCH  28  30
ENDBRANCH  27  28
ENDBRANCH   9  27
TORSDOF 13
ENDMDL
MODEL 9
REMARK VINA RESULT:     -10.7      6.726     13.029
REMARK  Name = 25058128
REMARK  13 active torsions:
REMARK  status: ('A' for Active; 'I' for Inactive)
REMARK    1  A    between atoms: C_1  and  S_11
REMARK    2  A    between atoms: C_9  and  O_27
REMARK    3  A    between atoms: S_11  and  N_14
REMARK    4  A    between atoms: N_14  and  C_16
REMARK    5  A    between atoms: C_16  and  C_18
REMARK    6  A    between atoms: C_16  and  C_21
REMARK    7  A    between atoms: C_18  and  O_19
REMARK    8  A    between atoms: C_21  and  C_22
REMARK    9  A    between atoms: C_22  and  C_24
REMARK   10  A    between atoms: C_24  and  O_25
REMARK   11  A    between atoms: O_27  and  C_28
REMARK   12  A    between atoms: C_28  and  C_30
REMARK   13  A    between atoms: C_35  and  C_37
REMARK                            x       y       z     vdW  Elec       q    Type
REMARK                         _______ _______ _______ _____ _____    ______ ____
ROOT
ATOM      1  C   UNL     1      31.965 -12.507 -21.444  0.00  0.00    +0.122 C 
ATOM      2  C   UNL     1      33.066 -14.246 -22.740  0.00  0.00    +0.002 C 
ATOM      3  C   UNL     1      32.392 -13.015 -22.670  0.00  0.00    +0.020 C 
ATOM      4  C   UNL     1      33.309 -14.970 -21.547  0.00  0.00    +0.003 C 
ATOM      5  C   UNL     1      32.205 -13.217 -20.272  0.00  0.00    +0.020 C 
ATOM      6  C   UNL     1      32.872 -14.441 -20.322  0.00  0.00    +0.001 C 
ATOM      7  C   UNL     1      33.983 -16.200 -21.616  0.00  0.00    +0.037 C 
ATOM      8  C   UNL     1      33.503 -14.775 -23.965  0.00  0.00    +0.003 C 
ATOM      9  C   UNL     1      34.410 -16.710 -22.843  0.00  0.00    +0.139 C 
ATOM     10  C   UNL     1      34.170 -15.999 -24.015  0.00  0.00    +0.037 C 
ENDROOT
BRANCH   1  11
ATOM     11  S   UNL     1      31.119 -10.955 -21.379  0.00  0.00    +0.061 S 
ATOM     12  O   UNL     1      30.215 -10.890 -22.510  0.00  0.00    -0.153 OA
ATOM     13  O   UNL     1      30.611 -10.808 -20.029  0.00  0.00    -0.153 OA
BRANCH  11  14
ATOM     14  N   UNL     1      32.392  -9.853 -21.610  0.00  0.00    -0.170 NA
ATOM     15  H   UNL     1      32.868 -10.128 -22.469  0.00  0.00    +0.149 HD
BRANCH  14  16
ATOM     16  C   UNL     1      32.106  -8.406 -21.724  0.00  0.00    +0.174 C 
BRANCH  16  18
ATOM     17  O   UNL     1      32.581  -6.534 -20.245  0.00  0.00    -0.249 OA
ATOM     18  C   UNL     1      32.523  -7.743 -20.433  0.00  0.00    +0.330 C 
BRANCH  18  19
ATOM     19  O   UNL     1      32.820  -8.649 -19.465  0.00  0.00    -0.479 OA
ATOM     20  H   UNL     1      32.944  -8.366 -18.580  0.00  0.00    +0.295 HD
ENDBRANCH  18  19
ENDBRANCH  16  18
BRANCH  16  21
ATOM     21  C   UNL     1      32.765  -7.827 -22.981  0.00  0.00    +0.040 C 
BRANCH  21  22
ATOM     22  C   UNL     1      34.209  -8.257 -23.254  0.00  0.00    +0.111 C 
BRANCH  22  24
ATOM     23  O   UNL     1      33.367 -10.188 -24.436  0.00  0.00    -0.250 OA
ATOM     24  C   UNL     1      34.326  -9.557 -24.008  0.00  0.00    +0.314 C 
BRANCH  24  25
ATOM     25  O   UNL     1      35.610  -9.970 -24.150  0.00  0.00    -0.480 OA
ATOM     26  H   UNL     1      35.843 -10.540 -24.857  0.00  0.00    +0.295 HD
ENDBRANCH  24  25
ENDBRANCH  22  24
ENDBRANCH  21  22
ENDBRANCH  16  21
ENDBRANCH  14  16
ENDBRANCH  11  14
ENDBRANCH   1  11
BRANCH   9  27
ATOM     27  O   UNL     1      35.063 -17.903 -22.893  0.00  0.00    -0.471 OA
BRANCH  27  28
ATOM     28  C   UNL     1      35.964 -18.196 -21.827  0.00  0.00    +0.234 C 
BRANCH  28  30
ATOM     29  F   UNL     1      37.634 -19.996 -20.418  0.00  0.00    -0.204 F 
ATOM     30  C   UNL     1      35.434 -19.360 -21.043  0.00  0.00    +0.049 C 
ATOM     31  C   UNL     1      36.312 -20.211 -20.371  0.00  0.00    +0.140 C 
ATOM     32  C   UNL     1      34.060 -19.591 -20.987  0.00  0.00    +0.002 C 
ATOM     33  C   UNL     1      35.815 -21.292 -19.643  0.00  0.00    +0.040 C 
ATOM     34  C   UNL     1      33.563 -20.673 -20.259  0.00  0.00    +0.010 C 
ATOM     35  C   UNL     1      34.441 -21.524 -19.587  0.00  0.00    +0.071 C 
BRANCH  35  37
ATOM     36  N   UNL     1      33.519 -23.529 -18.233  0.00  0.00    -0.191 NA
ATOM     37  C   UNL     1      33.933 -22.631 -18.840  0.00  0.00    +0.100 C 
ENDBRANCH  35  37
ENDBRANCH  28  30
ENDBRANCH  27  28
ENDBRANCH   9  27
TORSDOF 13
ENDMDL
