MODEL 1
REMARK VINA RESULT:     -11.0      0.000      0.000
REMARK  Name = 46188928
REMARK  3 active torsions:
REMARK  status: ('A' for Active; 'I' for Inactive)
REMARK    1  A    between atoms: C_5  and  C_28
REMARK    2  A    between atoms: C_12  and  N_17
REMARK    3  A    between atoms: C_18  and  O_24
REMARK                            x       y       z     vdW  Elec       q    Type
REMARK                         _______ _______ _______ _____ _____    ______ ____
ROOT
ATOM      1  N   UNL     1      32.869 -13.804 -24.081  0.00  0.00    -0.281 N 
ATOM      2  N   UNL     1      32.298 -11.922 -22.884  0.00  0.00    -0.372 NA
ATOM      3  N   UNL     1      32.012 -12.089 -20.504  0.00  0.00    -0.163 N 
ATOM      4  N   UNL     1      31.699 -11.317 -19.430  0.00  0.00    -0.173 NA
ATOM      5  C   UNL     1      32.755 -13.155 -25.391  0.00  0.00    +0.100 C 
ATOM      6  C   UNL     1      32.822 -14.324 -26.385  0.00  0.00    +0.026 C 
ATOM      7  C   UNL     1      33.634 -15.384 -25.655  0.00  0.00    +0.024 C 
ATOM      8  C   UNL     1      33.195 -15.220 -24.204  0.00  0.00    +0.093 C 
ATOM      9  C   UNL     1      32.580 -13.205 -22.906  0.00  0.00    +0.186 C 
ATOM     10  C   UNL     1      32.600 -14.058 -21.666  0.00  0.00    +0.066 C 
ATOM     11  C   UNL     1      32.010 -11.350 -21.682  0.00  0.00    +0.208 C 
ATOM     12  C   UNL     1      31.681 -10.060 -21.331  0.00  0.00    +0.186 C 
ATOM     13  C   UNL     1      32.311 -13.444 -20.515  0.00  0.00    +0.096 C 
ATOM     14  C   UNL     1      31.503 -10.102 -19.942  0.00  0.00    +0.120 C 
ENDROOT
BRANCH  12  17
ATOM     15  O   UNL     1      33.736  -8.123 -22.265  0.00  0.00    -0.253 OA
ATOM     16  N   UNL     1      32.099  -7.070 -23.483  0.00  0.00    -0.262 N 
ATOM     17  N   UNL     1      31.556  -8.951 -22.203  0.00  0.00    -0.278 N 
ATOM     18  C   UNL     1      30.772  -5.525 -24.688  0.00  0.00    +0.132 C 
ATOM     19  C   UNL     1      32.217  -5.419 -25.161  0.00  0.00    +0.053 C 
ATOM     20  C   UNL     1      30.731  -6.868 -23.968  0.00  0.00    +0.124 C 
ATOM     21  C   UNL     1      32.998  -6.058 -24.022  0.00  0.00    +0.098 C 
ATOM     22  C   UNL     1      32.554  -8.065 -22.610  0.00  0.00    +0.305 C 
ATOM     23  H   UNL     1      30.655  -8.785 -22.565  0.00  0.00    +0.152 HD
BRANCH  18  24
ATOM     24  O   UNL     1      30.483  -4.489 -23.757  0.00  0.00    -0.383 OA
ATOM     25  H   UNL     1      30.860  -4.716 -22.893  0.00  0.00    +0.210 HD
ENDBRANCH  18  24
ENDBRANCH  12  17
BRANCH   5  28
ATOM     26  F   UNL     1      34.194 -12.951 -27.831  0.00  0.00    -0.204 F 
ATOM     27  F   UNL     1      35.444  -9.351 -23.907  0.00  0.00    -0.204 F 
ATOM     28  C   UNL     1      33.829 -12.113 -25.640  0.00  0.00    +0.025 C 
ATOM     29  C   UNL     1      34.495 -12.072 -26.864  0.00  0.00    +0.138 C 
ATOM     30  C   UNL     1      34.149 -11.194 -24.641  0.00  0.00    +0.029 C 
ATOM     31  C   UNL     1      35.136 -10.233 -24.866  0.00  0.00    +0.140 C 
ATOM     32  C   UNL     1      35.482 -11.113 -27.090  0.00  0.00    +0.032 C 
ATOM     33  C   UNL     1      35.803 -10.193 -26.091  0.00  0.00    +0.032 C 
ENDBRANCH   5  28
TORSDOF 3
ENDMDL
MODEL 2
REMARK VINA RESULT:      -8.0      1.330      1.850
REMARK  Name = 46188928
REMARK  3 active torsions:
REMARK  status: ('A' for Active; 'I' for Inactive)
REMARK    1  A    between atoms: C_5  and  C_28
REMARK    2  A    between atoms: C_12  and  N_17
REMARK    3  A    between atoms: C_18  and  O_24
REMARK                            x       y       z     vdW  Elec       q    Type
REMARK                         _______ _______ _______ _____ _____    ______ ____
ROOT
ATOM      1  N   UNL     1      32.382 -12.457 -22.721  0.00  0.00    -0.281 N 
ATOM      2  N   UNL     1      32.124 -10.232 -22.191  0.00  0.00    -0.372 NA
ATOM      3  N   UNL     1      31.900  -9.595 -19.884  0.00  0.00    -0.163 N 
ATOM      4  N   UNL     1      31.736  -8.487 -19.115  0.00  0.00    -0.173 NA
ATOM      5  C   UNL     1      32.316 -12.246 -24.170  0.00  0.00    +0.100 C 
ATOM      6  C   UNL     1      32.182 -13.666 -24.742  0.00  0.00    +0.026 C 
ATOM      7  C   UNL     1      32.861 -14.547 -23.703  0.00  0.00    +0.024 C 
ATOM      8  C   UNL     1      32.500 -13.871 -22.384  0.00  0.00    +0.093 C 
ATOM      9  C   UNL     1      32.221 -11.483 -21.801  0.00  0.00    +0.186 C 
ATOM     10  C   UNL     1      32.164 -11.894 -20.354  0.00  0.00    +0.066 C 
ATOM     11  C   UNL     1      31.961  -9.274 -21.236  0.00  0.00    +0.208 C 
ATOM     12  C   UNL     1      31.830  -7.906 -21.316  0.00  0.00    +0.186 C 
ATOM     13  C   UNL     1      32.004 -10.913 -19.461  0.00  0.00    +0.096 C 
ATOM     14  C   UNL     1      31.696  -7.481 -19.988  0.00  0.00    +0.120 C 
ENDROOT
BRANCH  12  17
ATOM     15  O   UNL     1      34.091  -7.122 -23.084  0.00  0.00    -0.253 OA
ATOM     16  N   UNL     1      32.588  -5.988 -24.398  0.00  0.00    -0.262 N 
ATOM     17  N   UNL     1      31.833  -7.123 -22.496  0.00  0.00    -0.278 N 
ATOM     18  C   UNL     1      31.514  -4.513 -25.904  0.00  0.00    +0.132 C 
ATOM     19  C   UNL     1      32.796  -5.035 -26.544  0.00  0.00    +0.053 C 
ATOM     20  C   UNL     1      31.258  -5.494 -24.766  0.00  0.00    +0.124 C 
ATOM     21  C   UNL     1      33.595  -5.536 -25.349  0.00  0.00    +0.098 C 
ATOM     22  C   UNL     1      32.926  -6.778 -23.293  0.00  0.00    +0.305 C 
ATOM     23  H   UNL     1      30.958  -6.780 -22.790  0.00  0.00    +0.152 HD
BRANCH  18  24
ATOM     24  O   UNL     1      31.731  -3.216 -25.360  0.00  0.00    -0.383 OA
ATOM     25  H   UNL     1      30.982  -2.642 -25.586  0.00  0.00    +0.210 HD
ENDBRANCH  18  24
ENDBRANCH  12  17
BRANCH   5  28
ATOM     26  F   UNL     1      33.493 -12.840 -26.686  0.00  0.00    -0.204 F 
ATOM     27  F   UNL     1      35.755  -8.793 -23.783  0.00  0.00    -0.204 F 
ATOM     28  C   UNL     1      33.516 -11.503 -24.724  0.00  0.00    +0.025 C 
ATOM     29  C   UNL     1      34.042 -11.849 -25.969  0.00  0.00    +0.138 C 
ATOM     30  C   UNL     1      34.095 -10.471 -23.986  0.00  0.00    +0.029 C 
ATOM     31  C   UNL     1      35.199  -9.784 -24.492  0.00  0.00    +0.140 C 
ATOM     32  C   UNL     1      35.147 -11.164 -26.475  0.00  0.00    +0.032 C 
ATOM     33  C   UNL     1      35.726 -10.132 -25.737  0.00  0.00    +0.032 C 
ENDBRANCH   5  28
TORSDOF 3
ENDMDL
