MODEL 1
REMARK VINA RESULT:     -10.2      0.000      0.000
REMARK  Name = 439533
REMARK  6 active torsions:
REMARK  status: ('A' for Active; 'I' for Inactive)
REMARK    1  A    between atoms: C_3  and  C_12
REMARK    2  A    between atoms: C_4  and  O_22
REMARK    3  A    between atoms: C_8  and  O_24
REMARK    4  A    between atoms: C_11  and  O_26
REMARK    5  A    between atoms: C_15  and  O_18
REMARK    6  A    between atoms: C_17  and  O_20
REMARK                            x       y       z     vdW  Elec       q    Type
REMARK                         _______ _______ _______ _____ _____    ______ ____
ROOT
ATOM      1  O   UNL     1      33.849 -17.017 -21.262  0.00  0.00    -0.471 OA
ATOM      2  O   UNL     1      34.777 -16.677 -25.245  0.00  0.00    -0.288 OA
ATOM      3  C   UNL     1      34.033 -18.178 -22.086  0.00  0.00    +0.222 C 
ATOM      4  C   UNL     1      35.055 -17.916 -23.192  0.00  0.00    +0.217 C 
ATOM      5  C   UNL     1      34.569 -16.761 -24.040  0.00  0.00    +0.209 C 
ATOM      6  C   UNL     1      33.845 -15.698 -23.315  0.00  0.00    +0.105 C 
ATOM      7  C   UNL     1      33.541 -15.882 -21.964  0.00  0.00    +0.148 C 
ATOM      8  C   UNL     1      33.492 -14.512 -23.964  0.00  0.00    +0.142 C 
ATOM      9  C   UNL     1      32.914 -14.858 -21.251  0.00  0.00    +0.074 C 
ATOM     10  C   UNL     1      32.850 -13.501 -23.251  0.00  0.00    +0.073 C 
ATOM     11  C   UNL     1      32.565 -13.671 -21.896  0.00  0.00    +0.140 C 
ENDROOT
BRANCH   3  12
ATOM     12  C   UNL     1      34.468 -19.311 -21.175  0.00  0.00    +0.023 C 
ATOM     13  C   UNL     1      33.513 -20.164 -20.625  0.00  0.00    +0.039 C 
ATOM     14  C   UNL     1      35.819 -19.494 -20.890  0.00  0.00    +0.003 C 
ATOM     15  C   UNL     1      33.912 -21.206 -19.787  0.00  0.00    +0.167 C 
ATOM     16  C   UNL     1      36.218 -20.536 -20.052  0.00  0.00    +0.040 C 
ATOM     17  C   UNL     1      35.264 -21.391 -19.500  0.00  0.00    +0.167 C 
BRANCH  15  18
ATOM     18  O   UNL     1      32.972 -22.035 -19.255  0.00  0.00    -0.503 OA
ATOM     19  H   UNL     1      32.987 -22.235 -18.340  0.00  0.00    +0.292 HD
ENDBRANCH  15  18
BRANCH  17  20
ATOM     20  O   UNL     1      35.666 -22.405 -18.685  0.00  0.00    -0.503 OA
ATOM     21  H   UNL     1      35.486 -23.294 -18.920  0.00  0.00    +0.292 HD
ENDBRANCH  17  20
ENDBRANCH   3  12
BRANCH   4  22
ATOM     22  O   UNL     1      35.176 -19.056 -24.026  0.00  0.00    -0.374 OA
ATOM     23  H   UNL     1      35.144 -19.859 -23.483  0.00  0.00    +0.211 HD
ENDBRANCH   4  22
BRANCH   8  24
ATOM     24  O   UNL     1      33.763 -14.285 -25.279  0.00  0.00    -0.505 OA
ATOM     25  H   UNL     1      34.065 -14.985 -25.824  0.00  0.00    +0.292 HD
ENDBRANCH   8  24
BRANCH  11  26
ATOM     26  O   UNL     1      31.944 -12.678 -21.202  0.00  0.00    -0.505 OA
ATOM     27  H   UNL     1      31.008 -12.656 -21.152  0.00  0.00    +0.292 HD
ENDBRANCH  11  26
TORSDOF 6
ENDMDL
MODEL 2
REMARK VINA RESULT:      -9.9      2.549      7.364
REMARK  Name = 439533
REMARK  6 active torsions:
REMARK  status: ('A' for Active; 'I' for Inactive)
REMARK    1  A    between atoms: C_3  and  C_12
REMARK    2  A    between atoms: C_4  and  O_22
REMARK    3  A    between atoms: C_8  and  O_24
REMARK    4  A    between atoms: C_11  and  O_26
REMARK    5  A    between atoms: C_15  and  O_18
REMARK    6  A    between atoms: C_17  and  O_20
REMARK                            x       y       z     vdW  Elec       q    Type
REMARK                         _______ _______ _______ _____ _____    ______ ____
ROOT
ATOM      1  O   UNL     1      33.917 -14.437 -22.535  0.00  0.00    -0.471 OA
ATOM      2  O   UNL     1      33.772 -16.211 -26.233  0.00  0.00    -0.288 OA
ATOM      3  C   UNL     1      33.871 -13.652 -23.737  0.00  0.00    +0.222 C 
ATOM      4  C   UNL     1      33.084 -14.367 -24.836  0.00  0.00    +0.217 C 
ATOM      5  C   UNL     1      33.745 -15.697 -25.121  0.00  0.00    +0.209 C 
ATOM      6  C   UNL     1      34.338 -16.378 -23.952  0.00  0.00    +0.105 C 
ATOM      7  C   UNL     1      34.375 -15.714 -22.724  0.00  0.00    +0.148 C 
ATOM      8  C   UNL     1      34.831 -17.681 -24.066  0.00  0.00    +0.142 C 
ATOM      9  C   UNL     1      34.874 -16.371 -21.598  0.00  0.00    +0.074 C 
ATOM     10  C   UNL     1      35.345 -18.324 -22.942  0.00  0.00    +0.073 C 
ATOM     11  C   UNL     1      35.363 -17.673 -21.708  0.00  0.00    +0.140 C 
ENDROOT
BRANCH   3  12
ATOM     12  C   UNL     1      33.249 -12.316 -23.377  0.00  0.00    +0.023 C 
ATOM     13  C   UNL     1      32.185 -12.266 -22.480  0.00  0.00    +0.039 C 
ATOM     14  C   UNL     1      33.743 -11.144 -23.945  0.00  0.00    +0.003 C 
ATOM     15  C   UNL     1      31.612 -11.037 -22.148  0.00  0.00    +0.167 C 
ATOM     16  C   UNL     1      33.172  -9.916 -23.614  0.00  0.00    +0.040 C 
ATOM     17  C   UNL     1      32.105  -9.863 -22.716  0.00  0.00    +0.167 C 
BRANCH  15  18
ATOM     18  O   UNL     1      30.572 -10.998 -21.270  0.00  0.00    -0.503 OA
ATOM     19  H   UNL     1      30.728 -11.113 -20.353  0.00  0.00    +0.292 HD
ENDBRANCH  15  18
BRANCH  17  20
ATOM     20  O   UNL     1      31.556  -8.657 -22.399  0.00  0.00    -0.503 OA
ATOM     21  H   UNL     1      31.662  -8.306 -21.537  0.00  0.00    +0.292 HD
ENDBRANCH  17  20
ENDBRANCH   3  12
BRANCH   4  22
ATOM     22  O   UNL     1      33.103 -13.600 -26.027  0.00  0.00    -0.374 OA
ATOM     23  H   UNL     1      32.281 -13.089 -26.096  0.00  0.00    +0.211 HD
ENDBRANCH   4  22
BRANCH   8  24
ATOM     24  O   UNL     1      34.820 -18.371 -25.241  0.00  0.00    -0.505 OA
ATOM     25  H   UNL     1      34.673 -17.920 -26.049  0.00  0.00    +0.292 HD
ENDBRANCH   8  24
BRANCH  11  26
ATOM     26  O   UNL     1      35.859 -18.308 -20.611  0.00  0.00    -0.505 OA
ATOM     27  H   UNL     1      35.677 -19.217 -20.474  0.00  0.00    +0.292 HD
ENDBRANCH  11  26
TORSDOF 6
ENDMDL
MODEL 3
REMARK VINA RESULT:      -9.8      1.459      2.878
REMARK  Name = 439533
REMARK  6 active torsions:
REMARK  status: ('A' for Active; 'I' for Inactive)
REMARK    1  A    between atoms: C_3  and  C_12
REMARK    2  A    between atoms: C_4  and  O_22
REMARK    3  A    between atoms: C_8  and  O_24
REMARK    4  A    between atoms: C_11  and  O_26
REMARK    5  A    between atoms: C_15  and  O_18
REMARK    6  A    between atoms: C_17  and  O_20
REMARK                            x       y       z     vdW  Elec       q    Type
REMARK                         _______ _______ _______ _____ _____    ______ ____
ROOT
ATOM      1  O   UNL     1      34.307 -17.327 -23.144  0.00  0.00    -0.471 OA
ATOM      2  O   UNL     1      34.166 -13.750 -21.136  0.00  0.00    -0.288 OA
ATOM      3  C   UNL     1      34.995 -17.145 -21.896  0.00  0.00    +0.222 C 
ATOM      4  C   UNL     1      34.254 -16.158 -20.993  0.00  0.00    +0.217 C 
ATOM      5  C   UNL     1      34.141 -14.831 -21.712  0.00  0.00    +0.209 C 
ATOM      6  C   UNL     1      33.957 -14.912 -23.175  0.00  0.00    +0.105 C 
ATOM      7  C   UNL     1      34.035 -16.158 -23.803  0.00  0.00    +0.148 C 
ATOM      8  C   UNL     1      33.681 -13.762 -23.919  0.00  0.00    +0.142 C 
ATOM      9  C   UNL     1      33.800 -16.256 -25.175  0.00  0.00    +0.074 C 
ATOM     10  C   UNL     1      33.465 -13.865 -25.292  0.00  0.00    +0.073 C 
ATOM     11  C   UNL     1      33.519 -15.109 -25.919  0.00  0.00    +0.140 C 
ENDROOT
BRANCH   3  12
ATOM     12  C   UNL     1      35.124 -18.511 -21.250  0.00  0.00    +0.023 C 
ATOM     13  C   UNL     1      33.980 -19.254 -20.966  0.00  0.00    +0.039 C 
ATOM     14  C   UNL     1      36.384 -19.019 -20.943  0.00  0.00    +0.003 C 
ATOM     15  C   UNL     1      34.097 -20.512 -20.372  0.00  0.00    +0.167 C 
ATOM     16  C   UNL     1      36.502 -20.275 -20.349  0.00  0.00    +0.040 C 
ATOM     17  C   UNL     1      35.358 -21.021 -20.063  0.00  0.00    +0.167 C 
BRANCH  15  18
ATOM     18  O   UNL     1      32.974 -21.231 -20.098  0.00  0.00    -0.503 OA
ATOM     19  H   UNL     1      32.939 -21.771 -19.333  0.00  0.00    +0.292 HD
ENDBRANCH  15  18
BRANCH  17  20
ATOM     20  O   UNL     1      35.486 -22.247 -19.484  0.00  0.00    -0.503 OA
ATOM     21  H   UNL     1      35.596 -22.318 -18.556  0.00  0.00    +0.292 HD
ENDBRANCH  17  20
ENDBRANCH   3  12
BRANCH   4  22
ATOM     22  O   UNL     1      34.982 -15.951 -19.796  0.00  0.00    -0.374 OA
ATOM     23  H   UNL     1      35.832 -15.530 -20.002  0.00  0.00    +0.211 HD
ENDBRANCH   4  22
BRANCH   8  24
ATOM     24  O   UNL     1      33.597 -12.524 -23.355  0.00  0.00    -0.505 OA
ATOM     25  H   UNL     1      33.162 -11.830 -23.810  0.00  0.00    +0.292 HD
ENDBRANCH   8  24
BRANCH  11  26
ATOM     26  O   UNL     1      33.300 -15.205 -27.259  0.00  0.00    -0.505 OA
ATOM     27  H   UNL     1      32.898 -15.974 -27.615  0.00  0.00    +0.292 HD
ENDBRANCH  11  26
TORSDOF 6
ENDMDL
MODEL 4
REMARK VINA RESULT:      -9.6      5.032      8.315
REMARK  Name = 439533
REMARK  6 active torsions:
REMARK  status: ('A' for Active; 'I' for Inactive)
REMARK    1  A    between atoms: C_3  and  C_12
REMARK    2  A    between atoms: C_4  and  O_22
REMARK    3  A    between atoms: C_8  and  O_24
REMARK    4  A    between atoms: C_11  and  O_26
REMARK    5  A    between atoms: C_15  and  O_18
REMARK    6  A    between atoms: C_17  and  O_20
REMARK                            x       y       z     vdW  Elec       q    Type
REMARK                         _______ _______ _______ _____ _____    ______ ____
ROOT
ATOM      1  O   UNL     1      36.021 -22.787 -16.933  0.00  0.00    -0.471 OA
ATOM      2  O   UNL     1      32.065 -22.668 -18.019  0.00  0.00    -0.288 OA
ATOM      3  C   UNL     1      34.978 -23.026 -15.976  0.00  0.00    +0.222 C 
ATOM      4  C   UNL     1      33.762 -23.680 -16.632  0.00  0.00    +0.217 C 
ATOM      5  C   UNL     1      33.251 -22.769 -17.727  0.00  0.00    +0.209 C 
ATOM      6  C   UNL     1      34.285 -22.017 -18.466  0.00  0.00    +0.105 C 
ATOM      7  C   UNL     1      35.612 -22.084 -18.035  0.00  0.00    +0.148 C 
ATOM      8  C   UNL     1      33.946 -21.272 -19.598  0.00  0.00    +0.142 C 
ATOM      9  C   UNL     1      36.608 -21.430 -18.762  0.00  0.00    +0.074 C 
ATOM     10  C   UNL     1      34.943 -20.607 -20.309  0.00  0.00    +0.073 C 
ATOM     11  C   UNL     1      36.273 -20.688 -19.896  0.00  0.00    +0.140 C 
ENDROOT
BRANCH   3  12
ATOM     12  C   UNL     1      35.564 -23.897 -14.881  0.00  0.00    +0.023 C 
ATOM     13  C   UNL     1      34.981 -23.907 -13.616  0.00  0.00    +0.039 C 
ATOM     14  C   UNL     1      36.683 -24.685 -15.144  0.00  0.00    +0.003 C 
ATOM     15  C   UNL     1      35.519 -24.709 -12.608  0.00  0.00    +0.167 C 
ATOM     16  C   UNL     1      37.221 -25.486 -14.137  0.00  0.00    +0.040 C 
ATOM     17  C   UNL     1      36.639 -25.497 -12.869  0.00  0.00    +0.167 C 
BRANCH  15  18
ATOM     18  O   UNL     1      34.942 -24.713 -11.375  0.00  0.00    -0.503 OA
ATOM     19  H   UNL     1      34.195 -24.173 -11.205  0.00  0.00    +0.292 HD
ENDBRANCH  15  18
BRANCH  17  20
ATOM     20  O   UNL     1      37.173 -26.285 -11.895  0.00  0.00    -0.503 OA
ATOM     21  H   UNL     1      37.207 -27.214 -12.010  0.00  0.00    +0.292 HD
ENDBRANCH  17  20
ENDBRANCH   3  12
BRANCH   4  22
ATOM     22  O   UNL     1      32.726 -23.851 -15.681  0.00  0.00    -0.374 OA
ATOM     23  H   UNL     1      32.844 -24.698 -15.222  0.00  0.00    +0.211 HD
ENDBRANCH   4  22
BRANCH   8  24
ATOM     24  O   UNL     1      32.667 -21.173 -20.058  0.00  0.00    -0.505 OA
ATOM     25  H   UNL     1      31.963 -21.022 -19.458  0.00  0.00    +0.292 HD
ENDBRANCH   8  24
BRANCH  11  26
ATOM     26  O   UNL     1      37.244 -20.043 -20.598  0.00  0.00    -0.505 OA
ATOM     27  H   UNL     1      37.010 -19.413 -21.251  0.00  0.00    +0.292 HD
ENDBRANCH  11  26
TORSDOF 6
ENDMDL
MODEL 5
REMARK VINA RESULT:      -9.5      8.859     11.256
REMARK  Name = 439533
REMARK  6 active torsions:
REMARK  status: ('A' for Active; 'I' for Inactive)
REMARK    1  A    between atoms: C_3  and  C_12
REMARK    2  A    between atoms: C_4  and  O_22
REMARK    3  A    between atoms: C_8  and  O_24
REMARK    4  A    between atoms: C_11  and  O_26
REMARK    5  A    between atoms: C_15  and  O_18
REMARK    6  A    between atoms: C_17  and  O_20
REMARK                            x       y       z     vdW  Elec       q    Type
REMARK                         _______ _______ _______ _____ _____    ______ ____
ROOT
ATOM      1  O   UNL     1      33.431 -24.060 -13.432  0.00  0.00    -0.471 OA
ATOM      2  O   UNL     1      36.525 -23.612 -16.090  0.00  0.00    -0.288 OA
ATOM      3  C   UNL     1      33.217 -23.497 -14.736  0.00  0.00    +0.222 C 
ATOM      4  C   UNL     1      34.182 -24.093 -15.761  0.00  0.00    +0.217 C 
ATOM      5  C   UNL     1      35.601 -23.817 -15.312  0.00  0.00    +0.209 C 
ATOM      6  C   UNL     1      35.824 -23.844 -13.853  0.00  0.00    +0.105 C 
ATOM      7  C   UNL     1      34.727 -23.981 -12.999  0.00  0.00    +0.148 C 
ATOM      8  C   UNL     1      37.119 -23.764 -13.333  0.00  0.00    +0.142 C 
ATOM      9  C   UNL     1      34.931 -24.073 -11.621  0.00  0.00    +0.074 C 
ATOM     10  C   UNL     1      37.314 -23.838 -11.955  0.00  0.00    +0.073 C 
ATOM     11  C   UNL     1      36.224 -23.997 -11.100  0.00  0.00    +0.140 C 
ENDROOT
BRANCH   3  12
ATOM     12  C   UNL     1      31.770 -23.759 -15.106  0.00  0.00    +0.023 C 
ATOM     13  C   UNL     1      31.097 -22.870 -15.942  0.00  0.00    +0.039 C 
ATOM     14  C   UNL     1      31.117 -24.885 -14.610  0.00  0.00    +0.003 C 
ATOM     15  C   UNL     1      29.765 -23.110 -16.284  0.00  0.00    +0.167 C 
ATOM     16  C   UNL     1      29.787 -25.125 -14.951  0.00  0.00    +0.040 C 
ATOM     17  C   UNL     1      29.110 -24.237 -15.788  0.00  0.00    +0.167 C 
BRANCH  15  18
ATOM     18  O   UNL     1      29.115 -22.237 -17.102  0.00  0.00    -0.503 OA
ATOM     19  H   UNL     1      28.904 -21.376 -16.796  0.00  0.00    +0.292 HD
ENDBRANCH  15  18
BRANCH  17  20
ATOM     20  O   UNL     1      27.811 -24.483 -16.115  0.00  0.00    -0.503 OA
ATOM     21  H   UNL     1      27.473 -24.193 -16.940  0.00  0.00    +0.292 HD
ENDBRANCH  17  20
ENDBRANCH   3  12
BRANCH   4  22
ATOM     22  O   UNL     1      33.992 -23.480 -17.024  0.00  0.00    -0.374 OA
ATOM     23  H   UNL     1      33.057 -23.543 -17.278  0.00  0.00    +0.211 HD
ENDBRANCH   4  22
BRANCH   8  24
ATOM     24  O   UNL     1      38.221 -23.628 -14.122  0.00  0.00    -0.505 OA
ATOM     25  H   UNL     1      38.834 -24.333 -14.198  0.00  0.00    +0.292 HD
ENDBRANCH   8  24
BRANCH  11  26
ATOM     26  O   UNL     1      36.420 -24.076  -9.755  0.00  0.00    -0.505 OA
ATOM     27  H   UNL     1      36.622 -23.303  -9.265  0.00  0.00    +0.292 HD
ENDBRANCH  11  26
TORSDOF 6
ENDMDL
MODEL 6
REMARK VINA RESULT:      -9.4      5.390     11.163
REMARK  Name = 439533
REMARK  6 active torsions:
REMARK  status: ('A' for Active; 'I' for Inactive)
REMARK    1  A    between atoms: C_3  and  C_12
REMARK    2  A    between atoms: C_4  and  O_22
REMARK    3  A    between atoms: C_8  and  O_24
REMARK    4  A    between atoms: C_11  and  O_26
REMARK    5  A    between atoms: C_15  and  O_18
REMARK    6  A    between atoms: C_17  and  O_20
REMARK                            x       y       z     vdW  Elec       q    Type
REMARK                         _______ _______ _______ _____ _____    ______ ____
ROOT
ATOM      1  O   UNL     1      36.557 -23.782 -15.915  0.00  0.00    -0.471 OA
ATOM      2  O   UNL     1      33.998 -24.161 -12.729  0.00  0.00    -0.288 OA
ATOM      3  C   UNL     1      35.134 -23.693 -16.087  0.00  0.00    +0.222 C 
ATOM      4  C   UNL     1      34.462 -23.101 -14.848  0.00  0.00    +0.217 C 
ATOM      5  C   UNL     1      34.777 -23.980 -13.657  0.00  0.00    +0.209 C 
ATOM      6  C   UNL     1      36.120 -24.594 -13.656  0.00  0.00    +0.105 C 
ATOM      7  C   UNL     1      36.938 -24.445 -14.779  0.00  0.00    +0.148 C 
ATOM      8  C   UNL     1      36.579 -25.291 -12.535  0.00  0.00    +0.142 C 
ATOM      9  C   UNL     1      38.233 -24.966 -14.765  0.00  0.00    +0.074 C 
ATOM     10  C   UNL     1      37.867 -25.824 -12.535  0.00  0.00    +0.073 C 
ATOM     11  C   UNL     1      38.695 -25.658 -13.645  0.00  0.00    +0.140 C 
ENDROOT
BRANCH   3  12
ATOM     12  C   UNL     1      34.883 -22.847 -17.321  0.00  0.00    +0.023 C 
ATOM     13  C   UNL     1      35.907 -22.060 -17.843  0.00  0.00    +0.039 C 
ATOM     14  C   UNL     1      33.629 -22.859 -17.929  0.00  0.00    +0.003 C 
ATOM     15  C   UNL     1      35.677 -21.282 -18.978  0.00  0.00    +0.167 C 
ATOM     16  C   UNL     1      33.398 -22.081 -19.063  0.00  0.00    +0.040 C 
ATOM     17  C   UNL     1      34.423 -21.292 -19.587  0.00  0.00    +0.167 C 
BRANCH  15  18
ATOM     18  O   UNL     1      36.685 -20.516 -19.481  0.00  0.00    -0.503 OA
ATOM     19  H   UNL     1      37.010 -19.787 -18.990  0.00  0.00    +0.292 HD
ENDBRANCH  15  18
BRANCH  17  20
ATOM     20  O   UNL     1      34.186 -20.538 -20.696  0.00  0.00    -0.503 OA
ATOM     21  H   UNL     1      33.822 -19.679 -20.609  0.00  0.00    +0.292 HD
ENDBRANCH  17  20
ENDBRANCH   3  12
BRANCH   4  22
ATOM     22  O   UNL     1      33.055 -23.079 -15.019  0.00  0.00    -0.374 OA
ATOM     23  H   UNL     1      32.658 -22.490 -14.358  0.00  0.00    +0.211 HD
ENDBRANCH   4  22
BRANCH   8  24
ATOM     24  O   UNL     1      35.822 -25.467 -11.417  0.00  0.00    -0.505 OA
ATOM     25  H   UNL     1      36.075 -26.098 -10.773  0.00  0.00    +0.292 HD
ENDBRANCH   8  24
BRANCH  11  26
ATOM     26  O   UNL     1      39.955 -26.174 -13.638  0.00  0.00    -0.505 OA
ATOM     27  H   UNL     1      40.082 -27.099 -13.555  0.00  0.00    +0.292 HD
ENDBRANCH  11  26
TORSDOF 6
ENDMDL
MODEL 7
REMARK VINA RESULT:      -9.3      3.977      6.779
REMARK  Name = 439533
REMARK  6 active torsions:
REMARK  status: ('A' for Active; 'I' for Inactive)
REMARK    1  A    between atoms: C_3  and  C_12
REMARK    2  A    between atoms: C_4  and  O_22
REMARK    3  A    between atoms: C_8  and  O_24
REMARK    4  A    between atoms: C_11  and  O_26
REMARK    5  A    between atoms: C_15  and  O_18
REMARK    6  A    between atoms: C_17  and  O_20
REMARK                            x       y       z     vdW  Elec       q    Type
REMARK                         _______ _______ _______ _____ _____    ______ ____
ROOT
ATOM      1  O   UNL     1      33.925 -11.575 -24.108  0.00  0.00    -0.471 OA
ATOM      2  O   UNL     1      31.122 -10.892 -21.189  0.00  0.00    -0.288 OA
ATOM      3  C   UNL     1      33.535 -12.611 -23.192  0.00  0.00    +0.222 C 
ATOM      4  C   UNL     1      32.075 -12.452 -22.765  0.00  0.00    +0.217 C 
ATOM      5  C   UNL     1      31.905 -11.099 -22.109  0.00  0.00    +0.209 C 
ATOM      6  C   UNL     1      32.725 -10.009 -22.673  0.00  0.00    +0.105 C 
ATOM      7  C   UNL     1      33.676 -10.309 -23.651  0.00  0.00    +0.148 C 
ATOM      8  C   UNL     1      32.532  -8.689 -22.255  0.00  0.00    +0.142 C 
ATOM      9  C   UNL     1      34.412  -9.278 -24.239  0.00  0.00    +0.074 C 
ATOM     10  C   UNL     1      33.284  -7.667 -22.833  0.00  0.00    +0.073 C 
ATOM     11  C   UNL     1      34.218  -7.959 -23.826  0.00  0.00    +0.140 C 
ENDROOT
BRANCH   3  12
ATOM     12  C   UNL     1      33.777 -13.938 -23.885  0.00  0.00    +0.023 C 
ATOM     13  C   UNL     1      34.602 -14.891 -23.290  0.00  0.00    +0.039 C 
ATOM     14  C   UNL     1      33.176 -14.201 -25.114  0.00  0.00    +0.003 C 
ATOM     15  C   UNL     1      34.826 -16.112 -23.927  0.00  0.00    +0.167 C 
ATOM     16  C   UNL     1      33.399 -15.421 -25.751  0.00  0.00    +0.040 C 
ATOM     17  C   UNL     1      34.225 -16.377 -25.157  0.00  0.00    +0.167 C 
BRANCH  15  18
ATOM     18  O   UNL     1      35.633 -17.037 -23.338  0.00  0.00    -0.503 OA
ATOM     19  H   UNL     1      35.410 -17.947 -23.378  0.00  0.00    +0.292 HD
ENDBRANCH  15  18
BRANCH  17  20
ATOM     20  O   UNL     1      34.434 -17.565 -25.788  0.00  0.00    -0.503 OA
ATOM     21  H   UNL     1      35.179 -18.089 -25.565  0.00  0.00    +0.292 HD
ENDBRANCH  17  20
ENDBRANCH   3  12
BRANCH   4  22
ATOM     22  O   UNL     1      31.732 -13.449 -21.818  0.00  0.00    -0.374 OA
ATOM     23  H   UNL     1      31.097 -13.084 -21.181  0.00  0.00    +0.211 HD
ENDBRANCH   4  22
BRANCH   8  24
ATOM     24  O   UNL     1      31.620  -8.344 -21.304  0.00  0.00    -0.505 OA
ATOM     25  H   UNL     1      31.903  -7.943 -20.505  0.00  0.00    +0.292 HD
ENDBRANCH   8  24
BRANCH  11  26
ATOM     26  O   UNL     1      34.945  -6.957 -24.392  0.00  0.00    -0.505 OA
ATOM     27  H   UNL     1      34.509  -6.227 -24.786  0.00  0.00    +0.292 HD
ENDBRANCH  11  26
TORSDOF 6
ENDMDL
MODEL 8
REMARK VINA RESULT:      -9.3      4.184      6.897
REMARK  Name = 439533
REMARK  6 active torsions:
REMARK  status: ('A' for Active; 'I' for Inactive)
REMARK    1  A    between atoms: C_3  and  C_12
REMARK    2  A    between atoms: C_4  and  O_22
REMARK    3  A    between atoms: C_8  and  O_24
REMARK    4  A    between atoms: C_11  and  O_26
REMARK    5  A    between atoms: C_15  and  O_18
REMARK    6  A    between atoms: C_17  and  O_20
REMARK                            x       y       z     vdW  Elec       q    Type
REMARK                         _______ _______ _______ _____ _____    ______ ____
ROOT
ATOM      1  O   UNL     1      33.944 -11.580 -24.082  0.00  0.00    -0.471 OA
ATOM      2  O   UNL     1      31.105 -10.868 -21.204  0.00  0.00    -0.288 OA
ATOM      3  C   UNL     1      33.547 -12.604 -23.157  0.00  0.00    +0.222 C 
ATOM      4  C   UNL     1      32.082 -12.446 -22.749  0.00  0.00    +0.217 C 
ATOM      5  C   UNL     1      31.899 -11.085 -22.112  0.00  0.00    +0.209 C 
ATOM      6  C   UNL     1      32.722  -9.999 -22.682  0.00  0.00    +0.105 C 
ATOM      7  C   UNL     1      33.685 -10.308 -23.646  0.00  0.00    +0.148 C 
ATOM      8  C   UNL     1      32.520  -8.675 -22.284  0.00  0.00    +0.142 C 
ATOM      9  C   UNL     1      34.424  -9.283 -24.238  0.00  0.00    +0.074 C 
ATOM     10  C   UNL     1      33.274  -7.658 -22.866  0.00  0.00    +0.073 C 
ATOM     11  C   UNL     1      34.221  -7.959 -23.845  0.00  0.00    +0.140 C 
ENDROOT
BRANCH   3  12
ATOM     12  C   UNL     1      33.802 -13.940 -23.829  0.00  0.00    +0.023 C 
ATOM     13  C   UNL     1      33.250 -14.203 -25.081  0.00  0.00    +0.039 C 
ATOM     14  C   UNL     1      34.587 -14.900 -23.194  0.00  0.00    +0.003 C 
ATOM     15  C   UNL     1      33.484 -15.432 -25.700  0.00  0.00    +0.167 C 
ATOM     16  C   UNL     1      34.822 -16.127 -23.812  0.00  0.00    +0.040 C 
ATOM     17  C   UNL     1      34.269 -16.393 -25.065  0.00  0.00    +0.167 C 
BRANCH  15  18
ATOM     18  O   UNL     1      32.941 -15.680 -26.924  0.00  0.00    -0.503 OA
ATOM     19  H   UNL     1      32.308 -15.090 -27.285  0.00  0.00    +0.292 HD
ENDBRANCH  15  18
BRANCH  17  20
ATOM     20  O   UNL     1      34.506 -17.596 -25.660  0.00  0.00    -0.503 OA
ATOM     21  H   UNL     1      34.417 -17.685 -26.589  0.00  0.00    +0.292 HD
ENDBRANCH  17  20
ENDBRANCH   3  12
BRANCH   4  22
ATOM     22  O   UNL     1      31.732 -13.431 -21.793  0.00  0.00    -0.374 OA
ATOM     23  H   UNL     1      31.584 -13.008 -20.932  0.00  0.00    +0.211 HD
ENDBRANCH   4  22
BRANCH   8  24
ATOM     24  O   UNL     1      31.596  -8.321 -21.347  0.00  0.00    -0.505 OA
ATOM     25  H   UNL     1      30.815  -7.871 -21.605  0.00  0.00    +0.292 HD
ENDBRANCH   8  24
BRANCH  11  26
ATOM     26  O   UNL     1      34.950  -6.961 -24.417  0.00  0.00    -0.505 OA
ATOM     27  H   UNL     1      34.539  -6.149 -24.639  0.00  0.00    +0.292 HD
ENDBRANCH  11  26
TORSDOF 6
ENDMDL
MODEL 9
REMARK VINA RESULT:      -9.2      1.023      1.671
REMARK  Name = 439533
REMARK  6 active torsions:
REMARK  status: ('A' for Active; 'I' for Inactive)
REMARK    1  A    between atoms: C_3  and  C_12
REMARK    2  A    between atoms: C_4  and  O_22
REMARK    3  A    between atoms: C_8  and  O_24
REMARK    4  A    between atoms: C_11  and  O_26
REMARK    5  A    between atoms: C_15  and  O_18
REMARK    6  A    between atoms: C_17  and  O_20
REMARK                            x       y       z     vdW  Elec       q    Type
REMARK                         _______ _______ _______ _____ _____    ______ ____
ROOT
ATOM      1  O   UNL     1      33.845 -16.487 -21.681  0.00  0.00    -0.471 OA
ATOM      2  O   UNL     1      34.357 -16.282 -25.747  0.00  0.00    -0.288 OA
ATOM      3  C   UNL     1      33.957 -17.676 -22.478  0.00  0.00    +0.222 C 
ATOM      4  C   UNL     1      34.857 -17.446 -23.693  0.00  0.00    +0.217 C 
ATOM      5  C   UNL     1      34.274 -16.325 -24.526  0.00  0.00    +0.209 C 
ATOM      6  C   UNL     1      33.617 -15.243 -23.767  0.00  0.00    +0.105 C 
ATOM      7  C   UNL     1      33.455 -15.380 -22.386  0.00  0.00    +0.148 C 
ATOM      8  C   UNL     1      33.187 -14.082 -24.417  0.00  0.00    +0.142 C 
ATOM      9  C   UNL     1      32.894 -14.336 -21.649  0.00  0.00    +0.074 C 
ATOM     10  C   UNL     1      32.610 -13.052 -23.677  0.00  0.00    +0.073 C 
ATOM     11  C   UNL     1      32.468 -13.175 -22.295  0.00  0.00    +0.140 C 
ENDROOT
BRANCH   3  12
ATOM     12  C   UNL     1      34.494 -18.772 -21.579  0.00  0.00    +0.023 C 
ATOM     13  C   UNL     1      35.861 -18.852 -21.323  0.00  0.00    +0.039 C 
ATOM     14  C   UNL     1      33.620 -19.697 -21.011  0.00  0.00    +0.003 C 
ATOM     15  C   UNL     1      36.357 -19.860 -20.495  0.00  0.00    +0.167 C 
ATOM     16  C   UNL     1      34.114 -20.705 -20.184  0.00  0.00    +0.040 C 
ATOM     17  C   UNL     1      35.483 -20.787 -19.926  0.00  0.00    +0.167 C 
BRANCH  15  18
ATOM     18  O   UNL     1      37.694 -19.930 -20.250  0.00  0.00    -0.503 OA
ATOM     19  H   UNL     1      38.130 -19.219 -19.823  0.00  0.00    +0.292 HD
ENDBRANCH  15  18
BRANCH  17  20
ATOM     20  O   UNL     1      35.954 -21.775 -19.116  0.00  0.00    -0.503 OA
ATOM     21  H   UNL     1      36.864 -21.804 -18.893  0.00  0.00    +0.292 HD
ENDBRANCH  17  20
ENDBRANCH   3  12
BRANCH   4  22
ATOM     22  O   UNL     1      34.904 -18.613 -24.494  0.00  0.00    -0.374 OA
ATOM     23  H   UNL     1      34.471 -18.439 -25.345  0.00  0.00    +0.211 HD
ENDBRANCH   4  22
BRANCH   8  24
ATOM     24  O   UNL     1      33.319 -13.900 -25.761  0.00  0.00    -0.505 OA
ATOM     25  H   UNL     1      32.801 -13.254 -26.200  0.00  0.00    +0.292 HD
ENDBRANCH   8  24
BRANCH  11  26
ATOM     26  O   UNL     1      31.911 -12.163 -21.576  0.00  0.00    -0.505 OA
ATOM     27  H   UNL     1      31.481 -11.456 -22.016  0.00  0.00    +0.292 HD
ENDBRANCH  11  26
TORSDOF 6
ENDMDL
