MODEL 1
REMARK VINA RESULT:      -8.5      0.000      0.000
REMARK  Name = 5282253
REMARK  10 active torsions:
REMARK  status: ('A' for Active; 'I' for Inactive)
REMARK    1  A    between atoms: C_2  and  C_23
REMARK    2  A    between atoms: C_3  and  C_8
REMARK    3  A    between atoms: CA_4  and  C_20
REMARK    4  A    between atoms: C_10  and  C_11
REMARK    5  A    between atoms: C_12  and  C_13
REMARK    6  A    between atoms: C_13  and  C_16
REMARK    7  A    between atoms: C_16  and  O_17
REMARK    8  A    between atoms: C_20  and  O_21
REMARK    9  A    between atoms: C_23  and  C_25
REMARK   10  A    between atoms: C_25  and  O_26
REMARK                            x       y       z     vdW  Elec       q    Type
REMARK                         _______ _______ _______ _____ _____    ______ ____
ROOT
ATOM      1  N   UNL     1      34.951 -23.846 -12.374  0.00  0.00    +0.392 N 
ATOM      2  C   UNL     1      36.318 -24.599 -14.210  0.00  0.00    +0.004 C 
ATOM      3  C   UNL     1      35.634 -23.250 -14.513  0.00  0.00    -0.004 C 
ATOM      4  CA  UNL     1      35.853 -24.926 -12.778  0.00  0.00    +0.040 C 
ATOM      5  C   UNL     1      34.410 -23.278 -13.607  0.00  0.00    -0.077 C 
ATOM      6  H1  UNL     1      35.462 -23.135 -11.853  0.00  0.00    -0.084 HD
ATOM      7  H2  UNL     1      34.206 -24.193 -11.770  0.00  0.00    -0.084 HD
ENDROOT
BRANCH   3   8
ATOM      8  C   UNL     1      35.311 -22.958 -15.941  0.00  0.00    -0.046 C 
ATOM      9  C   UNL     1      36.477 -22.424 -16.733  0.00  0.00    +0.026 C 
ATOM     10  C   UNL     1      34.114 -23.130 -16.535  0.00  0.00    -0.009 C 
BRANCH  10  11
ATOM     11  C   UNL     1      32.896 -23.627 -15.928  0.00  0.00    -0.005 C 
ATOM     12  C   UNL     1      31.675 -23.216 -16.311  0.00  0.00    -0.015 C 
BRANCH  12  13
ATOM     13  C   UNL     1      30.346 -23.664 -15.748  0.00  0.00    +0.121 C 
ATOM     14  C   UNL     1      30.279 -23.844 -14.233  0.00  0.00    +0.016 C 
BRANCH  13  16
ATOM     15  O   UNL     1      28.874 -22.492 -17.308  0.00  0.00    -0.250 OA
ATOM     16  C   UNL     1      29.289 -22.652 -16.167  0.00  0.00    +0.317 C 
BRANCH  16  17
ATOM     17  O   UNL     1      28.817 -21.942 -15.108  0.00  0.00    -0.480 OA
ATOM     18  H   UNL     1      29.210 -21.123 -14.880  0.00  0.00    +0.295 HD
ENDBRANCH  16  17
ENDBRANCH  13  16
ENDBRANCH  12  13
ENDBRANCH  10  11
ENDBRANCH   3   8
BRANCH   4  20
ATOM     19  OXT UNL     1      37.179 -24.053 -10.961  0.00  0.00    -0.253 OA
ATOM     20  C   UNL     1      36.984 -24.916 -11.804  0.00  0.00    +0.293 C 
BRANCH  20  21
ATOM     21  O   UNL     1      37.777 -26.002 -11.979  0.00  0.00    -0.482 OA
ATOM     22  H   UNL     1      37.999 -26.284 -12.845  0.00  0.00    +0.295 HD
ENDBRANCH  20  21
ENDBRANCH   4  20
BRANCH   2  23
ATOM     23  C   UNL     1      35.936 -25.739 -15.160  0.00  0.00    +0.108 C 
BRANCH  23  25
ATOM     24  O   UNL     1      38.070 -26.802 -14.654  0.00  0.00    -0.250 OA
ATOM     25  C   UNL     1      37.074 -26.700 -15.355  0.00  0.00    +0.314 C 
BRANCH  25  26
ATOM     26  O   UNL     1      36.840 -27.467 -16.450  0.00  0.00    -0.480 OA
ATOM     27  H   UNL     1      37.373 -27.367 -17.214  0.00  0.00    +0.295 HD
ENDBRANCH  25  26
ENDBRANCH  23  25
ENDBRANCH   2  23
TORSDOF 10
ENDMDL
MODEL 2
REMARK VINA RESULT:      -8.5      1.369      1.665
REMARK  Name = 5282253
REMARK  10 active torsions:
REMARK  status: ('A' for Active; 'I' for Inactive)
REMARK    1  A    between atoms: C_2  and  C_23
REMARK    2  A    between atoms: C_3  and  C_8
REMARK    3  A    between atoms: CA_4  and  C_20
REMARK    4  A    between atoms: C_10  and  C_11
REMARK    5  A    between atoms: C_12  and  C_13
REMARK    6  A    between atoms: C_13  and  C_16
REMARK    7  A    between atoms: C_16  and  O_17
REMARK    8  A    between atoms: C_20  and  O_21
REMARK    9  A    between atoms: C_23  and  C_25
REMARK   10  A    between atoms: C_25  and  O_26
REMARK                            x       y       z     vdW  Elec       q    Type
REMARK                         _______ _______ _______ _____ _____    ______ ____
ROOT
ATOM      1  N   UNL     1      35.082 -24.019 -12.210  0.00  0.00    +0.392 N 
ATOM      2  C   UNL     1      36.335 -24.681 -14.159  0.00  0.00    +0.004 C 
ATOM      3  C   UNL     1      35.589 -23.348 -14.375  0.00  0.00    -0.004 C 
ATOM      4  CA  UNL     1      35.985 -25.059 -12.706  0.00  0.00    +0.040 C 
ATOM      5  C   UNL     1      34.436 -23.439 -13.385  0.00  0.00    -0.077 C 
ATOM      6  H1  UNL     1      35.607 -23.305 -11.707  0.00  0.00    -0.084 HD
ATOM      7  H2  UNL     1      34.394 -24.405 -11.563  0.00  0.00    -0.084 HD
ENDROOT
BRANCH   3   8
ATOM      8  C   UNL     1      35.154 -23.032 -15.768  0.00  0.00    -0.046 C 
ATOM      9  C   UNL     1      36.264 -22.523 -16.652  0.00  0.00    +0.026 C 
ATOM     10  C   UNL     1      33.907 -23.164 -16.259  0.00  0.00    -0.009 C 
BRANCH  10  11
ATOM     11  C   UNL     1      32.731 -23.634 -15.555  0.00  0.00    -0.005 C 
ATOM     12  C   UNL     1      31.510 -23.104 -15.748  0.00  0.00    -0.015 C 
BRANCH  12  13
ATOM     13  C   UNL     1      30.224 -23.513 -15.069  0.00  0.00    +0.121 C 
ATOM     14  C   UNL     1      29.155 -24.137 -15.964  0.00  0.00    +0.016 C 
BRANCH  13  16
ATOM     15  O   UNL     1      30.927 -24.189 -12.828  0.00  0.00    -0.250 OA
ATOM     16  C   UNL     1      30.565 -24.495 -13.958  0.00  0.00    +0.317 C 
BRANCH  16  17
ATOM     17  O   UNL     1      30.396 -25.786 -14.350  0.00  0.00    -0.480 OA
ATOM     18  H   UNL     1      31.142 -26.331 -14.502  0.00  0.00    +0.295 HD
ENDBRANCH  16  17
ENDBRANCH  13  16
ENDBRANCH  12  13
ENDBRANCH  10  11
ENDBRANCH   3   8
BRANCH   4  20
ATOM     19  OXT UNL     1      37.502 -24.106 -11.090  0.00  0.00    -0.253 OA
ATOM     20  C   UNL     1      37.183 -25.036 -11.816  0.00  0.00    +0.293 C 
BRANCH  20  21
ATOM     21  O   UNL     1      37.880 -26.194 -11.920  0.00  0.00    -0.482 OA
ATOM     22  H   UNL     1      38.669 -26.222 -12.425  0.00  0.00    +0.295 HD
ENDBRANCH  20  21
ENDBRANCH   4  20
BRANCH   2  23
ATOM     23  C   UNL     1      35.920 -25.810 -15.109  0.00  0.00    +0.108 C 
BRANCH  23  25
ATOM     24  O   UNL     1      38.037 -26.929 -14.650  0.00  0.00    -0.250 OA
ATOM     25  C   UNL     1      37.051 -26.767 -15.355  0.00  0.00    +0.314 C 
BRANCH  25  26
ATOM     26  O   UNL     1      36.824 -27.455 -16.504  0.00  0.00    -0.480 OA
ATOM     27  H   UNL     1      36.422 -27.026 -17.233  0.00  0.00    +0.295 HD
ENDBRANCH  25  26
ENDBRANCH  23  25
ENDBRANCH   2  23
TORSDOF 10
ENDMDL
MODEL 3
REMARK VINA RESULT:      -8.3      1.714      2.990
REMARK  Name = 5282253
REMARK  10 active torsions:
REMARK  status: ('A' for Active; 'I' for Inactive)
REMARK    1  A    between atoms: C_2  and  C_23
REMARK    2  A    between atoms: C_3  and  C_8
REMARK    3  A    between atoms: CA_4  and  C_20
REMARK    4  A    between atoms: C_10  and  C_11
REMARK    5  A    between atoms: C_12  and  C_13
REMARK    6  A    between atoms: C_13  and  C_16
REMARK    7  A    between atoms: C_16  and  O_17
REMARK    8  A    between atoms: C_20  and  O_21
REMARK    9  A    between atoms: C_23  and  C_25
REMARK   10  A    between atoms: C_25  and  O_26
REMARK                            x       y       z     vdW  Elec       q    Type
REMARK                         _______ _______ _______ _____ _____    ______ ____
ROOT
ATOM      1  N   UNL     1      38.602 -25.342 -14.410  0.00  0.00    +0.392 N 
ATOM      2  C   UNL     1      36.511 -24.309 -13.803  0.00  0.00    +0.004 C 
ATOM      3  C   UNL     1      36.832 -24.129 -15.301  0.00  0.00    -0.004 C 
ATOM      4  CA  UNL     1      37.698 -25.139 -13.277  0.00  0.00    +0.040 C 
ATOM      5  C   UNL     1      38.350 -24.243 -15.340  0.00  0.00    -0.077 C 
ATOM      6  H1  UNL     1      38.409 -26.236 -14.860  0.00  0.00    -0.084 HD
ATOM      7  H2  UNL     1      39.576 -25.355 -14.109  0.00  0.00    -0.084 HD
ENDROOT
BRANCH   3   8
ATOM      8  C   UNL     1      36.311 -22.897 -15.963  0.00  0.00    -0.046 C 
ATOM      9  C   UNL     1      37.373 -21.871 -16.267  0.00  0.00    +0.026 C 
ATOM     10  C   UNL     1      35.027 -22.655 -16.289  0.00  0.00    -0.009 C 
BRANCH  10  11
ATOM     11  C   UNL     1      33.886 -23.522 -16.071  0.00  0.00    -0.005 C 
ATOM     12  C   UNL     1      32.783 -23.119 -15.417  0.00  0.00    -0.015 C 
BRANCH  12  13
ATOM     13  C   UNL     1      31.545 -23.936 -15.133  0.00  0.00    +0.121 C 
ATOM     14  C   UNL     1      31.110 -24.019 -13.670  0.00  0.00    +0.016 C 
BRANCH  13  16
ATOM     15  O   UNL     1      30.521 -22.631 -16.927  0.00  0.00    -0.250 OA
ATOM     16  C   UNL     1      30.399 -23.361 -15.952  0.00  0.00    +0.317 C 
BRANCH  16  17
ATOM     17  O   UNL     1      29.188 -23.776 -15.494  0.00  0.00    -0.480 OA
ATOM     18  H   UNL     1      28.405 -23.348 -15.781  0.00  0.00    +0.295 HD
ENDBRANCH  16  17
ENDBRANCH  13  16
ENDBRANCH  12  13
ENDBRANCH  10  11
ENDBRANCH   3   8
BRANCH   4  20
ATOM     19  OXT UNL     1      37.075 -26.822 -11.664  0.00  0.00    -0.253 OA
ATOM     20  C   UNL     1      37.277 -26.498 -12.825  0.00  0.00    +0.293 C 
BRANCH  20  21
ATOM     21  O   UNL     1      37.147 -27.336 -13.883  0.00  0.00    -0.482 OA
ATOM     22  H   UNL     1      36.835 -28.210 -13.752  0.00  0.00    +0.295 HD
ENDBRANCH  20  21
ENDBRANCH   4  20
BRANCH   2  23
ATOM     23  C   UNL     1      36.393 -23.002 -13.011  0.00  0.00    +0.108 C 
BRANCH  23  25
ATOM     24  O   UNL     1      36.804 -23.664 -10.701  0.00  0.00    -0.250 OA
ATOM     25  C   UNL     1      37.148 -23.073 -11.714  0.00  0.00    +0.314 C 
BRANCH  25  26
ATOM     26  O   UNL     1      38.304 -22.369 -11.821  0.00  0.00    -0.480 OA
ATOM     27  H   UNL     1      38.657 -21.932 -11.071  0.00  0.00    +0.295 HD
ENDBRANCH  25  26
ENDBRANCH  23  25
ENDBRANCH   2  23
TORSDOF 10
ENDMDL
MODEL 4
REMARK VINA RESULT:      -8.0     12.904     14.799
REMARK  Name = 5282253
REMARK  10 active torsions:
REMARK  status: ('A' for Active; 'I' for Inactive)
REMARK    1  A    between atoms: C_2  and  C_23
REMARK    2  A    between atoms: C_3  and  C_8
REMARK    3  A    between atoms: CA_4  and  C_20
REMARK    4  A    between atoms: C_10  and  C_11
REMARK    5  A    between atoms: C_12  and  C_13
REMARK    6  A    between atoms: C_13  and  C_16
REMARK    7  A    between atoms: C_16  and  O_17
REMARK    8  A    between atoms: C_20  and  O_21
REMARK    9  A    between atoms: C_23  and  C_25
REMARK   10  A    between atoms: C_25  and  O_26
REMARK                            x       y       z     vdW  Elec       q    Type
REMARK                         _______ _______ _______ _____ _____    ______ ____
ROOT
ATOM      1  N   UNL     1      32.730 -14.104 -21.644  0.00  0.00    +0.392 N 
ATOM      2  C   UNL     1      34.156 -14.805 -23.456  0.00  0.00    +0.004 C 
ATOM      3  C   UNL     1      33.722 -13.331 -23.597  0.00  0.00    -0.004 C 
ATOM      4  CA  UNL     1      33.494 -15.251 -22.138  0.00  0.00    +0.040 C 
ATOM      5  C   UNL     1      32.419 -13.283 -22.812  0.00  0.00    -0.077 C 
ATOM      6  H1  UNL     1      33.284 -13.570 -20.976  0.00  0.00    -0.084 HD
ATOM      7  H2  UNL     1      31.880 -14.403 -21.167  0.00  0.00    -0.084 HD
ENDROOT
BRANCH   3   8
ATOM      8  C   UNL     1      33.604 -12.789 -24.982  0.00  0.00    -0.046 C 
ATOM      9  C   UNL     1      33.029 -13.767 -25.974  0.00  0.00    +0.026 C 
ATOM     10  C   UNL     1      33.958 -11.552 -25.383  0.00  0.00    -0.009 C 
BRANCH  10  11
ATOM     11  C   UNL     1      34.523 -10.494 -24.571  0.00  0.00    -0.005 C 
ATOM     12  C   UNL     1      33.799  -9.448 -24.137  0.00  0.00    -0.015 C 
BRANCH  12  13
ATOM     13  C   UNL     1      34.285  -8.293 -23.293  0.00  0.00    +0.121 C 
ATOM     14  C   UNL     1      34.719  -7.038 -24.048  0.00  0.00    +0.016 C 
BRANCH  13  16
ATOM     15  O   UNL     1      32.668  -8.672 -21.499  0.00  0.00    -0.250 OA
ATOM     16  C   UNL     1      33.177  -7.918 -22.319  0.00  0.00    +0.317 C 
BRANCH  16  17
ATOM     17  O   UNL     1      32.817  -6.612 -22.437  0.00  0.00    -0.480 OA
ATOM     18  H   UNL     1      33.447  -5.936 -22.283  0.00  0.00    +0.295 HD
ENDBRANCH  16  17
ENDBRANCH  13  16
ENDBRANCH  12  13
ENDBRANCH  10  11
ENDBRANCH   3   8
BRANCH   4  20
ATOM     19  OXT UNL     1      34.930 -14.778 -20.257  0.00  0.00    -0.253 OA
ATOM     20  C   UNL     1      34.502 -15.570 -21.083  0.00  0.00    +0.293 C 
BRANCH  20  21
ATOM     21  O   UNL     1      34.885 -16.868 -21.164  0.00  0.00    -0.482 OA
ATOM     22  H   UNL     1      35.619 -17.107 -21.696  0.00  0.00    +0.295 HD
ENDBRANCH  20  21
ENDBRANCH   4  20
BRANCH   2  23
ATOM     23  C   UNL     1      33.708 -15.718 -24.602  0.00  0.00    +0.108 C 
BRANCH  23  25
ATOM     24  O   UNL     1      34.483 -17.839 -25.521  0.00  0.00    -0.250 OA
ATOM     25  C   UNL     1      34.641 -16.882 -24.777  0.00  0.00    +0.314 C 
BRANCH  25  26
ATOM     26  O   UNL     1      35.722 -16.724 -23.971  0.00  0.00    -0.480 OA
ATOM     27  H   UNL     1      36.480 -17.262 -24.093  0.00  0.00    +0.295 HD
ENDBRANCH  25  26
ENDBRANCH  23  25
ENDBRANCH   2  23
TORSDOF 10
ENDMDL
MODEL 5
REMARK VINA RESULT:      -7.9      3.744      4.975
REMARK  Name = 5282253
REMARK  10 active torsions:
REMARK  status: ('A' for Active; 'I' for Inactive)
REMARK    1  A    between atoms: C_2  and  C_23
REMARK    2  A    between atoms: C_3  and  C_8
REMARK    3  A    between atoms: CA_4  and  C_20
REMARK    4  A    between atoms: C_10  and  C_11
REMARK    5  A    between atoms: C_12  and  C_13
REMARK    6  A    between atoms: C_13  and  C_16
REMARK    7  A    between atoms: C_16  and  O_17
REMARK    8  A    between atoms: C_20  and  O_21
REMARK    9  A    between atoms: C_23  and  C_25
REMARK   10  A    between atoms: C_25  and  O_26
REMARK                            x       y       z     vdW  Elec       q    Type
REMARK                         _______ _______ _______ _____ _____    ______ ____
ROOT
ATOM      1  N   UNL     1      33.248 -23.652 -15.693  0.00  0.00    +0.392 N 
ATOM      2  C   UNL     1      35.447 -23.915 -14.742  0.00  0.00    +0.004 C 
ATOM      3  C   UNL     1      35.394 -22.764 -15.768  0.00  0.00    -0.004 C 
ATOM      4  CA  UNL     1      33.999 -24.441 -14.715  0.00  0.00    +0.040 C 
ATOM      5  C   UNL     1      34.225 -23.158 -16.661  0.00  0.00    -0.077 C 
ATOM      6  H1  UNL     1      32.782 -22.870 -15.233  0.00  0.00    -0.084 HD
ATOM      7  H2  UNL     1      32.529 -24.213 -16.148  0.00  0.00    -0.084 HD
ENDROOT
BRANCH   3   8
ATOM      8  C   UNL     1      36.647 -22.470 -16.523  0.00  0.00    -0.046 C 
ATOM      9  C   UNL     1      37.908 -22.779 -15.756  0.00  0.00    +0.026 C 
ATOM     10  C   UNL     1      36.723 -21.975 -17.774  0.00  0.00    -0.009 C 
BRANCH  10  11
ATOM     11  C   UNL     1      35.622 -21.624 -18.647  0.00  0.00    -0.005 C 
ATOM     12  C   UNL     1      35.790 -20.920 -19.780  0.00  0.00    -0.015 C 
BRANCH  12  13
ATOM     13  C   UNL     1      34.718 -20.498 -20.757  0.00  0.00    +0.121 C 
ATOM     14  C   UNL     1      33.294 -20.423 -20.209  0.00  0.00    +0.016 C 
BRANCH  13  16
ATOM     15  O   UNL     1      35.539 -18.198 -20.666  0.00  0.00    -0.250 OA
ATOM     16  C   UNL     1      35.098 -19.136 -21.318  0.00  0.00    +0.317 C 
BRANCH  16  17
ATOM     17  O   UNL     1      34.918 -19.072 -22.665  0.00  0.00    -0.480 OA
ATOM     18  H   UNL     1      35.247 -18.339 -23.147  0.00  0.00    +0.295 HD
ENDBRANCH  16  17
ENDBRANCH  13  16
ENDBRANCH  12  13
ENDBRANCH  10  11
ENDBRANCH   3   8
BRANCH   4  20
ATOM     19  OXT UNL     1      32.181 -24.488 -13.129  0.00  0.00    -0.253 OA
ATOM     20  C   UNL     1      33.341 -24.211 -13.394  0.00  0.00    +0.293 C 
BRANCH  20  21
ATOM     21  O   UNL     1      34.210 -23.647 -12.519  0.00  0.00    -0.482 OA
ATOM     22  H   UNL     1      34.154 -22.731 -12.330  0.00  0.00    +0.295 HD
ENDBRANCH  20  21
ENDBRANCH   4  20
BRANCH   2  23
ATOM     23  C   UNL     1      36.411 -25.050 -15.100  0.00  0.00    +0.108 C 
BRANCH  23  25
ATOM     24  O   UNL     1      36.612 -25.510 -12.714  0.00  0.00    -0.250 OA
ATOM     25  C   UNL     1      36.884 -25.780 -13.875  0.00  0.00    +0.314 C 
BRANCH  25  26
ATOM     26  O   UNL     1      37.680 -26.816 -14.241  0.00  0.00    -0.480 OA
ATOM     27  H   UNL     1      38.370 -27.101 -13.674  0.00  0.00    +0.295 HD
ENDBRANCH  25  26
ENDBRANCH  23  25
ENDBRANCH   2  23
TORSDOF 10
ENDMDL
MODEL 6
REMARK VINA RESULT:      -7.7     13.273     15.183
REMARK  Name = 5282253
REMARK  10 active torsions:
REMARK  status: ('A' for Active; 'I' for Inactive)
REMARK    1  A    between atoms: C_2  and  C_23
REMARK    2  A    between atoms: C_3  and  C_8
REMARK    3  A    between atoms: CA_4  and  C_20
REMARK    4  A    between atoms: C_10  and  C_11
REMARK    5  A    between atoms: C_12  and  C_13
REMARK    6  A    between atoms: C_13  and  C_16
REMARK    7  A    between atoms: C_16  and  O_17
REMARK    8  A    between atoms: C_20  and  O_21
REMARK    9  A    between atoms: C_23  and  C_25
REMARK   10  A    between atoms: C_25  and  O_26
REMARK                            x       y       z     vdW  Elec       q    Type
REMARK                         _______ _______ _______ _____ _____    ______ ____
ROOT
ATOM      1  N   UNL     1      32.663 -14.090 -21.977  0.00  0.00    +0.392 N 
ATOM      2  C   UNL     1      33.818 -13.973 -24.089  0.00  0.00    +0.004 C 
ATOM      3  C   UNL     1      33.681 -12.587 -23.427  0.00  0.00    -0.004 C 
ATOM      4  CA  UNL     1      33.154 -14.925 -23.075  0.00  0.00    +0.040 C 
ATOM      5  C   UNL     1      32.458 -12.755 -22.535  0.00  0.00    -0.077 C 
ATOM      6  H1  UNL     1      33.349 -14.056 -21.224  0.00  0.00    -0.084 HD
ATOM      7  H2  UNL     1      31.798 -14.464 -21.587  0.00  0.00    -0.084 HD
ENDROOT
BRANCH   3   8
ATOM      8  C   UNL     1      33.597 -11.406 -24.335  0.00  0.00    -0.046 C 
ATOM      9  C   UNL     1      34.340 -11.582 -25.635  0.00  0.00    +0.026 C 
ATOM     10  C   UNL     1      32.938 -10.258 -24.085  0.00  0.00    -0.009 C 
BRANCH  10  11
ATOM     11  C   UNL     1      32.179  -9.921 -22.898  0.00  0.00    -0.005 C 
ATOM     12  C   UNL     1      32.564  -8.960 -22.040  0.00  0.00    -0.015 C 
BRANCH  12  13
ATOM     13  C   UNL     1      31.853  -8.532 -20.777  0.00  0.00    +0.121 C 
ATOM     14  C   UNL     1      32.056  -9.421 -19.552  0.00  0.00    +0.016 C 
BRANCH  13  16
ATOM     15  O   UNL     1      31.872  -6.094 -20.946  0.00  0.00    -0.250 OA
ATOM     16  C   UNL     1      32.305  -7.119 -20.435  0.00  0.00    +0.317 C 
BRANCH  16  17
ATOM     17  O   UNL     1      33.247  -7.110 -19.455  0.00  0.00    -0.480 OA
ATOM     18  H   UNL     1      34.127  -6.857 -19.653  0.00  0.00    +0.295 HD
ENDBRANCH  16  17
ENDBRANCH  13  16
ENDBRANCH  12  13
ENDBRANCH  10  11
ENDBRANCH   3   8
BRANCH   4  20
ATOM     19  OXT UNL     1      33.941 -16.542 -21.466  0.00  0.00    -0.253 OA
ATOM     20  C   UNL     1      34.134 -15.877 -22.473  0.00  0.00    +0.293 C 
BRANCH  20  21
ATOM     21  O   UNL     1      35.280 -15.908 -23.198  0.00  0.00    -0.482 OA
ATOM     22  H   UNL     1      36.097 -16.087 -22.775  0.00  0.00    +0.295 HD
ENDBRANCH  20  21
ENDBRANCH   4  20
BRANCH   2  23
ATOM     23  C   UNL     1      33.134 -14.102 -25.454  0.00  0.00    +0.108 C 
BRANCH  23  25
ATOM     24  O   UNL     1      34.416 -16.103 -25.997  0.00  0.00    -0.250 OA
ATOM     25  C   UNL     1      33.388 -15.447 -26.074  0.00  0.00    +0.314 C 
BRANCH  25  26
ATOM     26  O   UNL     1      32.284 -15.851 -26.753  0.00  0.00    -0.480 OA
ATOM     27  H   UNL     1      31.796 -16.593 -26.453  0.00  0.00    +0.295 HD
ENDBRANCH  25  26
ENDBRANCH  23  25
ENDBRANCH   2  23
TORSDOF 10
ENDMDL
MODEL 7
REMARK VINA RESULT:      -7.6     12.467     14.559
REMARK  Name = 5282253
REMARK  10 active torsions:
REMARK  status: ('A' for Active; 'I' for Inactive)
REMARK    1  A    between atoms: C_2  and  C_23
REMARK    2  A    between atoms: C_3  and  C_8
REMARK    3  A    between atoms: CA_4  and  C_20
REMARK    4  A    between atoms: C_10  and  C_11
REMARK    5  A    between atoms: C_12  and  C_13
REMARK    6  A    between atoms: C_13  and  C_16
REMARK    7  A    between atoms: C_16  and  O_17
REMARK    8  A    between atoms: C_20  and  O_21
REMARK    9  A    between atoms: C_23  and  C_25
REMARK   10  A    between atoms: C_25  and  O_26
REMARK                            x       y       z     vdW  Elec       q    Type
REMARK                         _______ _______ _______ _____ _____    ______ ____
ROOT
ATOM      1  N   UNL     1      33.291 -12.991 -24.601  0.00  0.00    +0.392 N 
ATOM      2  C   UNL     1      33.383 -14.900 -23.134  0.00  0.00    +0.004 C 
ATOM      3  C   UNL     1      32.450 -13.798 -22.591  0.00  0.00    -0.004 C 
ATOM      4  CA  UNL     1      33.884 -14.323 -24.471  0.00  0.00    +0.040 C 
ATOM      5  C   UNL     1      32.999 -12.536 -23.243  0.00  0.00    -0.077 C 
ATOM      6  H1  UNL     1      32.433 -13.037 -25.149  0.00  0.00    -0.084 HD
ATOM      7  H2  UNL     1      33.924 -12.349 -25.077  0.00  0.00    -0.084 HD
ENDROOT
BRANCH   3   8
ATOM      8  C   UNL     1      32.315 -13.691 -21.109  0.00  0.00    -0.046 C 
ATOM      9  C   UNL     1      32.646 -14.965 -20.373  0.00  0.00    +0.026 C 
ATOM     10  C   UNL     1      31.938 -12.595 -20.423  0.00  0.00    -0.009 C 
BRANCH  10  11
ATOM     11  C   UNL     1      31.585 -11.299 -20.964  0.00  0.00    -0.005 C 
ATOM     12  C   UNL     1      32.136 -10.154 -20.525  0.00  0.00    -0.015 C 
BRANCH  12  13
ATOM     13  C   UNL     1      31.841  -8.755 -21.013  0.00  0.00    +0.121 C 
ATOM     14  C   UNL     1      32.679  -7.634 -20.403  0.00  0.00    +0.016 C 
BRANCH  13  16
ATOM     15  O   UNL     1      31.125  -8.568 -23.342  0.00  0.00    -0.250 OA
ATOM     16  C   UNL     1      32.021  -8.733 -22.524  0.00  0.00    +0.317 C 
BRANCH  16  17
ATOM     17  O   UNL     1      33.322  -8.892 -22.884  0.00  0.00    -0.480 OA
ATOM     18  H   UNL     1      33.883  -8.145 -22.958  0.00  0.00    +0.295 HD
ENDBRANCH  16  17
ENDBRANCH  13  16
ENDBRANCH  12  13
ENDBRANCH  10  11
ENDBRANCH   3   8
BRANCH   4  20
ATOM     19  OXT UNL     1      33.915 -16.142 -26.056  0.00  0.00    -0.253 OA
ATOM     20  C   UNL     1      33.400 -15.115 -25.641  0.00  0.00    +0.293 C 
BRANCH  20  21
ATOM     21  O   UNL     1      32.303 -14.537 -26.190  0.00  0.00    -0.482 OA
ATOM     22  H   UNL     1      32.402 -13.860 -26.831  0.00  0.00    +0.295 HD
ENDBRANCH  20  21
ENDBRANCH   4  20
BRANCH   2  23
ATOM     23  C   UNL     1      34.572 -15.236 -22.228  0.00  0.00    +0.108 C 
BRANCH  23  25
ATOM     24  O   UNL     1      34.769 -17.598 -21.657  0.00  0.00    -0.250 OA
ATOM     25  C   UNL     1      35.014 -16.662 -22.404  0.00  0.00    +0.314 C 
BRANCH  25  26
ATOM     26  O   UNL     1      35.745 -16.775 -23.542  0.00  0.00    -0.480 OA
ATOM     27  H   UNL     1      36.433 -17.408 -23.595  0.00  0.00    +0.295 HD
ENDBRANCH  25  26
ENDBRANCH  23  25
ENDBRANCH   2  23
TORSDOF 10
ENDMDL
MODEL 8
REMARK VINA RESULT:      -7.6      2.740      3.894
REMARK  Name = 5282253
REMARK  10 active torsions:
REMARK  status: ('A' for Active; 'I' for Inactive)
REMARK    1  A    between atoms: C_2  and  C_23
REMARK    2  A    between atoms: C_3  and  C_8
REMARK    3  A    between atoms: CA_4  and  C_20
REMARK    4  A    between atoms: C_10  and  C_11
REMARK    5  A    between atoms: C_12  and  C_13
REMARK    6  A    between atoms: C_13  and  C_16
REMARK    7  A    between atoms: C_16  and  O_17
REMARK    8  A    between atoms: C_20  and  O_21
REMARK    9  A    between atoms: C_23  and  C_25
REMARK   10  A    between atoms: C_25  and  O_26
REMARK                            x       y       z     vdW  Elec       q    Type
REMARK                         _______ _______ _______ _____ _____    ______ ____
ROOT
ATOM      1  N   UNL     1      35.207 -23.513 -12.265  0.00  0.00    +0.392 N 
ATOM      2  C   UNL     1      35.665 -24.161 -14.540  0.00  0.00    +0.004 C 
ATOM      3  C   UNL     1      34.282 -23.493 -14.396  0.00  0.00    -0.004 C 
ATOM      4  CA  UNL     1      36.237 -24.120 -13.110  0.00  0.00    +0.040 C 
ATOM      5  C   UNL     1      33.931 -23.749 -12.936  0.00  0.00    -0.077 C 
ATOM      6  H1  UNL     1      35.374 -22.512 -12.167  0.00  0.00    -0.084 HD
ATOM      7  H2  UNL     1      35.211 -23.917 -11.328  0.00  0.00    -0.084 HD
ENDROOT
BRANCH   3   8
ATOM      8  C   UNL     1      33.217 -23.923 -15.348  0.00  0.00    -0.046 C 
ATOM      9  C   UNL     1      32.158 -24.796 -14.726  0.00  0.00    +0.026 C 
ATOM     10  C   UNL     1      33.144 -23.602 -16.655  0.00  0.00    -0.009 C 
BRANCH  10  11
ATOM     11  C   UNL     1      34.069 -22.782 -17.410  0.00  0.00    -0.005 C 
ATOM     12  C   UNL     1      33.723 -22.162 -18.552  0.00  0.00    -0.015 C 
BRANCH  12  13
ATOM     13  C   UNL     1      34.603 -21.290 -19.417  0.00  0.00    +0.121 C 
ATOM     14  C   UNL     1      35.766 -21.989 -20.120  0.00  0.00    +0.016 C 
BRANCH  13  16
ATOM     15  O   UNL     1      32.508 -20.731 -20.544  0.00  0.00    -0.250 OA
ATOM     16  C   UNL     1      33.726 -20.626 -20.468  0.00  0.00    +0.317 C 
BRANCH  16  17
ATOM     17  O   UNL     1      34.450 -19.856 -21.323  0.00  0.00    -0.480 OA
ATOM     18  H   UNL     1      35.047 -20.256 -21.923  0.00  0.00    +0.295 HD
ENDBRANCH  16  17
ENDBRANCH  13  16
ENDBRANCH  12  13
ENDBRANCH  10  11
ENDBRANCH   3   8
BRANCH   4  20
ATOM     19  OXT UNL     1      37.878 -22.765 -11.973  0.00  0.00    -0.253 OA
ATOM     20  C   UNL     1      37.437 -23.238 -13.010  0.00  0.00    +0.293 C 
BRANCH  20  21
ATOM     21  O   UNL     1      37.980 -23.028 -14.234  0.00  0.00    -0.482 OA
ATOM     22  H   UNL     1      38.825 -23.381 -14.438  0.00  0.00    +0.295 HD
ENDBRANCH  20  21
ENDBRANCH   4  20
BRANCH   2  23
ATOM     23  C   UNL     1      35.628 -25.606 -15.049  0.00  0.00    +0.108 C 
BRANCH  23  25
ATOM     24  O   UNL     1      38.010 -26.081 -15.263  0.00  0.00    -0.250 OA
ATOM     25  C   UNL     1      36.919 -26.323 -14.768  0.00  0.00    +0.314 C 
BRANCH  25  26
ATOM     26  O   UNL     1      36.704 -27.308 -13.859  0.00  0.00    -0.480 OA
ATOM     27  H   UNL     1      37.042 -28.168 -14.012  0.00  0.00    +0.295 HD
ENDBRANCH  25  26
ENDBRANCH  23  25
ENDBRANCH   2  23
TORSDOF 10
ENDMDL
MODEL 9
REMARK VINA RESULT:      -7.5     12.970     15.038
REMARK  Name = 5282253
REMARK  10 active torsions:
REMARK  status: ('A' for Active; 'I' for Inactive)
REMARK    1  A    between atoms: C_2  and  C_23
REMARK    2  A    between atoms: C_3  and  C_8
REMARK    3  A    between atoms: CA_4  and  C_20
REMARK    4  A    between atoms: C_10  and  C_11
REMARK    5  A    between atoms: C_12  and  C_13
REMARK    6  A    between atoms: C_13  and  C_16
REMARK    7  A    between atoms: C_16  and  O_17
REMARK    8  A    between atoms: C_20  and  O_21
REMARK    9  A    between atoms: C_23  and  C_25
REMARK   10  A    between atoms: C_25  and  O_26
REMARK                            x       y       z     vdW  Elec       q    Type
REMARK                         _______ _______ _______ _____ _____    ______ ____
ROOT
ATOM      1  N   UNL     1      33.425 -12.812 -24.881  0.00  0.00    +0.392 N 
ATOM      2  C   UNL     1      33.254 -14.573 -23.245  0.00  0.00    +0.004 C 
ATOM      3  C   UNL     1      32.385 -13.354 -22.876  0.00  0.00    -0.004 C 
ATOM      4  CA  UNL     1      33.892 -14.168 -24.588  0.00  0.00    +0.040 C 
ATOM      5  C   UNL     1      33.082 -12.208 -23.596  0.00  0.00    -0.077 C 
ATOM      6  H1  UNL     1      32.605 -12.843 -25.486  0.00  0.00    -0.084 HD
ATOM      7  H2  UNL     1      34.141 -12.270 -25.364  0.00  0.00    -0.084 HD
ENDROOT
BRANCH   3   8
ATOM      8  C   UNL     1      32.159 -13.096 -21.423  0.00  0.00    -0.046 C 
ATOM      9  C   UNL     1      32.325 -14.316 -20.554  0.00  0.00    +0.026 C 
ATOM     10  C   UNL     1      31.836 -11.912 -20.869  0.00  0.00    -0.009 C 
BRANCH  10  11
ATOM     11  C   UNL     1      31.637 -10.648 -21.549  0.00  0.00    -0.005 C 
ATOM     12  C   UNL     1      32.412  -9.573 -21.323  0.00  0.00    -0.015 C 
BRANCH  12  13
ATOM     13  C   UNL     1      32.292  -8.213 -21.970  0.00  0.00    +0.121 C 
ATOM     14  C   UNL     1      31.116  -8.020 -22.927  0.00  0.00    +0.016 C 
BRANCH  13  16
ATOM     15  O   UNL     1      31.554  -6.131 -20.925  0.00  0.00    -0.250 OA
ATOM     16  C   UNL     1      32.200  -7.169 -20.867  0.00  0.00    +0.317 C 
BRANCH  16  17
ATOM     17  O   UNL     1      32.908  -7.532 -19.764  0.00  0.00    -0.480 OA
ATOM     18  H   UNL     1      33.842  -7.588 -19.804  0.00  0.00    +0.295 HD
ENDBRANCH  16  17
ENDBRANCH  13  16
ENDBRANCH  12  13
ENDBRANCH  10  11
ENDBRANCH   3   8
BRANCH   4  20
ATOM     19  OXT UNL     1      33.971 -16.053 -26.093  0.00  0.00    -0.253 OA
ATOM     20  C   UNL     1      33.423 -15.028 -25.715  0.00  0.00    +0.293 C 
BRANCH  20  21
ATOM     21  O   UNL     1      32.298 -14.515 -26.272  0.00  0.00    -0.482 OA
ATOM     22  H   UNL     1      31.596 -15.086 -26.517  0.00  0.00    +0.295 HD
ENDBRANCH  20  21
ENDBRANCH   4  20
BRANCH   2  23
ATOM     23  C   UNL     1      34.347 -14.913 -22.227  0.00  0.00    +0.108 C 
BRANCH  23  25
ATOM     24  O   UNL     1      34.481 -17.298 -21.739  0.00  0.00    -0.250 OA
ATOM     25  C   UNL     1      34.833 -16.325 -22.390  0.00  0.00    +0.314 C 
BRANCH  25  26
ATOM     26  O   UNL     1      35.747 -16.379 -23.392  0.00  0.00    -0.480 OA
ATOM     27  H   UNL     1      36.193 -17.182 -23.577  0.00  0.00    +0.295 HD
ENDBRANCH  25  26
ENDBRANCH  23  25
ENDBRANCH   2  23
TORSDOF 10
ENDMDL
