MODEL 1
REMARK VINA RESULT:     -10.2      0.000      0.000
REMARK  Name = 24815904
REMARK  5 active torsions:
REMARK  status: ('A' for Active; 'I' for Inactive)
REMARK    1  A    between atoms: C_1  and  C_3
REMARK    2  A    between atoms: C_1  and  C_14
REMARK    3  A    between atoms: C_9  and  O_12
REMARK    4  A    between atoms: C_14  and  N_16
REMARK    5  A    between atoms: C_17  and  C_21
REMARK                            x       y       z     vdW  Elec       q    Type
REMARK                         _______ _______ _______ _____ _____    ______ ____
ROOT
ATOM      1  C   UNL     1      33.628 -23.131 -15.127  0.00  0.00    +0.049 C 
ENDROOT
BRANCH   1   3
ATOM      2  N   UNL     1      31.150 -25.377 -13.660  0.00  0.00    -0.312 N 
ATOM      3  C   UNL     1      32.445 -23.909 -14.708  0.00  0.00    -0.005 C 
ATOM      4  C   UNL     1      31.119 -23.768 -15.205  0.00  0.00    +0.014 C 
ATOM      5  C   UNL     1      30.327 -24.700 -14.531  0.00  0.00    +0.048 C 
ATOM      6  C   UNL     1      32.432 -24.906 -13.759  0.00  0.00    +0.058 C 
ATOM      7  C   UNL     1      30.514 -22.933 -16.165  0.00  0.00    +0.038 C 
ATOM      8  C   UNL     1      28.955 -24.840 -14.772  0.00  0.00    +0.018 C 
ATOM      9  C   UNL     1      29.144 -23.061 -16.416  0.00  0.00    +0.139 C 
ATOM     10  C   UNL     1      28.378 -24.001 -15.729  0.00  0.00    +0.038 C 
ATOM     11  H   UNL     1      30.860 -26.097 -13.054  0.00  0.00    +0.152 HD
BRANCH   9  12
ATOM     12  O   UNL     1      28.553 -22.258 -17.345  0.00  0.00    -0.471 OA
ATOM     13  C   UNL     1      27.135 -22.125 -17.279  0.00  0.00    +0.252 C 
ENDBRANCH   9  12
ENDBRANCH   1   3
BRANCH   1  14
ATOM     14  C   UNL     1      34.240 -23.590 -16.463  0.00  0.00    +0.095 C 
BRANCH  14  16
ATOM     15  O   UNL     1      33.805 -23.884 -19.320  0.00  0.00    -0.267 OA
ATOM     16  N   UNL     1      34.219 -22.548 -17.454  0.00  0.00    -0.298 N 
ATOM     17  C   UNL     1      34.002 -22.791 -18.800  0.00  0.00    +0.281 C 
ATOM     18  H   UNL     1      34.364 -21.619 -17.162  0.00  0.00    +0.150 HD
BRANCH  17  21
ATOM     19  O   UNL     1      32.810 -21.058 -20.038  0.00  0.00    -0.446 OA
ATOM     20  O   UNL     1      36.286 -19.217 -21.002  0.00  0.00    -0.286 OA
ATOM     21  C   UNL     1      34.022 -21.563 -19.614  0.00  0.00    +0.202 C 
ATOM     22  C   UNL     1      35.211 -21.010 -19.892  0.00  0.00    +0.084 C 
ATOM     23  C   UNL     1      35.234 -19.775 -20.711  0.00  0.00    +0.202 C 
ATOM     24  C   UNL     1      32.825 -19.913 -20.797  0.00  0.00    +0.183 C 
ATOM     25  C   UNL     1      33.927 -19.248 -21.158  0.00  0.00    +0.083 C 
ENDBRANCH  17  21
ENDBRANCH  14  16
ENDBRANCH   1  14
TORSDOF 5
ENDMDL
MODEL 2
REMARK VINA RESULT:     -10.2      4.712      7.921
REMARK  Name = 24815904
REMARK  5 active torsions:
REMARK  status: ('A' for Active; 'I' for Inactive)
REMARK    1  A    between atoms: C_1  and  C_3
REMARK    2  A    between atoms: C_1  and  C_14
REMARK    3  A    between atoms: C_9  and  O_12
REMARK    4  A    between atoms: C_14  and  N_16
REMARK    5  A    between atoms: C_17  and  C_21
REMARK                            x       y       z     vdW  Elec       q    Type
REMARK                         _______ _______ _______ _____ _____    ______ ____
ROOT
ATOM      1  C   UNL     1      35.770 -18.671 -21.573  0.00  0.00    +0.049 C 
ENDROOT
BRANCH   1   3
ATOM      2  N   UNL     1      32.766 -20.522 -20.629  0.00  0.00    -0.312 N 
ATOM      3  C   UNL     1      34.728 -19.555 -21.012  0.00  0.00    -0.005 C 
ATOM      4  C   UNL     1      34.908 -20.545 -20.005  0.00  0.00    +0.014 C 
ATOM      5  C   UNL     1      33.663 -21.136 -19.784  0.00  0.00    +0.048 C 
ATOM      6  C   UNL     1      33.401 -19.564 -21.376  0.00  0.00    +0.058 C 
ATOM      7  C   UNL     1      36.015 -20.996 -19.260  0.00  0.00    +0.038 C 
ATOM      8  C   UNL     1      33.468 -22.160 -18.850  0.00  0.00    +0.018 C 
ATOM      9  C   UNL     1      35.836 -22.020 -18.323  0.00  0.00    +0.139 C 
ATOM     10  C   UNL     1      34.581 -22.591 -18.123  0.00  0.00    +0.038 C 
ATOM     11  H   UNL     1      31.808 -20.738 -20.689  0.00  0.00    +0.152 HD
BRANCH   9  12
ATOM     12  O   UNL     1      36.902 -22.460 -17.597  0.00  0.00    -0.471 OA
ATOM     13  C   UNL     1      37.240 -21.718 -16.428  0.00  0.00    +0.252 C 
ENDBRANCH   9  12
ENDBRANCH   1   3
BRANCH   1  14
ATOM     14  C   UNL     1      35.767 -18.594 -23.111  0.00  0.00    +0.095 C 
BRANCH  14  16
ATOM     15  O   UNL     1      34.462 -18.133 -25.664  0.00  0.00    -0.267 OA
ATOM     16  N   UNL     1      35.198 -17.364 -23.590  0.00  0.00    -0.298 N 
ATOM     17  C   UNL     1      34.593 -17.244 -24.830  0.00  0.00    +0.281 C 
ATOM     18  H   UNL     1      35.240 -16.569 -23.009  0.00  0.00    +0.150 HD
BRANCH  17  21
ATOM     19  O   UNL     1      33.657 -15.599 -26.370  0.00  0.00    -0.446 OA
ATOM     20  O   UNL     1      33.508 -12.801 -23.447  0.00  0.00    -0.286 OA
ATOM     21  C   UNL     1      34.084 -15.886 -25.090  0.00  0.00    +0.202 C 
ATOM     22  C   UNL     1      34.065 -15.014 -24.073  0.00  0.00    +0.084 C 
ATOM     23  C   UNL     1      33.554 -13.648 -24.332  0.00  0.00    +0.202 C 
ATOM     24  C   UNL     1      33.182 -14.333 -26.616  0.00  0.00    +0.183 C 
ATOM     25  C   UNL     1      33.101 -13.356 -25.709  0.00  0.00    +0.083 C 
ENDBRANCH  17  21
ENDBRANCH  14  16
ENDBRANCH   1  14
TORSDOF 5
ENDMDL
MODEL 3
REMARK VINA RESULT:     -10.0      4.387      7.948
REMARK  Name = 24815904
REMARK  5 active torsions:
REMARK  status: ('A' for Active; 'I' for Inactive)
REMARK    1  A    between atoms: C_1  and  C_3
REMARK    2  A    between atoms: C_1  and  C_14
REMARK    3  A    between atoms: C_9  and  O_12
REMARK    4  A    between atoms: C_14  and  N_16
REMARK    5  A    between atoms: C_17  and  C_21
REMARK                            x       y       z     vdW  Elec       q    Type
REMARK                         _______ _______ _______ _____ _____    ______ ____
ROOT
ATOM      1  C   UNL     1      36.677 -21.999 -18.487  0.00  0.00    +0.049 C 
ENDROOT
BRANCH   1   3
ATOM      2  N   UNL     1      33.083 -21.863 -19.121  0.00  0.00    -0.312 N 
ATOM      3  C   UNL     1      35.292 -21.740 -18.928  0.00  0.00    -0.005 C 
ATOM      4  C   UNL     1      34.876 -20.783 -19.895  0.00  0.00    +0.014 C 
ATOM      5  C   UNL     1      33.486 -20.880 -19.997  0.00  0.00    +0.048 C 
ATOM      6  C   UNL     1      34.168 -22.388 -18.469  0.00  0.00    +0.058 C 
ATOM      7  C   UNL     1      35.549 -19.839 -20.696  0.00  0.00    +0.038 C 
ATOM      8  C   UNL     1      32.735 -20.079 -20.864  0.00  0.00    +0.018 C 
ATOM      9  C   UNL     1      34.811 -19.031 -21.567  0.00  0.00    +0.139 C 
ATOM     10  C   UNL     1      33.425 -19.150 -21.648  0.00  0.00    +0.038 C 
ATOM     11  H   UNL     1      32.151 -22.147 -18.982  0.00  0.00    +0.152 HD
BRANCH   9  12
ATOM     12  O   UNL     1      35.457 -18.118 -22.345  0.00  0.00    -0.471 OA
ATOM     13  C   UNL     1      35.308 -18.249 -23.757  0.00  0.00    +0.252 C 
ENDBRANCH   9  12
ENDBRANCH   1   3
BRANCH   1  14
ATOM     14  C   UNL     1      37.039 -21.352 -17.137  0.00  0.00    +0.095 C 
BRANCH  14  16
ATOM     15  O   UNL     1      35.330 -22.583 -15.136  0.00  0.00    -0.267 OA
ATOM     16  N   UNL     1      37.414 -22.330 -16.152  0.00  0.00    -0.298 N 
ATOM     17  C   UNL     1      36.520 -22.860 -15.236  0.00  0.00    +0.281 C 
ATOM     18  H   UNL     1      38.349 -22.638 -16.127  0.00  0.00    +0.150 HD
BRANCH  17  21
ATOM     19  O   UNL     1      38.454 -24.195 -14.578  0.00  0.00    -0.446 OA
ATOM     20  O   UNL     1      36.404 -25.825 -11.490  0.00  0.00    -0.286 OA
ATOM     21  C   UNL     1      37.142 -23.845 -14.334  0.00  0.00    +0.202 C 
ATOM     22  C   UNL     1      36.401 -24.341 -13.334  0.00  0.00    +0.084 C 
ATOM     23  C   UNL     1      37.024 -25.332 -12.426  0.00  0.00    +0.202 C 
ATOM     24  C   UNL     1      39.037 -25.114 -13.739  0.00  0.00    +0.183 C 
ATOM     25  C   UNL     1      38.430 -25.696 -12.701  0.00  0.00    +0.083 C 
ENDBRANCH  17  21
ENDBRANCH  14  16
ENDBRANCH   1  14
TORSDOF 5
ENDMDL
MODEL 4
REMARK VINA RESULT:      -9.8      1.289      2.088
REMARK  Name = 24815904
REMARK  5 active torsions:
REMARK  status: ('A' for Active; 'I' for Inactive)
REMARK    1  A    between atoms: C_1  and  C_3
REMARK    2  A    between atoms: C_1  and  C_14
REMARK    3  A    between atoms: C_9  and  O_12
REMARK    4  A    between atoms: C_14  and  N_16
REMARK    5  A    between atoms: C_17  and  C_21
REMARK                            x       y       z     vdW  Elec       q    Type
REMARK                         _______ _______ _______ _____ _____    ______ ____
ROOT
ATOM      1  C   UNL     1      34.465 -23.008 -16.777  0.00  0.00    +0.049 C 
ENDROOT
BRANCH   1   3
ATOM      2  N   UNL     1      32.824 -24.710 -13.993  0.00  0.00    -0.312 N 
ATOM      3  C   UNL     1      33.563 -23.598 -15.768  0.00  0.00    -0.005 C 
ATOM      4  C   UNL     1      32.144 -23.495 -15.737  0.00  0.00    +0.014 C 
ATOM      5  C   UNL     1      31.706 -24.201 -14.614  0.00  0.00    +0.048 C 
ATOM      6  C   UNL     1      33.952 -24.351 -14.683  0.00  0.00    +0.058 C 
ATOM      7  C   UNL     1      31.187 -22.867 -16.559  0.00  0.00    +0.038 C 
ATOM      8  C   UNL     1      30.353 -24.310 -14.271  0.00  0.00    +0.018 C 
ATOM      9  C   UNL     1      29.831 -22.967 -16.228  0.00  0.00    +0.139 C 
ATOM     10  C   UNL     1      29.423 -23.679 -15.101  0.00  0.00    +0.038 C 
ATOM     11  H   UNL     1      32.815 -25.253 -13.172  0.00  0.00    +0.152 HD
BRANCH   9  12
ATOM     12  O   UNL     1      28.901 -22.363 -17.019  0.00  0.00    -0.471 OA
ATOM     13  C   UNL     1      27.548 -22.400 -16.571  0.00  0.00    +0.252 C 
ENDBRANCH   9  12
ENDBRANCH   1   3
BRANCH   1  14
ATOM     14  C   UNL     1      33.915 -23.052 -18.214  0.00  0.00    +0.095 C 
BRANCH  14  16
ATOM     15  O   UNL     1      32.570 -20.926 -19.666  0.00  0.00    -0.267 OA
ATOM     16  N   UNL     1      34.517 -22.054 -19.055  0.00  0.00    -0.298 N 
ATOM     17  C   UNL     1      33.786 -21.075 -19.708  0.00  0.00    +0.281 C 
ATOM     18  H   UNL     1      35.495 -22.065 -19.172  0.00  0.00    +0.150 HD
BRANCH  17  21
ATOM     19  O   UNL     1      35.945 -20.015 -20.121  0.00  0.00    -0.446 OA
ATOM     20  O   UNL     1      34.470 -18.032 -23.328  0.00  0.00    -0.286 OA
ATOM     21  C   UNL     1      34.629 -20.167 -20.506  0.00  0.00    +0.202 C 
ATOM     22  C   UNL     1      34.071 -19.546 -21.553  0.00  0.00    +0.084 C 
ATOM     23  C   UNL     1      34.916 -18.632 -22.357  0.00  0.00    +0.202 C 
ATOM     24  C   UNL     1      36.734 -19.169 -20.862  0.00  0.00    +0.183 C 
ATOM     25  C   UNL     1      36.323 -18.480 -21.931  0.00  0.00    +0.083 C 
ENDBRANCH  17  21
ENDBRANCH  14  16
ENDBRANCH   1  14
TORSDOF 5
ENDMDL
MODEL 5
REMARK VINA RESULT:      -9.8      8.305     12.324
REMARK  Name = 24815904
REMARK  5 active torsions:
REMARK  status: ('A' for Active; 'I' for Inactive)
REMARK    1  A    between atoms: C_1  and  C_3
REMARK    2  A    between atoms: C_1  and  C_14
REMARK    3  A    between atoms: C_9  and  O_12
REMARK    4  A    between atoms: C_14  and  N_16
REMARK    5  A    between atoms: C_17  and  C_21
REMARK                            x       y       z     vdW  Elec       q    Type
REMARK                         _______ _______ _______ _____ _____    ______ ____
ROOT
ATOM      1  C   UNL     1      33.710 -13.631 -22.729  0.00  0.00    +0.049 C 
ENDROOT
BRANCH   1   3
ATOM      2  N   UNL     1      33.834 -16.130 -25.390  0.00  0.00    -0.312 N 
ATOM      3  C   UNL     1      33.874 -14.808 -23.606  0.00  0.00    -0.005 C 
ATOM      4  C   UNL     1      34.418 -16.071 -23.237  0.00  0.00    +0.014 C 
ATOM      5  C   UNL     1      34.381 -16.881 -24.374  0.00  0.00    +0.048 C 
ATOM      6  C   UNL     1      33.524 -14.875 -24.936  0.00  0.00    +0.058 C 
ATOM      7  C   UNL     1      34.940 -16.603 -22.042  0.00  0.00    +0.038 C 
ATOM      8  C   UNL     1      34.842 -18.202 -24.375  0.00  0.00    +0.018 C 
ATOM      9  C   UNL     1      35.405 -17.923 -22.028  0.00  0.00    +0.139 C 
ATOM     10  C   UNL     1      35.355 -18.709 -23.178  0.00  0.00    +0.038 C 
ATOM     11  H   UNL     1      33.686 -16.448 -26.310  0.00  0.00    +0.152 HD
BRANCH   9  12
ATOM     12  O   UNL     1      35.910 -18.444 -20.875  0.00  0.00    -0.471 OA
ATOM     13  C   UNL     1      35.756 -19.848 -20.677  0.00  0.00    +0.252 C 
ENDBRANCH   9  12
ENDBRANCH   1   3
BRANCH   1  14
ATOM     14  C   UNL     1      32.313 -12.988 -22.796  0.00  0.00    +0.095 C 
BRANCH  14  16
ATOM     15  O   UNL     1      30.501 -11.418 -21.156  0.00  0.00    -0.267 OA
ATOM     16  N   UNL     1      32.358 -11.571 -22.557  0.00  0.00    -0.298 N 
ATOM     17  C   UNL     1      31.443 -10.911 -21.754  0.00  0.00    +0.281 C 
ATOM     18  H   UNL     1      33.073 -11.045 -22.984  0.00  0.00    +0.150 HD
BRANCH  17  21
ATOM     19  O   UNL     1      31.397  -8.689 -22.763  0.00  0.00    -0.446 OA
ATOM     20  O   UNL     1      32.941  -7.025 -19.410  0.00  0.00    -0.286 OA
ATOM     21  C   UNL     1      31.701  -9.463 -21.662  0.00  0.00    +0.202 C 
ATOM     22  C   UNL     1      32.214  -8.985 -20.520  0.00  0.00    +0.084 C 
ATOM     23  C   UNL     1      32.474  -7.529 -20.425  0.00  0.00    +0.202 C 
ATOM     24  C   UNL     1      31.637  -7.339 -22.681  0.00  0.00    +0.183 C 
ATOM     25  C   UNL     1      32.144  -6.715 -21.614  0.00  0.00    +0.083 C 
ENDBRANCH  17  21
ENDBRANCH  14  16
ENDBRANCH   1  14
TORSDOF 5
ENDMDL
MODEL 6
REMARK VINA RESULT:      -9.6      8.437     13.019
REMARK  Name = 24815904
REMARK  5 active torsions:
REMARK  status: ('A' for Active; 'I' for Inactive)
REMARK    1  A    between atoms: C_1  and  C_3
REMARK    2  A    between atoms: C_1  and  C_14
REMARK    3  A    between atoms: C_9  and  O_12
REMARK    4  A    between atoms: C_14  and  N_16
REMARK    5  A    between atoms: C_17  and  C_21
REMARK                            x       y       z     vdW  Elec       q    Type
REMARK                         _______ _______ _______ _____ _____    ______ ____
ROOT
ATOM      1  C   UNL     1      31.915 -12.414 -22.585  0.00  0.00    +0.049 C 
ENDROOT
BRANCH   1   3
ATOM      2  N   UNL     1      34.605 -11.074 -24.660  0.00  0.00    -0.312 N 
ATOM      3  C   UNL     1      32.941 -11.627 -23.298  0.00  0.00    -0.005 C 
ATOM      4  C   UNL     1      33.203 -10.236 -23.139  0.00  0.00    +0.014 C 
ATOM      5  C   UNL     1      34.251  -9.915 -24.005  0.00  0.00    +0.048 C 
ATOM      6  C   UNL     1      33.819 -12.114 -24.239  0.00  0.00    +0.058 C 
ATOM      7  C   UNL     1      32.647  -9.217 -22.342  0.00  0.00    +0.038 C 
ATOM      8  C   UNL     1      34.772  -8.621 -24.113  0.00  0.00    +0.018 C 
ATOM      9  C   UNL     1      33.158  -7.918 -22.438  0.00  0.00    +0.139 C 
ATOM     10  C   UNL     1      34.205  -7.627 -23.311  0.00  0.00    +0.038 C 
ATOM     11  H   UNL     1      35.320 -11.145 -25.333  0.00  0.00    +0.152 HD
BRANCH   9  12
ATOM     12  O   UNL     1      32.625  -6.928 -21.668  0.00  0.00    -0.471 OA
ATOM     13  C   UNL     1      32.419  -7.221 -20.288  0.00  0.00    +0.252 C 
ENDBRANCH   9  12
ENDBRANCH   1   3
BRANCH   1  14
ATOM     14  C   UNL     1      32.484 -13.369 -21.519  0.00  0.00    +0.095 C 
BRANCH  14  16
ATOM     15  O   UNL     1      34.809 -14.847 -20.601  0.00  0.00    -0.267 OA
ATOM     16  N   UNL     1      33.049 -14.555 -22.102  0.00  0.00    -0.298 N 
ATOM     17  C   UNL     1      34.167 -15.190 -21.587  0.00  0.00    +0.281 C 
ATOM     18  H   UNL     1      32.622 -14.935 -22.905  0.00  0.00    +0.150 HD
BRANCH  17  21
ATOM     19  O   UNL     1      35.034 -17.471 -21.653  0.00  0.00    -0.446 OA
ATOM     20  O   UNL     1      34.691 -17.591 -25.686  0.00  0.00    -0.286 OA
ATOM     21  C   UNL     1      34.551 -16.387 -22.357  0.00  0.00    +0.202 C 
ATOM     22  C   UNL     1      34.410 -16.353 -23.689  0.00  0.00    +0.084 C 
ATOM     23  C   UNL     1      34.795 -17.554 -24.465  0.00  0.00    +0.202 C 
ATOM     24  C   UNL     1      35.393 -18.588 -22.368  0.00  0.00    +0.183 C 
ATOM     25  C   UNL     1      35.311 -18.706 -23.696  0.00  0.00    +0.083 C 
ENDBRANCH  17  21
ENDBRANCH  14  16
ENDBRANCH   1  14
TORSDOF 5
ENDMDL
MODEL 7
REMARK VINA RESULT:      -9.6      9.143     12.346
REMARK  Name = 24815904
REMARK  5 active torsions:
REMARK  status: ('A' for Active; 'I' for Inactive)
REMARK    1  A    between atoms: C_1  and  C_3
REMARK    2  A    between atoms: C_1  and  C_14
REMARK    3  A    between atoms: C_9  and  O_12
REMARK    4  A    between atoms: C_14  and  N_16
REMARK    5  A    between atoms: C_17  and  C_21
REMARK                            x       y       z     vdW  Elec       q    Type
REMARK                         _______ _______ _______ _____ _____    ______ ____
ROOT
ATOM      1  C   UNL     1      33.032 -13.918 -21.154  0.00  0.00    +0.049 C 
ENDROOT
BRANCH   1   3
ATOM      2  N   UNL     1      35.066 -16.931 -21.499  0.00  0.00    -0.312 N 
ATOM      3  C   UNL     1      33.802 -15.107 -21.570  0.00  0.00    -0.005 C 
ATOM      4  C   UNL     1      33.974 -15.581 -22.901  0.00  0.00    +0.014 C 
ATOM      5  C   UNL     1      34.771 -16.726 -22.829  0.00  0.00    +0.048 C 
ATOM      6  C   UNL     1      34.485 -15.957 -20.731  0.00  0.00    +0.058 C 
ATOM      7  C   UNL     1      33.527 -15.146 -24.164  0.00  0.00    +0.038 C 
ATOM      8  C   UNL     1      35.143 -17.460 -23.961  0.00  0.00    +0.018 C 
ATOM      9  C   UNL     1      33.891 -15.870 -25.305  0.00  0.00    +0.139 C 
ATOM     10  C   UNL     1      34.688 -17.009 -25.202  0.00  0.00    +0.038 C 
ATOM     11  H   UNL     1      35.616 -17.670 -21.151  0.00  0.00    +0.152 HD
BRANCH   9  12
ATOM     12  O   UNL     1      33.463 -15.453 -26.529  0.00  0.00    -0.471 OA
ATOM     13  C   UNL     1      33.037 -14.097 -26.640  0.00  0.00    +0.252 C 
ENDBRANCH   9  12
ENDBRANCH   1   3
BRANCH   1  14
ATOM     14  C   UNL     1      32.297 -13.210 -22.307  0.00  0.00    +0.095 C 
BRANCH  14  16
ATOM     15  O   UNL     1      30.430 -11.445 -20.952  0.00  0.00    -0.267 OA
ATOM     16  N   UNL     1      32.372 -11.778 -22.198  0.00  0.00    -0.298 N 
ATOM     17  C   UNL     1      31.427 -11.021 -21.526  0.00  0.00    +0.281 C 
ATOM     18  H   UNL     1      33.132 -11.314 -22.621  0.00  0.00    +0.150 HD
BRANCH  17  21
ATOM     19  O   UNL     1      31.491  -8.898 -22.729  0.00  0.00    -0.446 OA
ATOM     20  O   UNL     1      32.945  -6.983 -19.470  0.00  0.00    -0.286 OA
ATOM     21  C   UNL     1      31.726  -9.578 -21.551  0.00  0.00    +0.202 C 
ATOM     22  C   UNL     1      32.204  -9.014 -20.434  0.00  0.00    +0.084 C 
ATOM     23  C   UNL     1      32.506  -7.564 -20.457  0.00  0.00    +0.202 C 
ATOM     24  C   UNL     1      31.768  -7.553 -22.755  0.00  0.00    +0.183 C 
ATOM     25  C   UNL     1      32.249  -6.850 -21.726  0.00  0.00    +0.083 C 
ENDBRANCH  17  21
ENDBRANCH  14  16
ENDBRANCH   1  14
TORSDOF 5
ENDMDL
MODEL 8
REMARK VINA RESULT:      -9.5      9.456     12.954
REMARK  Name = 24815904
REMARK  5 active torsions:
REMARK  status: ('A' for Active; 'I' for Inactive)
REMARK    1  A    between atoms: C_1  and  C_3
REMARK    2  A    between atoms: C_1  and  C_14
REMARK    3  A    between atoms: C_9  and  O_12
REMARK    4  A    between atoms: C_14  and  N_16
REMARK    5  A    between atoms: C_17  and  C_21
REMARK                            x       y       z     vdW  Elec       q    Type
REMARK                         _______ _______ _______ _____ _____    ______ ____
ROOT
ATOM      1  C   UNL     1      31.491 -12.131 -21.302  0.00  0.00    +0.049 C 
ENDROOT
BRANCH   1   3
ATOM      2  N   UNL     1      32.083  -9.345 -19.016  0.00  0.00    -0.312 N 
ATOM      3  C   UNL     1      31.736 -10.848 -20.614  0.00  0.00    -0.005 C 
ATOM      4  C   UNL     1      31.877  -9.571 -21.227  0.00  0.00    +0.014 C 
ATOM      5  C   UNL     1      32.095  -8.646 -20.203  0.00  0.00    +0.048 C 
ATOM      6  C   UNL     1      31.867 -10.676 -19.254  0.00  0.00    +0.058 C 
ATOM      7  C   UNL     1      31.843  -9.112 -22.558  0.00  0.00    +0.038 C 
ATOM      8  C   UNL     1      32.279  -7.280 -20.446  0.00  0.00    +0.018 C 
ATOM      9  C   UNL     1      32.026  -7.749 -22.816  0.00  0.00    +0.139 C 
ATOM     10  C   UNL     1      32.241  -6.849 -21.774  0.00  0.00    +0.038 C 
ATOM     11  H   UNL     1      32.212  -8.946 -18.126  0.00  0.00    +0.152 HD
BRANCH   9  12
ATOM     12  O   UNL     1      31.992  -7.299 -24.102  0.00  0.00    -0.471 OA
ATOM     13  C   UNL     1      31.344  -6.050 -24.333  0.00  0.00    +0.252 C 
ENDBRANCH   9  12
ENDBRANCH   1   3
BRANCH   1  14
ATOM     14  C   UNL     1      32.313 -13.309 -20.746  0.00  0.00    +0.095 C 
BRANCH  14  16
ATOM     15  O   UNL     1      34.722 -14.932 -20.761  0.00  0.00    -0.267 OA
ATOM     16  N   UNL     1      32.763 -14.193 -21.786  0.00  0.00    -0.298 N 
ATOM     17  C   UNL     1      33.933 -14.929 -21.698  0.00  0.00    +0.281 C 
ATOM     18  H   UNL     1      32.213 -14.281 -22.599  0.00  0.00    +0.150 HD
BRANCH  17  21
ATOM     19  O   UNL     1      34.835 -16.962 -22.704  0.00  0.00    -0.446 OA
ATOM     20  O   UNL     1      33.612 -15.802 -26.386  0.00  0.00    -0.286 OA
ATOM     21  C   UNL     1      34.175 -15.764 -22.888  0.00  0.00    +0.202 C 
ATOM     22  C   UNL     1      33.741 -15.315 -24.074  0.00  0.00    +0.084 C 
ATOM     23  C   UNL     1      33.983 -16.152 -25.271  0.00  0.00    +0.202 C 
ATOM     24  C   UNL     1      35.062 -17.743 -23.811  0.00  0.00    +0.183 C 
ATOM     25  C   UNL     1      34.692 -17.431 -25.057  0.00  0.00    +0.083 C 
ENDBRANCH  17  21
ENDBRANCH  14  16
ENDBRANCH   1  14
TORSDOF 5
ENDMDL
MODEL 9
REMARK VINA RESULT:      -9.5      8.672     13.397
REMARK  Name = 24815904
REMARK  5 active torsions:
REMARK  status: ('A' for Active; 'I' for Inactive)
REMARK    1  A    between atoms: C_1  and  C_3
REMARK    2  A    between atoms: C_1  and  C_14
REMARK    3  A    between atoms: C_9  and  O_12
REMARK    4  A    between atoms: C_14  and  N_16
REMARK    5  A    between atoms: C_17  and  C_21
REMARK                            x       y       z     vdW  Elec       q    Type
REMARK                         _______ _______ _______ _____ _____    ______ ____
ROOT
ATOM      1  C   UNL     1      32.886 -12.495 -23.934  0.00  0.00    +0.049 C 
ENDROOT
BRANCH   1   3
ATOM      2  N   UNL     1      35.262  -9.923 -24.974  0.00  0.00    -0.312 N 
ATOM      3  C   UNL     1      33.705 -11.290 -24.174  0.00  0.00    -0.005 C 
ATOM      4  C   UNL     1      33.540 -10.017 -23.558  0.00  0.00    +0.014 C 
ATOM      5  C   UNL     1      34.529  -9.178 -24.078  0.00  0.00    +0.048 C 
ATOM      6  C   UNL     1      34.772 -11.201 -25.039  0.00  0.00    +0.058 C 
ATOM      7  C   UNL     1      32.640  -9.496 -22.608  0.00  0.00    +0.038 C 
ATOM      8  C   UNL     1      34.663  -7.840 -23.692  0.00  0.00    +0.018 C 
ATOM      9  C   UNL     1      32.762  -8.159 -22.213  0.00  0.00    +0.139 C 
ATOM     10  C   UNL     1      33.759  -7.345 -22.747  0.00  0.00    +0.038 C 
ATOM     11  H   UNL     1      36.028  -9.587 -25.493  0.00  0.00    +0.152 HD
BRANCH   9  12
ATOM     12  O   UNL     1      31.897  -7.649 -21.292  0.00  0.00    -0.471 OA
ATOM     13  C   UNL     1      31.903  -6.235 -21.111  0.00  0.00    +0.252 C 
ENDBRANCH   9  12
ENDBRANCH   1   3
BRANCH   1  14
ATOM     14  C   UNL     1      33.179 -13.655 -24.903  0.00  0.00    +0.095 C 
BRANCH  14  16
ATOM     15  O   UNL     1      34.159 -16.121 -26.084  0.00  0.00    -0.267 OA
ATOM     16  N   UNL     1      33.622 -14.837 -24.214  0.00  0.00    -0.298 N 
ATOM     17  C   UNL     1      34.075 -15.969 -24.871  0.00  0.00    +0.281 C 
ATOM     18  H   UNL     1      33.603 -14.842 -23.229  0.00  0.00    +0.150 HD
BRANCH  17  21
ATOM     19  O   UNL     1      34.512 -18.332 -24.444  0.00  0.00    -0.446 OA
ATOM     20  O   UNL     1      35.480 -17.558 -20.589  0.00  0.00    -0.286 OA
ATOM     21  C   UNL     1      34.476 -17.045 -23.948  0.00  0.00    +0.202 C 
ATOM     22  C   UNL     1      34.782 -16.712 -22.686  0.00  0.00    +0.084 C 
ATOM     23  C   UNL     1      35.186 -17.792 -21.756  0.00  0.00    +0.202 C 
ATOM     24  C   UNL     1      34.886 -19.337 -23.586  0.00  0.00    +0.183 C 
ATOM     25  C   UNL     1      35.218 -19.165 -22.303  0.00  0.00    +0.083 C 
ENDBRANCH  17  21
ENDBRANCH  14  16
ENDBRANCH   1  14
TORSDOF 5
ENDMDL
