MODEL 1
REMARK VINA RESULT:      -6.4      0.000      0.000
REMARK  Name = 25230468
REMARK  5 active torsions:
REMARK  status: ('A' for Active; 'I' for Inactive)
REMARK    1  A    between atoms: C_2  and  C_8
REMARK    2  A    between atoms: C_3  and  C_21
REMARK    3  A    between atoms: C_5  and  N_26
REMARK    4  A    between atoms: C_27  and  C_31
REMARK    5  A    between atoms: C_32  and  C_37
REMARK                            x       y       z     vdW  Elec       q    Type
REMARK                         _______ _______ _______ _____ _____    ______ ____
ROOT
ATOM      1  N   UNL     1      32.900  -7.645 -23.696  0.00  0.00    -0.409 NA
ATOM      2  C   UNL     1      33.618  -7.185 -24.745  0.00  0.00    +0.091 C 
ATOM      3  C   UNL     1      33.116  -8.929 -23.336  0.00  0.00    +0.139 C 
ATOM      4  C   UNL     1      34.538  -7.946 -25.447  0.00  0.00    +0.082 C 
ATOM      5  C   UNL     1      34.013  -9.772 -23.973  0.00  0.00    +0.076 C 
ATOM      6  C   UNL     1      34.734  -9.263 -25.048  0.00  0.00    -0.002 C 
ENDROOT
BRANCH   2   8
ATOM      7  O   UNL     1      32.027  -3.569 -26.515  0.00  0.00    -0.363 OA
ATOM      8  C   UNL     1      33.377  -5.742 -25.155  0.00  0.00    +0.053 C 
ATOM      9  C   UNL     1      31.751  -3.775 -25.126  0.00  0.00    +0.093 C 
ATOM     10  C   UNL     1      33.230  -4.088 -27.093  0.00  0.00    +0.093 C 
ATOM     11  C   UNL     1      32.006  -5.230 -24.693  0.00  0.00    +0.034 C 
ATOM     12  C   UNL     1      33.493  -5.545 -26.672  0.00  0.00    +0.034 C 
ATOM     13  C   UNL     1      32.502  -2.768 -24.245  0.00  0.00    +0.030 C 
ATOM     14  C   UNL     1      30.247  -3.475 -24.976  0.00  0.00    +0.030 C 
ATOM     15  C   UNL     1      32.981  -4.053 -28.612  0.00  0.00    +0.030 C 
ATOM     16  C   UNL     1      34.431  -3.176 -26.810  0.00  0.00    +0.030 C 
ENDBRANCH   2   8
BRANCH   3  21
ATOM     17  C   UNL     1      31.012 -10.534 -19.815  0.00  0.00    +0.004 C 
ATOM     18  C   UNL     1      31.582  -9.101 -19.758  0.00  0.00    +0.005 C 
ATOM     19  C   UNL     1      30.445 -10.793 -21.231  0.00  0.00    +0.026 C 
ATOM     20  C   UNL     1      32.663  -8.850 -20.817  0.00  0.00    +0.029 C 
ATOM     21  C   UNL     1      32.309  -9.393 -22.182  0.00  0.00    +0.004 C 
ATOM     22  C   UNL     1      31.305 -10.275 -22.350  0.00  0.00    -0.028 C 
ATOM     23  C   UNL     1      32.102 -11.570 -19.476  0.00  0.00    +0.000 C 
ATOM     24  C   UNL     1      29.881 -10.675 -18.781  0.00  0.00    +0.000 C 
ENDBRANCH   3  21
BRANCH   5  26
ATOM     25  O   UNL     1      33.264 -12.340 -25.325  0.00  0.00    -0.271 OA
ATOM     26  N   UNL     1      34.211 -11.094 -23.571  0.00  0.00    -0.279 N 
ATOM     27  C   UNL     1      33.839 -12.264 -24.245  0.00  0.00    +0.264 C 
ATOM     28  H   UNL     1      34.669 -11.220 -22.709  0.00  0.00    +0.155 HD
BRANCH  27  31
ATOM     29  N   UNL     1      34.400 -14.738 -24.194  0.00  0.00    -0.303 N 
ATOM     30  N   UNL     1      34.411 -13.621 -22.274  0.00  0.00    -0.309 N 
ATOM     31  C   UNL     1      34.216 -13.535 -23.571  0.00  0.00    +0.223 C 
ATOM     32  C   UNL     1      34.735 -15.649 -23.233  0.00  0.00    +0.130 C 
ATOM     33  C   UNL     1      34.736 -14.938 -22.057  0.00  0.00    +0.085 C 
ATOM     34  H   UNL     1      34.308 -14.913 -25.158  0.00  0.00    +0.149 HD
ATOM     35  H   UNL     1      34.342 -12.902 -21.605  0.00  0.00    +0.149 HD
BRANCH  32  37
ATOM     36  N   UNL     1      35.236 -18.143 -23.642  0.00  0.00    -0.189 NA
ATOM     37  C   UNL     1      35.010 -17.020 -23.457  0.00  0.00    +0.116 C 
ENDBRANCH  32  37
ENDBRANCH  27  31
ENDBRANCH   5  26
TORSDOF 5
ENDMDL
MODEL 2
REMARK VINA RESULT:      -6.1      9.091     14.171
REMARK  Name = 25230468
REMARK  5 active torsions:
REMARK  status: ('A' for Active; 'I' for Inactive)
REMARK    1  A    between atoms: C_2  and  C_8
REMARK    2  A    between atoms: C_3  and  C_21
REMARK    3  A    between atoms: C_5  and  N_26
REMARK    4  A    between atoms: C_27  and  C_31
REMARK    5  A    between atoms: C_32  and  C_37
REMARK                            x       y       z     vdW  Elec       q    Type
REMARK                         _______ _______ _______ _____ _____    ______ ____
ROOT
ATOM      1  N   UNL     1      34.411 -20.994 -19.246  0.00  0.00    -0.409 NA
ATOM      2  C   UNL     1      35.253 -20.329 -20.068  0.00  0.00    +0.091 C 
ATOM      3  C   UNL     1      34.981 -21.834 -18.354  0.00  0.00    +0.139 C 
ATOM      4  C   UNL     1      36.632 -20.464 -20.039  0.00  0.00    +0.082 C 
ATOM      5  C   UNL     1      36.347 -22.039 -18.244  0.00  0.00    +0.076 C 
ATOM      6  C   UNL     1      37.182 -21.338 -19.108  0.00  0.00    -0.002 C 
ENDROOT
BRANCH   2   8
ATOM      7  O   UNL     1      34.577 -17.307 -23.092  0.00  0.00    -0.363 OA
ATOM      8  C   UNL     1      34.618 -19.386 -21.075  0.00  0.00    +0.053 C 
ATOM      9  C   UNL     1      34.493 -18.670 -23.522  0.00  0.00    +0.093 C 
ATOM     10  C   UNL     1      34.233 -16.954 -21.749  0.00  0.00    +0.093 C 
ATOM     11  C   UNL     1      35.119 -19.639 -22.503  0.00  0.00    +0.034 C 
ATOM     12  C   UNL     1      34.858 -17.912 -20.719  0.00  0.00    +0.034 C 
ATOM     13  C   UNL     1      33.053 -19.060 -23.883  0.00  0.00    +0.030 C 
ATOM     14  C   UNL     1      35.317 -18.724 -24.822  0.00  0.00    +0.030 C 
ATOM     15  C   UNL     1      34.836 -15.552 -21.544  0.00  0.00    +0.030 C 
ATOM     16  C   UNL     1      32.714 -16.823 -21.571  0.00  0.00    +0.030 C 
ENDBRANCH   2   8
BRANCH   3  21
ATOM     17  C   UNL     1      32.065 -23.603 -15.566  0.00  0.00    +0.004 C 
ATOM     18  C   UNL     1      31.662 -23.401 -17.042  0.00  0.00    +0.005 C 
ATOM     19  C   UNL     1      33.547 -24.041 -15.505  0.00  0.00    +0.026 C 
ATOM     20  C   UNL     1      32.549 -22.379 -17.765  0.00  0.00    +0.029 C 
ATOM     21  C   UNL     1      34.022 -22.543 -17.472  0.00  0.00    +0.004 C 
ATOM     22  C   UNL     1      34.455 -23.296 -16.443  0.00  0.00    -0.028 C 
ATOM     23  C   UNL     1      31.855 -22.305 -14.760  0.00  0.00    +0.000 C 
ATOM     24  C   UNL     1      31.184 -24.700 -14.942  0.00  0.00    +0.000 C 
ENDBRANCH   3  21
BRANCH   5  26
ATOM     25  O   UNL     1      37.796 -21.472 -15.682  0.00  0.00    -0.271 OA
ATOM     26  N   UNL     1      36.899 -22.915 -17.308  0.00  0.00    -0.279 N 
ATOM     27  C   UNL     1      37.570 -22.595 -16.121  0.00  0.00    +0.264 C 
ATOM     28  H   UNL     1      36.806 -23.874 -17.506  0.00  0.00    +0.155 HD
BRANCH  27  31
ATOM     29  N   UNL     1      39.258 -24.338 -15.379  0.00  0.00    -0.303 N 
ATOM     30  N   UNL     1      37.250 -24.354 -14.430  0.00  0.00    -0.309 N 
ATOM     31  C   UNL     1      38.022 -23.758 -15.312  0.00  0.00    +0.223 C 
ATOM     32  C   UNL     1      39.275 -25.370 -14.484  0.00  0.00    +0.130 C 
ATOM     33  C   UNL     1      38.027 -25.360 -13.910  0.00  0.00    +0.085 C 
ATOM     34  H   UNL     1      39.999 -24.062 -15.966  0.00  0.00    +0.149 HD
ATOM     35  H   UNL     1      36.321 -24.129 -14.194  0.00  0.00    +0.149 HD
BRANCH  32  37
ATOM     36  N   UNL     1      41.271 -26.938 -14.041  0.00  0.00    -0.189 NA
ATOM     37  C   UNL     1      40.372 -26.232 -14.241  0.00  0.00    +0.116 C 
ENDBRANCH  32  37
ENDBRANCH  27  31
ENDBRANCH   5  26
TORSDOF 5
ENDMDL
MODEL 3
REMARK VINA RESULT:      -5.7     10.519     15.214
REMARK  Name = 25230468
REMARK  5 active torsions:
REMARK  status: ('A' for Active; 'I' for Inactive)
REMARK    1  A    between atoms: C_2  and  C_8
REMARK    2  A    between atoms: C_3  and  C_21
REMARK    3  A    between atoms: C_5  and  N_26
REMARK    4  A    between atoms: C_27  and  C_31
REMARK    5  A    between atoms: C_32  and  C_37
REMARK                            x       y       z     vdW  Elec       q    Type
REMARK                         _______ _______ _______ _____ _____    ______ ____
ROOT
ATOM      1  N   UNL     1      34.039 -21.829 -18.440  0.00  0.00    -0.409 NA
ATOM      2  C   UNL     1      35.053 -21.249 -19.121  0.00  0.00    +0.091 C 
ATOM      3  C   UNL     1      34.370 -22.456 -17.289  0.00  0.00    +0.139 C 
ATOM      4  C   UNL     1      36.375 -21.267 -18.707  0.00  0.00    +0.082 C 
ATOM      5  C   UNL     1      35.660 -22.531 -16.790  0.00  0.00    +0.076 C 
ATOM      6  C   UNL     1      36.677 -21.923 -17.519  0.00  0.00    -0.002 C 
ENDROOT
BRANCH   2   8
ATOM      7  O   UNL     1      34.339 -18.279 -22.187  0.00  0.00    -0.363 OA
ATOM      8  C   UNL     1      34.687 -20.544 -20.416  0.00  0.00    +0.053 C 
ATOM      9  C   UNL     1      35.513 -19.083 -22.339  0.00  0.00    +0.093 C 
ATOM     10  C   UNL     1      33.183 -18.811 -21.532  0.00  0.00    +0.093 C 
ATOM     11  C   UNL     1      35.886 -19.816 -21.037  0.00  0.00    +0.034 C 
ATOM     12  C   UNL     1      33.542 -19.541 -20.225  0.00  0.00    +0.034 C 
ATOM     13  C   UNL     1      35.390 -20.043 -23.530  0.00  0.00    +0.030 C 
ATOM     14  C   UNL     1      36.634 -18.082 -22.677  0.00  0.00    +0.030 C 
ATOM     15  C   UNL     1      32.326 -17.579 -21.186  0.00  0.00    +0.030 C 
ATOM     16  C   UNL     1      32.351 -19.688 -22.477  0.00  0.00    +0.030 C 
ENDBRANCH   2   8
BRANCH   3  21
ATOM     17  C   UNL     1      30.908 -23.958 -15.017  0.00  0.00    +0.004 C 
ATOM     18  C   UNL     1      30.778 -23.772 -16.543  0.00  0.00    +0.005 C 
ATOM     19  C   UNL     1      32.325 -24.488 -14.694  0.00  0.00    +0.026 C 
ATOM     20  C   UNL     1      31.842 -22.829 -17.119  0.00  0.00    +0.029 C 
ATOM     21  C   UNL     1      33.229 -23.078 -16.574  0.00  0.00    +0.004 C 
ATOM     22  C   UNL     1      33.428 -23.828 -15.473  0.00  0.00    -0.028 C 
ATOM     23  C   UNL     1      30.653 -22.627 -14.280  0.00  0.00    +0.000 C 
ATOM     24  C   UNL     1      29.862 -24.979 -14.535  0.00  0.00    +0.000 C 
ENDBRANCH   3  21
BRANCH   5  26
ATOM     25  O   UNL     1      38.310 -23.326 -15.634  0.00  0.00    -0.271 OA
ATOM     26  N   UNL     1      35.963 -23.187 -15.595  0.00  0.00    -0.279 N 
ATOM     27  C   UNL     1      37.226 -23.537 -15.101  0.00  0.00    +0.264 C 
ATOM     28  H   UNL     1      35.195 -23.435 -15.032  0.00  0.00    +0.155 HD
BRANCH  27  31
ATOM     29  N   UNL     1      36.307 -24.008 -12.783  0.00  0.00    -0.303 N 
ATOM     30  N   UNL     1      38.141 -25.087 -13.422  0.00  0.00    -0.309 N 
ATOM     31  C   UNL     1      37.226 -24.210 -13.775  0.00  0.00    +0.223 C 
ATOM     32  C   UNL     1      36.657 -24.807 -11.732  0.00  0.00    +0.130 C 
ATOM     33  C   UNL     1      37.790 -25.463 -12.149  0.00  0.00    +0.085 C 
ATOM     34  H   UNL     1      35.535 -23.398 -12.821  0.00  0.00    +0.149 HD
ATOM     35  H   UNL     1      38.907 -25.404 -13.954  0.00  0.00    +0.149 HD
BRANCH  32  37
ATOM     36  N   UNL     1      35.396 -24.974  -9.491  0.00  0.00    -0.189 NA
ATOM     37  C   UNL     1      35.964 -24.899 -10.500  0.00  0.00    +0.116 C 
ENDBRANCH  32  37
ENDBRANCH  27  31
ENDBRANCH   5  26
TORSDOF 5
ENDMDL
MODEL 4
REMARK VINA RESULT:      -5.4      2.452      9.471
REMARK  Name = 25230468
REMARK  5 active torsions:
REMARK  status: ('A' for Active; 'I' for Inactive)
REMARK    1  A    between atoms: C_2  and  C_8
REMARK    2  A    between atoms: C_3  and  C_21
REMARK    3  A    between atoms: C_5  and  N_26
REMARK    4  A    between atoms: C_27  and  C_31
REMARK    5  A    between atoms: C_32  and  C_37
REMARK                            x       y       z     vdW  Elec       q    Type
REMARK                         _______ _______ _______ _____ _____    ______ ____
ROOT
ATOM      1  N   UNL     1      33.066 -14.316 -22.643  0.00  0.00    -0.409 NA
ATOM      2  C   UNL     1      33.710 -14.979 -23.630  0.00  0.00    +0.091 C 
ATOM      3  C   UNL     1      32.943 -12.979 -22.798  0.00  0.00    +0.139 C 
ATOM      4  C   UNL     1      34.233 -14.370 -24.759  0.00  0.00    +0.082 C 
ATOM      5  C   UNL     1      33.431 -12.277 -23.888  0.00  0.00    +0.076 C 
ATOM      6  C   UNL     1      34.088 -12.993 -24.883  0.00  0.00    -0.002 C 
ENDROOT
BRANCH   2   8
ATOM      7  O   UNL     1      35.255 -19.017 -23.417  0.00  0.00    -0.363 OA
ATOM      8  C   UNL     1      33.854 -16.482 -23.460  0.00  0.00    +0.053 C 
ATOM      9  C   UNL     1      34.987 -18.369 -22.168  0.00  0.00    +0.093 C 
ATOM     10  C   UNL     1      34.483 -18.689 -24.576  0.00  0.00    +0.093 C 
ATOM     11  C   UNL     1      34.824 -16.847 -22.328  0.00  0.00    +0.034 C 
ATOM     12  C   UNL     1      34.318 -17.168 -24.751  0.00  0.00    +0.034 C 
ATOM     13  C   UNL     1      33.793 -19.007 -21.445  0.00  0.00    +0.030 C 
ATOM     14  C   UNL     1      36.236 -18.641 -21.309  0.00  0.00    +0.030 C 
ATOM     15  C   UNL     1      35.304 -19.232 -25.760  0.00  0.00    +0.030 C 
ATOM     16  C   UNL     1      33.136 -19.424 -24.586  0.00  0.00    +0.030 C 
ENDBRANCH   2   8
BRANCH   3  21
ATOM     17  C   UNL     1      31.063 -10.640 -19.574  0.00  0.00    +0.004 C 
ATOM     18  C   UNL     1      30.311 -10.811 -20.911  0.00  0.00    +0.005 C 
ATOM     19  C   UNL     1      31.796 -11.960 -19.236  0.00  0.00    +0.026 C 
ATOM     20  C   UNL     1      31.237 -11.216 -22.065  0.00  0.00    +0.029 C 
ATOM     21  C   UNL     1      32.231 -12.292 -21.693  0.00  0.00    +0.004 C 
ATOM     22  C   UNL     1      32.474 -12.612 -20.408  0.00  0.00    -0.028 C 
ATOM     23  C   UNL     1      32.069  -9.474 -19.658  0.00  0.00    +0.000 C 
ATOM     24  C   UNL     1      30.053 -10.318 -18.458  0.00  0.00    +0.000 C 
ENDBRANCH   3  21
BRANCH   5  26
ATOM     25  O   UNL     1      35.495 -10.104 -23.931  0.00  0.00    -0.271 OA
ATOM     26  N   UNL     1      33.283 -10.894 -24.014  0.00  0.00    -0.279 N 
ATOM     27  C   UNL     1      34.287  -9.918 -24.027  0.00  0.00    +0.264 C 
ATOM     28  H   UNL     1      32.360 -10.566 -24.104  0.00  0.00    +0.155 HD
BRANCH  27  31
ATOM     29  N   UNL     1      32.629  -8.019 -23.744  0.00  0.00    -0.303 N 
ATOM     30  N   UNL     1      34.513  -7.609 -24.846  0.00  0.00    -0.309 N 
ATOM     31  C   UNL     1      33.814  -8.520 -24.206  0.00  0.00    +0.223 C 
ATOM     32  C   UNL     1      32.568  -6.705 -24.112  0.00  0.00    +0.130 C 
ATOM     33  C   UNL     1      33.741  -6.474 -24.790  0.00  0.00    +0.085 C 
ATOM     34  H   UNL     1      31.945  -8.516 -23.239  0.00  0.00    +0.149 HD
ATOM     35  H   UNL     1      35.395  -7.715 -25.271  0.00  0.00    +0.149 HD
BRANCH  32  37
ATOM     36  N   UNL     1      30.627  -5.091 -23.598  0.00  0.00    -0.189 NA
ATOM     37  C   UNL     1      31.501  -5.818 -23.830  0.00  0.00    +0.116 C 
ENDBRANCH  32  37
ENDBRANCH  27  31
ENDBRANCH   5  26
TORSDOF 5
ENDMDL
MODEL 5
REMARK VINA RESULT:      -5.3      5.038     11.821
REMARK  Name = 25230468
REMARK  5 active torsions:
REMARK  status: ('A' for Active; 'I' for Inactive)
REMARK    1  A    between atoms: C_2  and  C_8
REMARK    2  A    between atoms: C_3  and  C_21
REMARK    3  A    between atoms: C_5  and  N_26
REMARK    4  A    between atoms: C_27  and  C_31
REMARK    5  A    between atoms: C_32  and  C_37
REMARK                            x       y       z     vdW  Elec       q    Type
REMARK                         _______ _______ _______ _____ _____    ______ ____
ROOT
ATOM      1  N   UNL     1      34.514 -18.142 -21.161  0.00  0.00    -0.409 NA
ATOM      2  C   UNL     1      35.040 -19.260 -21.711  0.00  0.00    +0.091 C 
ATOM      3  C   UNL     1      34.364 -17.081 -21.984  0.00  0.00    +0.139 C 
ATOM      4  C   UNL     1      35.421 -19.365 -23.039  0.00  0.00    +0.082 C 
ATOM      5  C   UNL     1      34.713 -17.084 -23.325  0.00  0.00    +0.076 C 
ATOM      6  C   UNL     1      35.251 -18.252 -23.855  0.00  0.00    -0.002 C 
ENDROOT
BRANCH   2   8
ATOM      7  O   UNL     1      35.154 -21.883 -18.269  0.00  0.00    -0.363 OA
ATOM      8  C   UNL     1      35.214 -20.455 -20.789  0.00  0.00    +0.053 C 
ATOM      9  C   UNL     1      34.070 -22.077 -19.185  0.00  0.00    +0.093 C 
ATOM     10  C   UNL     1      36.413 -21.393 -18.741  0.00  0.00    +0.093 C 
ATOM     11  C   UNL     1      33.892 -20.879 -20.135  0.00  0.00    +0.034 C 
ATOM     12  C   UNL     1      36.250 -20.191 -19.688  0.00  0.00    +0.034 C 
ATOM     13  C   UNL     1      34.202 -23.404 -19.943  0.00  0.00    +0.030 C 
ATOM     14  C   UNL     1      32.818 -22.186 -18.294  0.00  0.00    +0.030 C 
ATOM     15  C   UNL     1      37.150 -20.922 -17.473  0.00  0.00    +0.030 C 
ATOM     16  C   UNL     1      37.257 -22.513 -19.365  0.00  0.00    +0.030 C 
ENDBRANCH   2   8
BRANCH   3  21
ATOM     17  C   UNL     1      32.481 -13.422 -20.413  0.00  0.00    +0.004 C 
ATOM     18  C   UNL     1      31.896 -14.794 -20.017  0.00  0.00    +0.005 C 
ATOM     19  C   UNL     1      34.024 -13.529 -20.464  0.00  0.00    +0.026 C 
ATOM     20  C   UNL     1      32.320 -15.918 -20.972  0.00  0.00    +0.029 C 
ATOM     21  C   UNL     1      33.784 -15.877 -21.341  0.00  0.00    +0.004 C 
ATOM     22  C   UNL     1      34.538 -14.786 -21.108  0.00  0.00    -0.028 C 
ATOM     23  C   UNL     1      31.929 -12.966 -21.779  0.00  0.00    +0.000 C 
ATOM     24  C   UNL     1      32.079 -12.373 -19.361  0.00  0.00    +0.000 C 
ENDBRANCH   3  21
BRANCH   5  26
ATOM     25  O   UNL     1      33.148 -16.767 -25.863  0.00  0.00    -0.271 OA
ATOM     26  N   UNL     1      34.541 -15.968 -24.145  0.00  0.00    -0.279 N 
ATOM     27  C   UNL     1      33.795 -15.874 -25.327  0.00  0.00    +0.264 C 
ATOM     28  H   UNL     1      35.000 -15.146 -23.858  0.00  0.00    +0.155 HD
BRANCH  27  31
ATOM     29  N   UNL     1      34.368 -13.406 -25.459  0.00  0.00    -0.303 N 
ATOM     30  N   UNL     1      33.181 -14.295 -27.112  0.00  0.00    -0.309 N 
ATOM     31  C   UNL     1      33.780 -14.531 -25.966  0.00  0.00    +0.223 C 
ATOM     32  C   UNL     1      34.129 -12.387 -26.338  0.00  0.00    +0.130 C 
ATOM     33  C   UNL     1      33.396 -12.960 -27.349  0.00  0.00    +0.085 C 
ATOM     34  H   UNL     1      34.871 -13.343 -24.615  0.00  0.00    +0.149 HD
ATOM     35  H   UNL     1      32.688 -14.934 -27.676  0.00  0.00    +0.149 HD
BRANCH  32  37
ATOM     36  N   UNL     1      34.925  -9.953 -26.063  0.00  0.00    -0.189 NA
ATOM     37  C   UNL     1      34.566 -11.049 -26.187  0.00  0.00    +0.116 C 
ENDBRANCH  32  37
ENDBRANCH  27  31
ENDBRANCH   5  26
TORSDOF 5
ENDMDL
MODEL 6
REMARK VINA RESULT:      -5.1      2.247      9.611
REMARK  Name = 25230468
REMARK  5 active torsions:
REMARK  status: ('A' for Active; 'I' for Inactive)
REMARK    1  A    between atoms: C_2  and  C_8
REMARK    2  A    between atoms: C_3  and  C_21
REMARK    3  A    between atoms: C_5  and  N_26
REMARK    4  A    between atoms: C_27  and  C_31
REMARK    5  A    between atoms: C_32  and  C_37
REMARK                            x       y       z     vdW  Elec       q    Type
REMARK                         _______ _______ _______ _____ _____    ______ ____
ROOT
ATOM      1  N   UNL     1      33.352 -14.183 -22.275  0.00  0.00    -0.409 NA
ATOM      2  C   UNL     1      34.046 -14.802 -23.255  0.00  0.00    +0.091 C 
ATOM      3  C   UNL     1      32.978 -12.907 -22.516  0.00  0.00    +0.139 C 
ATOM      4  C   UNL     1      34.383 -14.207 -24.461  0.00  0.00    +0.082 C 
ATOM      5  C   UNL     1      33.265 -12.224 -23.687  0.00  0.00    +0.076 C 
ATOM      6  C   UNL     1      33.982 -12.893 -24.673  0.00  0.00    -0.002 C 
ENDROOT
BRANCH   2   8
ATOM      7  O   UNL     1      34.116 -19.103 -22.775  0.00  0.00    -0.363 OA
ATOM      8  C   UNL     1      34.471 -16.236 -22.988  0.00  0.00    +0.053 C 
ATOM      9  C   UNL     1      34.734 -18.583 -23.957  0.00  0.00    +0.093 C 
ATOM     10  C   UNL     1      34.096 -18.327 -21.573  0.00  0.00    +0.093 C 
ATOM     11  C   UNL     1      34.324 -17.125 -24.231  0.00  0.00    +0.034 C 
ATOM     12  C   UNL     1      33.682 -16.867 -21.833  0.00  0.00    +0.034 C 
ATOM     13  C   UNL     1      36.258 -18.761 -23.922  0.00  0.00    +0.030 C 
ATOM     14  C   UNL     1      34.200 -19.466 -25.101  0.00  0.00    +0.030 C 
ATOM     15  C   UNL     1      33.022 -18.992 -20.694  0.00  0.00    +0.030 C 
ATOM     16  C   UNL     1      35.426 -18.426 -20.814  0.00  0.00    +0.030 C 
ENDBRANCH   2   8
BRANCH   3  21
ATOM     17  C   UNL     1      30.926 -10.686 -19.314  0.00  0.00    +0.004 C 
ATOM     18  C   UNL     1      30.175 -10.963 -20.633  0.00  0.00    +0.005 C 
ATOM     19  C   UNL     1      31.791 -11.918 -18.959  0.00  0.00    +0.026 C 
ATOM     20  C   UNL     1      31.118 -11.302 -21.793  0.00  0.00    +0.029 C 
ATOM     21  C   UNL     1      32.219 -12.266 -21.415  0.00  0.00    +0.004 C 
ATOM     22  C   UNL     1      32.512 -12.529 -20.128  0.00  0.00    -0.028 C 
ATOM     23  C   UNL     1      31.812  -9.429 -19.442  0.00  0.00    +0.000 C 
ATOM     24  C   UNL     1      29.907 -10.437 -18.187  0.00  0.00    +0.000 C 
ENDBRANCH   3  21
BRANCH   5  26
ATOM     25  O   UNL     1      34.847  -9.678 -23.620  0.00  0.00    -0.271 OA
ATOM     26  N   UNL     1      32.861 -10.905 -23.901  0.00  0.00    -0.279 N 
ATOM     27  C   UNL     1      33.645  -9.745 -23.857  0.00  0.00    +0.264 C 
ATOM     28  H   UNL     1      31.908 -10.773 -24.108  0.00  0.00    +0.155 HD
BRANCH  27  31
ATOM     29  N   UNL     1      33.489  -7.365 -24.720  0.00  0.00    -0.303 N 
ATOM     30  N   UNL     1      31.649  -8.308 -23.907  0.00  0.00    -0.309 N 
ATOM     31  C   UNL     1      32.928  -8.479 -24.159  0.00  0.00    +0.223 C 
ATOM     32  C   UNL     1      32.504  -6.424 -24.833  0.00  0.00    +0.130 C 
ATOM     33  C   UNL     1      31.379  -7.028 -24.326  0.00  0.00    +0.085 C 
ATOM     34  H   UNL     1      34.429  -7.261 -24.992  0.00  0.00    +0.149 HD
ATOM     35  H   UNL     1      31.023  -8.954 -23.507  0.00  0.00    +0.149 HD
BRANCH  32  37
ATOM     36  N   UNL     1      32.798  -4.055 -25.802  0.00  0.00    -0.189 NA
ATOM     37  C   UNL     1      32.666  -5.122 -25.365  0.00  0.00    +0.116 C 
ENDBRANCH  32  37
ENDBRANCH  27  31
ENDBRANCH   5  26
TORSDOF 5
ENDMDL
MODEL 7
REMARK VINA RESULT:      -5.1      2.761      5.694
REMARK  Name = 25230468
REMARK  5 active torsions:
REMARK  status: ('A' for Active; 'I' for Inactive)
REMARK    1  A    between atoms: C_2  and  C_8
REMARK    2  A    between atoms: C_3  and  C_21
REMARK    3  A    between atoms: C_5  and  N_26
REMARK    4  A    between atoms: C_27  and  C_31
REMARK    5  A    between atoms: C_32  and  C_37
REMARK                            x       y       z     vdW  Elec       q    Type
REMARK                         _______ _______ _______ _____ _____    ______ ____
ROOT
ATOM      1  N   UNL     1      32.356 -10.851 -22.883  0.00  0.00    -0.409 NA
ATOM      2  C   UNL     1      32.011 -10.306 -21.695  0.00  0.00    +0.091 C 
ATOM      3  C   UNL     1      32.642 -12.172 -22.878  0.00  0.00    +0.139 C 
ATOM      4  C   UNL     1      31.938 -11.018 -20.508  0.00  0.00    +0.082 C 
ATOM      5  C   UNL     1      32.599 -12.970 -21.747  0.00  0.00    +0.076 C 
ATOM      6  C   UNL     1      32.240 -12.374 -20.542  0.00  0.00    -0.002 C 
ENDROOT
BRANCH   2   8
ATOM      7  O   UNL     1      32.287  -5.987 -21.759  0.00  0.00    -0.363 OA
ATOM      8  C   UNL     1      31.691  -8.821 -21.695  0.00  0.00    +0.053 C 
ATOM      9  C   UNL     1      31.858  -6.618 -22.971  0.00  0.00    +0.093 C 
ATOM     10  C   UNL     1      31.996  -6.590 -20.494  0.00  0.00    +0.093 C 
ATOM     11  C   UNL     1      32.162  -8.126 -22.979  0.00  0.00    +0.034 C 
ATOM     12  C   UNL     1      32.302  -8.098 -20.487  0.00  0.00    +0.034 C 
ATOM     13  C   UNL     1      30.382  -6.322 -23.270  0.00  0.00    +0.030 C 
ATOM     14  C   UNL     1      32.689  -5.944 -24.080  0.00  0.00    +0.030 C 
ATOM     15  C   UNL     1      32.943  -5.892 -19.501  0.00  0.00    +0.030 C 
ATOM     16  C   UNL     1      30.562  -6.286 -20.040  0.00  0.00    +0.030 C 
ENDBRANCH   2   8
BRANCH   3  21
ATOM     17  C   UNL     1      33.444 -13.650 -26.949  0.00  0.00    +0.004 C 
ATOM     18  C   UNL     1      34.323 -12.518 -26.377  0.00  0.00    +0.005 C 
ATOM     19  C   UNL     1      33.120 -14.655 -25.819  0.00  0.00    +0.026 C 
ATOM     20  C   UNL     1      33.664 -11.795 -25.196  0.00  0.00    +0.029 C 
ATOM     21  C   UNL     1      33.016 -12.729 -24.201  0.00  0.00    +0.004 C 
ATOM     22  C   UNL     1      32.773 -14.019 -24.502  0.00  0.00    -0.028 C 
ATOM     23  C   UNL     1      32.142 -13.081 -27.550  0.00  0.00    +0.000 C 
ATOM     24  C   UNL     1      34.210 -14.375 -28.070  0.00  0.00    +0.000 C 
ENDBRANCH   3  21
BRANCH   5  26
ATOM     25  O   UNL     1      34.945 -14.465 -20.627  0.00  0.00    -0.271 OA
ATOM     26  N   UNL     1      32.900 -14.333 -21.781  0.00  0.00    -0.279 N 
ATOM     27  C   UNL     1      34.016 -14.983 -21.239  0.00  0.00    +0.264 C 
ATOM     28  H   UNL     1      32.248 -14.908 -22.242  0.00  0.00    +0.155 HD
BRANCH  27  31
ATOM     29  N   UNL     1      33.342 -17.359 -20.659  0.00  0.00    -0.303 N 
ATOM     30  N   UNL     1      34.762 -17.053 -22.340  0.00  0.00    -0.309 N 
ATOM     31  C   UNL     1      34.041 -16.459 -21.415  0.00  0.00    +0.223 C 
ATOM     32  C   UNL     1      33.635 -18.606 -21.133  0.00  0.00    +0.130 C 
ATOM     33  C   UNL     1      34.511 -18.393 -22.170  0.00  0.00    +0.085 C 
ATOM     34  H   UNL     1      32.739 -17.145 -19.911  0.00  0.00    +0.149 HD
ATOM     35  H   UNL     1      35.349 -16.632 -23.008  0.00  0.00    +0.149 HD
BRANCH  32  37
ATOM     36  N   UNL     1      32.694 -20.820 -20.210  0.00  0.00    -0.189 NA
ATOM     37  C   UNL     1      33.118 -19.823 -20.626  0.00  0.00    +0.116 C 
ENDBRANCH  32  37
ENDBRANCH  27  31
ENDBRANCH   5  26
TORSDOF 5
ENDMDL
MODEL 8
REMARK VINA RESULT:      -4.6      8.704     13.475
REMARK  Name = 25230468
REMARK  5 active torsions:
REMARK  status: ('A' for Active; 'I' for Inactive)
REMARK    1  A    between atoms: C_2  and  C_8
REMARK    2  A    between atoms: C_3  and  C_21
REMARK    3  A    between atoms: C_5  and  N_26
REMARK    4  A    between atoms: C_27  and  C_31
REMARK    5  A    between atoms: C_32  and  C_37
REMARK                            x       y       z     vdW  Elec       q    Type
REMARK                         _______ _______ _______ _____ _____    ______ ____
ROOT
ATOM      1  N   UNL     1      34.875 -20.343 -19.977  0.00  0.00    -0.409 NA
ATOM      2  C   UNL     1      35.835 -19.639 -20.618  0.00  0.00    +0.091 C 
ATOM      3  C   UNL     1      35.300 -21.269 -19.090  0.00  0.00    +0.139 C 
ATOM      4  C   UNL     1      37.193 -19.819 -20.414  0.00  0.00    +0.082 C 
ATOM      5  C   UNL     1      36.634 -21.524 -18.814  0.00  0.00    +0.076 C 
ATOM      6  C   UNL     1      37.593 -20.781 -19.494  0.00  0.00    -0.002 C 
ENDROOT
BRANCH   2   8
ATOM      7  O   UNL     1      33.439 -17.205 -23.278  0.00  0.00    -0.363 OA
ATOM      8  C   UNL     1      35.362 -18.598 -21.619  0.00  0.00    +0.053 C 
ATOM      9  C   UNL     1      33.822 -16.606 -22.035  0.00  0.00    +0.093 C 
ATOM     10  C   UNL     1      34.282 -18.184 -23.894  0.00  0.00    +0.093 C 
ATOM     11  C   UNL     1      34.318 -17.649 -21.017  0.00  0.00    +0.034 C 
ATOM     12  C   UNL     1      34.780 -19.237 -22.887  0.00  0.00    +0.034 C 
ATOM     13  C   UNL     1      34.835 -15.472 -22.244  0.00  0.00    +0.030 C 
ATOM     14  C   UNL     1      32.531 -15.966 -21.493  0.00  0.00    +0.030 C 
ATOM     15  C   UNL     1      33.381 -18.883 -24.928  0.00  0.00    +0.030 C 
ATOM     16  C   UNL     1      35.435 -17.530 -24.667  0.00  0.00    +0.030 C 
ENDBRANCH   2   8
BRANCH   3  21
ATOM     17  C   UNL     1      32.119 -23.250 -16.774  0.00  0.00    +0.004 C 
ATOM     18  C   UNL     1      31.729 -22.358 -17.972  0.00  0.00    +0.005 C 
ATOM     19  C   UNL     1      33.409 -24.028 -17.126  0.00  0.00    +0.026 C 
ATOM     20  C   UNL     1      32.844 -21.385 -18.375  0.00  0.00    +0.029 C 
ATOM     21  C   UNL     1      34.215 -22.018 -18.409  0.00  0.00    +0.004 C 
ATOM     22  C   UNL     1      34.454 -23.212 -17.835  0.00  0.00    -0.028 C 
ATOM     23  C   UNL     1      32.335 -22.399 -15.507  0.00  0.00    +0.000 C 
ATOM     24  C   UNL     1      30.984 -24.249 -16.490  0.00  0.00    +0.000 C 
ENDBRANCH   3  21
BRANCH   5  26
ATOM     25  O   UNL     1      37.257 -21.267 -15.893  0.00  0.00    -0.271 OA
ATOM     26  N   UNL     1      37.035 -22.490 -17.889  0.00  0.00    -0.279 N 
ATOM     27  C   UNL     1      37.315 -22.314 -16.528  0.00  0.00    +0.264 C 
ATOM     28  H   UNL     1      37.133 -23.405 -18.236  0.00  0.00    +0.155 HD
BRANCH  27  31
ATOM     29  N   UNL     1      38.968 -24.025 -15.645  0.00  0.00    -0.303 N 
ATOM     30  N   UNL     1      36.812 -24.322 -15.197  0.00  0.00    -0.309 N 
ATOM     31  C   UNL     1      37.694 -23.549 -15.792  0.00  0.00    +0.223 C 
ATOM     32  C   UNL     1      38.893 -25.174 -14.909  0.00  0.00    +0.130 C 
ATOM     33  C   UNL     1      37.555 -25.336 -14.644  0.00  0.00    +0.085 C 
ATOM     34  H   UNL     1      39.787 -23.614 -16.005  0.00  0.00    +0.149 HD
ATOM     35  H   UNL     1      35.836 -24.200 -15.155  0.00  0.00    +0.149 HD
BRANCH  32  37
ATOM     36  N   UNL     1      40.891 -26.647 -14.221  0.00  0.00    -0.189 NA
ATOM     37  C   UNL     1      39.992 -25.983 -14.531  0.00  0.00    +0.116 C 
ENDBRANCH  32  37
ENDBRANCH  27  31
ENDBRANCH   5  26
TORSDOF 5
ENDMDL
MODEL 9
REMARK VINA RESULT:      -3.8     10.837     17.269
REMARK  Name = 25230468
REMARK  5 active torsions:
REMARK  status: ('A' for Active; 'I' for Inactive)
REMARK    1  A    between atoms: C_2  and  C_8
REMARK    2  A    between atoms: C_3  and  C_21
REMARK    3  A    between atoms: C_5  and  N_26
REMARK    4  A    between atoms: C_27  and  C_31
REMARK    5  A    between atoms: C_32  and  C_37
REMARK                            x       y       z     vdW  Elec       q    Type
REMARK                         _______ _______ _______ _____ _____    ______ ____
ROOT
ATOM      1  N   UNL     1      35.924 -23.222 -15.673  0.00  0.00    -0.409 NA
ATOM      2  C   UNL     1      37.276 -23.208 -15.683  0.00  0.00    +0.091 C 
ATOM      3  C   UNL     1      35.310 -22.618 -16.715  0.00  0.00    +0.139 C 
ATOM      4  C   UNL     1      38.038 -22.621 -16.680  0.00  0.00    +0.082 C 
ATOM      5  C   UNL     1      35.980 -22.004 -17.760  0.00  0.00    +0.076 C 
ATOM      6  C   UNL     1      37.370 -22.009 -17.735  0.00  0.00    -0.002 C 
ENDROOT
BRANCH   2   8
ATOM      7  O   UNL     1      38.909 -26.117 -12.925  0.00  0.00    -0.363 OA
ATOM      8  C   UNL     1      37.972 -23.883 -14.513  0.00  0.00    +0.053 C 
ATOM      9  C   UNL     1      39.845 -25.456 -13.785  0.00  0.00    +0.093 C 
ATOM     10  C   UNL     1      37.715 -25.446 -12.512  0.00  0.00    +0.093 C 
ATOM     11  C   UNL     1      39.151 -24.754 -14.966  0.00  0.00    +0.034 C 
ATOM     12  C   UNL     1      37.008 -24.744 -13.686  0.00  0.00    +0.034 C 
ATOM     13  C   UNL     1      40.758 -24.505 -12.999  0.00  0.00    +0.030 C 
ATOM     14  C   UNL     1      40.735 -26.585 -14.338  0.00  0.00    +0.030 C 
ATOM     15  C   UNL     1      36.798 -26.565 -11.986  0.00  0.00    +0.030 C 
ATOM     16  C   UNL     1      37.980 -24.491 -11.340  0.00  0.00    +0.030 C 
ENDBRANCH   2   8
BRANCH   3  21
ATOM     17  C   UNL     1      30.937 -23.111 -16.527  0.00  0.00    +0.004 C 
ATOM     18  C   UNL     1      31.677 -22.523 -15.307  0.00  0.00    +0.005 C 
ATOM     19  C   UNL     1      31.592 -22.572 -17.820  0.00  0.00    +0.026 C 
ATOM     20  C   UNL     1      33.177 -22.840 -15.314  0.00  0.00    +0.029 C 
ATOM     21  C   UNL     1      33.828 -22.656 -16.665  0.00  0.00    +0.004 C 
ATOM     22  C   UNL     1      33.095 -22.541 -17.789  0.00  0.00    -0.028 C 
ATOM     23  C   UNL     1      30.983 -24.652 -16.504  0.00  0.00    +0.000 C 
ATOM     24  C   UNL     1      29.460 -22.677 -16.486  0.00  0.00    +0.000 C 
ENDBRANCH   3  21
BRANCH   5  26
ATOM     25  O   UNL     1      36.958 -20.015 -19.780  0.00  0.00    -0.271 OA
ATOM     26  N   UNL     1      35.310 -21.391 -18.821  0.00  0.00    -0.279 N 
ATOM     27  C   UNL     1      35.817 -20.463 -19.739  0.00  0.00    +0.264 C 
ATOM     28  H   UNL     1      34.365 -21.641 -18.937  0.00  0.00    +0.155 HD
BRANCH  27  31
ATOM     29  N   UNL     1      35.199 -19.534 -22.017  0.00  0.00    -0.303 N 
ATOM     30  N   UNL     1      33.556 -20.022 -20.604  0.00  0.00    -0.309 N 
ATOM     31  C   UNL     1      34.859 -20.009 -20.781  0.00  0.00    +0.223 C 
ATOM     32  C   UNL     1      34.039 -19.225 -22.670  0.00  0.00    +0.130 C 
ATOM     33  C   UNL     1      33.039 -19.535 -21.779  0.00  0.00    +0.085 C 
ATOM     34  H   UNL     1      36.112 -19.434 -22.371  0.00  0.00    +0.149 HD
ATOM     35  H   UNL     1      33.060 -20.317 -19.806  0.00  0.00    +0.149 HD
BRANCH  32  37
ATOM     36  N   UNL     1      33.871 -18.270 -25.057  0.00  0.00    -0.189 NA
ATOM     37  C   UNL     1      33.946 -18.701 -23.982  0.00  0.00    +0.116 C 
ENDBRANCH  32  37
ENDBRANCH  27  31
ENDBRANCH   5  26
TORSDOF 5
ENDMDL
