MODEL 1
REMARK VINA RESULT:     -11.3      0.000      0.000
REMARK  Name = 52913524
REMARK  9 active torsions:
REMARK  status: ('A' for Active; 'I' for Inactive)
REMARK    1  A    between atoms: C_1  and  C_10
REMARK    2  A    between atoms: C_4  and  C_24
REMARK    3  A    between atoms: C_5  and  C_22
REMARK    4  A    between atoms: C_8  and  O_13
REMARK    5  A    between atoms: C_9  and  O_15
REMARK    6  A    between atoms: C_11  and  O_17
REMARK    7  A    between atoms: C_12  and  C_19
REMARK    8  A    between atoms: C_19  and  O_20
REMARK    9  A    between atoms: C_24  and  C_27
REMARK                            x       y       z     vdW  Elec       q    Type
REMARK                         _______ _______ _______ _____ _____    ______ ____
ROOT
ATOM      1  C   UNL     1      34.214 -24.050 -14.678  0.00  0.00    +0.007 C 
ATOM      2  C   UNL     1      34.103 -23.926 -16.063  0.00  0.00    -0.006 C 
ATOM      3  C   UNL     1      33.145 -23.690 -13.858  0.00  0.00    -0.002 C 
ATOM      4  C   UNL     1      32.923 -23.442 -16.628  0.00  0.00    -0.022 C 
ATOM      5  C   UNL     1      31.853 -23.082 -15.806  0.00  0.00    -0.026 C 
ATOM      6  C   UNL     1      31.964 -23.206 -14.422  0.00  0.00    -0.005 C 
ENDROOT
BRANCH   1  10
ATOM      7  O   UNL     1      36.186 -23.468 -13.480  0.00  0.00    -0.347 OA
ATOM      8  C   UNL     1      36.381 -25.284 -15.103  0.00  0.00    +0.171 C 
ATOM      9  C   UNL     1      37.737 -25.664 -14.500  0.00  0.00    +0.169 C 
ATOM     10  C   UNL     1      35.497 -24.577 -14.065  0.00  0.00    +0.167 C 
ATOM     11  C   UNL     1      38.369 -24.484 -13.763  0.00  0.00    +0.169 C 
ATOM     12  C   UNL     1      37.373 -23.857 -12.786  0.00  0.00    +0.174 C 
BRANCH   8  13
ATOM     13  O   UNL     1      35.718 -26.470 -15.538  0.00  0.00    -0.379 OA
ATOM     14  H   UNL     1      34.915 -26.605 -15.010  0.00  0.00    +0.211 HD
ENDBRANCH   8  13
BRANCH   9  15
ATOM     15  O   UNL     1      38.627 -26.061 -15.544  0.00  0.00    -0.379 OA
ATOM     16  H   UNL     1      39.498 -25.661 -15.396  0.00  0.00    +0.211 HD
ENDBRANCH   9  15
BRANCH  11  17
ATOM     17  O   UNL     1      39.512 -24.936 -13.042  0.00  0.00    -0.379 OA
ATOM     18  H   UNL     1      40.315 -24.585 -13.457  0.00  0.00    +0.211 HD
ENDBRANCH  11  17
BRANCH  12  19
ATOM     19  C   UNL     1      37.943 -22.608 -12.120  0.00  0.00    +0.169 C 
BRANCH  19  20
ATOM     20  O   UNL     1      37.210 -22.354 -10.937  0.00  0.00    -0.379 OA
ATOM     21  H   UNL     1      37.820 -22.100 -10.227  0.00  0.00    +0.211 HD
ENDBRANCH  19  20
ENDBRANCH  12  19
ENDBRANCH   1  10
BRANCH   5  22
ATOM     22  C   UNL     1      30.580 -22.561 -16.388  0.00  0.00    +0.026 C 
ATOM     23  C   UNL     1      29.386 -22.794 -15.468  0.00  0.00    +0.005 C 
ENDBRANCH   5  22
BRANCH   4  24
ATOM     24  C   UNL     1      32.827 -23.318 -18.113  0.00  0.00    +0.052 C 
BRANCH  24  27
ATOM     25  O   UNL     1      33.903 -19.718 -21.223  0.00  0.00    -0.468 OA
ATOM     26  O   UNL     1      36.632 -19.718 -20.292  0.00  0.00    -0.468 OA
ATOM     27  C   UNL     1      33.832 -22.357 -18.713  0.00  0.00    -0.015 C 
ATOM     28  C   UNL     1      33.427 -21.450 -19.693  0.00  0.00    +0.036 C 
ATOM     29  C   UNL     1      35.162 -22.383 -18.291  0.00  0.00    -0.001 C 
ATOM     30  C   UNL     1      34.356 -20.571 -20.250  0.00  0.00    +0.172 C 
ATOM     31  C   UNL     1      35.680 -20.579 -19.807  0.00  0.00    +0.172 C 
ATOM     32  C   UNL     1      36.087 -21.495 -18.838  0.00  0.00    +0.040 C 
ATOM     33  C   UNL     1      34.979 -19.123 -21.954  0.00  0.00    +0.253 C 
ATOM     34  C   UNL     1      36.047 -18.623 -21.001  0.00  0.00    +0.253 C 
ENDBRANCH  24  27
ENDBRANCH   4  24
TORSDOF 9
ENDMDL
MODEL 2
REMARK VINA RESULT:     -11.3      1.253      1.919
REMARK  Name = 52913524
REMARK  9 active torsions:
REMARK  status: ('A' for Active; 'I' for Inactive)
REMARK    1  A    between atoms: C_1  and  C_10
REMARK    2  A    between atoms: C_4  and  C_24
REMARK    3  A    between atoms: C_5  and  C_22
REMARK    4  A    between atoms: C_8  and  O_13
REMARK    5  A    between atoms: C_9  and  O_15
REMARK    6  A    between atoms: C_11  and  O_17
REMARK    7  A    between atoms: C_12  and  C_19
REMARK    8  A    between atoms: C_19  and  O_20
REMARK    9  A    between atoms: C_24  and  C_27
REMARK                            x       y       z     vdW  Elec       q    Type
REMARK                         _______ _______ _______ _____ _____    ______ ____
ROOT
ATOM      1  C   UNL     1      34.506 -23.587 -14.760  0.00  0.00    +0.007 C 
ATOM      2  C   UNL     1      34.458 -23.601 -16.154  0.00  0.00    -0.006 C 
ATOM      3  C   UNL     1      33.359 -23.288 -14.025  0.00  0.00    -0.002 C 
ATOM      4  C   UNL     1      33.262 -23.315 -16.813  0.00  0.00    -0.022 C 
ATOM      5  C   UNL     1      32.115 -23.015 -16.077  0.00  0.00    -0.026 C 
ATOM      6  C   UNL     1      32.163 -23.001 -14.684  0.00  0.00    -0.005 C 
ENDROOT
BRANCH   1  10
ATOM      7  O   UNL     1      36.818 -24.079 -15.039  0.00  0.00    -0.347 OA
ATOM      8  C   UNL     1      35.686 -25.146 -13.153  0.00  0.00    +0.171 C 
ATOM      9  C   UNL     1      37.047 -25.534 -12.568  0.00  0.00    +0.169 C 
ATOM     10  C   UNL     1      35.805 -23.899 -14.043  0.00  0.00    +0.167 C 
ATOM     11  C   UNL     1      38.126 -25.575 -13.650  0.00  0.00    +0.169 C 
ATOM     12  C   UNL     1      38.115 -24.289 -14.478  0.00  0.00    +0.174 C 
BRANCH   8  13
ATOM     13  O   UNL     1      34.785 -24.860 -12.084  0.00  0.00    -0.379 OA
ATOM     14  H   UNL     1      34.148 -25.586 -11.994  0.00  0.00    +0.211 HD
ENDBRANCH   8  13
BRANCH   9  15
ATOM     15  O   UNL     1      36.958 -26.835 -11.983  0.00  0.00    -0.379 OA
ATOM     16  H   UNL     1      37.850 -27.196 -11.863  0.00  0.00    +0.211 HD
ENDBRANCH   9  15
BRANCH  11  17
ATOM     17  O   UNL     1      39.403 -25.727 -13.035  0.00  0.00    -0.379 OA
ATOM     18  H   UNL     1      40.098 -25.534 -13.684  0.00  0.00    +0.211 HD
ENDBRANCH  11  17
BRANCH  12  19
ATOM     19  C   UNL     1      39.108 -24.352 -15.634  0.00  0.00    +0.169 C 
BRANCH  19  20
ATOM     20  O   UNL     1      39.597 -25.676 -15.736  0.00  0.00    -0.379 OA
ATOM     21  H   UNL     1      40.044 -25.920 -14.910  0.00  0.00    +0.211 HD
ENDBRANCH  19  20
ENDBRANCH  12  19
ENDBRANCH   1  10
BRANCH   5  22
ATOM     22  C   UNL     1      30.824 -22.704 -16.761  0.00  0.00    +0.026 C 
ATOM     23  C   UNL     1      29.616 -23.003 -15.879  0.00  0.00    +0.005 C 
ENDBRANCH   5  22
BRANCH   4  24
ATOM     24  C   UNL     1      33.235 -23.336 -18.306  0.00  0.00    +0.052 C 
BRANCH  24  27
ATOM     25  O   UNL     1      33.543 -19.412 -21.187  0.00  0.00    -0.468 OA
ATOM     26  O   UNL     1      36.370 -19.231 -20.652  0.00  0.00    -0.468 OA
ATOM     27  C   UNL     1      34.058 -22.239 -18.949  0.00  0.00    -0.015 C 
ATOM     28  C   UNL     1      33.441 -21.299 -19.774  0.00  0.00    +0.036 C 
ATOM     29  C   UNL     1      35.434 -22.175 -18.722  0.00  0.00    -0.001 C 
ATOM     30  C   UNL     1      34.203 -20.294 -20.371  0.00  0.00    +0.172 C 
ATOM     31  C   UNL     1      35.574 -20.213 -20.121  0.00  0.00    +0.172 C 
ATOM     32  C   UNL     1      36.193 -21.163 -19.308  0.00  0.00    +0.040 C 
ATOM     33  C   UNL     1      34.447 -18.661 -22.002  0.00  0.00    +0.253 C 
ATOM     34  C   UNL     1      35.600 -18.142 -21.167  0.00  0.00    +0.253 C 
ENDBRANCH  24  27
ENDBRANCH   4  24
TORSDOF 9
ENDMDL
MODEL 3
REMARK VINA RESULT:     -10.4      3.070      5.828
REMARK  Name = 52913524
REMARK  9 active torsions:
REMARK  status: ('A' for Active; 'I' for Inactive)
REMARK    1  A    between atoms: C_1  and  C_10
REMARK    2  A    between atoms: C_4  and  C_24
REMARK    3  A    between atoms: C_5  and  C_22
REMARK    4  A    between atoms: C_8  and  O_13
REMARK    5  A    between atoms: C_9  and  O_15
REMARK    6  A    between atoms: C_11  and  O_17
REMARK    7  A    between atoms: C_12  and  C_19
REMARK    8  A    between atoms: C_19  and  O_20
REMARK    9  A    between atoms: C_24  and  C_27
REMARK                            x       y       z     vdW  Elec       q    Type
REMARK                         _______ _______ _______ _____ _____    ______ ____
ROOT
ATOM      1  C   UNL     1      33.245 -23.530 -16.392  0.00  0.00    +0.007 C 
ATOM      2  C   UNL     1      33.522 -23.286 -17.738  0.00  0.00    -0.006 C 
ATOM      3  C   UNL     1      34.162 -23.152 -15.411  0.00  0.00    -0.002 C 
ATOM      4  C   UNL     1      34.718 -22.666 -18.102  0.00  0.00    -0.022 C 
ATOM      5  C   UNL     1      35.635 -22.289 -17.120  0.00  0.00    -0.026 C 
ATOM      6  C   UNL     1      35.357 -22.532 -15.775  0.00  0.00    -0.005 C 
ENDROOT
BRANCH   1  10
ATOM      7  O   UNL     1      30.871 -23.369 -16.442  0.00  0.00    -0.347 OA
ATOM      8  C   UNL     1      31.860 -24.443 -14.482  0.00  0.00    +0.171 C 
ATOM      9  C   UNL     1      30.479 -24.974 -14.087  0.00  0.00    +0.169 C 
ATOM     10  C   UNL     1      31.945 -24.203 -15.997  0.00  0.00    +0.167 C 
ATOM     11  C   UNL     1      29.362 -24.132 -14.704  0.00  0.00    +0.169 C 
ATOM     12  C   UNL     1      29.586 -23.948 -16.206  0.00  0.00    +0.174 C 
BRANCH   8  13
ATOM     13  O   UNL     1      32.849 -25.403 -14.114  0.00  0.00    -0.379 OA
ATOM     14  H   UNL     1      33.374 -25.642 -14.893  0.00  0.00    +0.211 HD
ENDBRANCH   8  13
BRANCH   9  15
ATOM     15  O   UNL     1      30.338 -24.922 -12.667  0.00  0.00    -0.379 OA
ATOM     16  H   UNL     1      30.727 -25.718 -12.274  0.00  0.00    +0.211 HD
ENDBRANCH   9  15
BRANCH  11  17
ATOM     17  O   UNL     1      28.111 -24.781 -14.492  0.00  0.00    -0.379 OA
ATOM     18  H   UNL     1      27.412 -24.295 -14.959  0.00  0.00    +0.211 HD
ENDBRANCH  11  17
BRANCH  12  19
ATOM     19  C   UNL     1      28.546 -23.019 -16.824  0.00  0.00    +0.169 C 
BRANCH  19  20
ATOM     20  O   UNL     1      27.594 -23.805 -17.516  0.00  0.00    -0.379 OA
ATOM     21  H   UNL     1      27.411 -24.612 -17.009  0.00  0.00    +0.211 HD
ENDBRANCH  19  20
ENDBRANCH  12  19
ENDBRANCH   1  10
BRANCH   5  22
ATOM     22  C   UNL     1      36.921 -21.624 -17.486  0.00  0.00    +0.026 C 
ATOM     23  C   UNL     1      37.914 -21.608 -16.328  0.00  0.00    +0.005 C 
ENDBRANCH   5  22
BRANCH   4  24
ATOM     24  C   UNL     1      34.993 -22.416 -19.548  0.00  0.00    +0.052 C 
BRANCH  24  27
ATOM     25  O   UNL     1      35.889 -17.997 -21.407  0.00  0.00    -0.468 OA
ATOM     26  O   UNL     1      33.064 -17.424 -21.428  0.00  0.00    -0.468 OA
ATOM     27  C   UNL     1      34.497 -21.074 -20.044  0.00  0.00    -0.015 C 
ATOM     28  C   UNL     1      35.405 -20.129 -20.520  0.00  0.00    +0.036 C 
ATOM     29  C   UNL     1      33.132 -20.782 -20.018  0.00  0.00    -0.001 C 
ATOM     30  C   UNL     1      34.947 -18.891 -20.969  0.00  0.00    +0.172 C 
ATOM     31  C   UNL     1      33.579 -18.609 -20.970  0.00  0.00    +0.172 C 
ATOM     32  C   UNL     1      32.672 -19.549 -20.480  0.00  0.00    +0.040 C 
ATOM     33  C   UNL     1      35.360 -16.672 -21.510  0.00  0.00    +0.253 C 
ATOM     34  C   UNL     1      34.016 -16.696 -22.209  0.00  0.00    +0.253 C 
ENDBRANCH  24  27
ENDBRANCH   4  24
TORSDOF 9
ENDMDL
MODEL 4
REMARK VINA RESULT:     -10.3      3.399      7.613
REMARK  Name = 52913524
REMARK  9 active torsions:
REMARK  status: ('A' for Active; 'I' for Inactive)
REMARK    1  A    between atoms: C_1  and  C_10
REMARK    2  A    between atoms: C_4  and  C_24
REMARK    3  A    between atoms: C_5  and  C_22
REMARK    4  A    between atoms: C_8  and  O_13
REMARK    5  A    between atoms: C_9  and  O_15
REMARK    6  A    between atoms: C_11  and  O_17
REMARK    7  A    between atoms: C_12  and  C_19
REMARK    8  A    between atoms: C_19  and  O_20
REMARK    9  A    between atoms: C_24  and  C_27
REMARK                            x       y       z     vdW  Elec       q    Type
REMARK                         _______ _______ _______ _____ _____    ______ ____
ROOT
ATOM      1  C   UNL     1      35.436 -22.033 -18.061  0.00  0.00    +0.007 C 
ATOM      2  C   UNL     1      34.543 -22.845 -17.363  0.00  0.00    -0.006 C 
ATOM      3  C   UNL     1      36.675 -21.717 -17.503  0.00  0.00    -0.002 C 
ATOM      4  C   UNL     1      34.888 -23.340 -16.105  0.00  0.00    -0.022 C 
ATOM      5  C   UNL     1      36.127 -23.023 -15.546  0.00  0.00    -0.026 C 
ATOM      6  C   UNL     1      37.020 -22.211 -16.245  0.00  0.00    -0.005 C 
ENDROOT
BRANCH   1  10
ATOM      7  O   UNL     1      35.929 -20.395 -19.716  0.00  0.00    -0.347 OA
ATOM      8  C   UNL     1      33.588 -21.064 -19.493  0.00  0.00    +0.171 C 
ATOM      9  C   UNL     1      33.275 -20.379 -20.826  0.00  0.00    +0.169 C 
ATOM     10  C   UNL     1      35.061 -21.496 -19.429  0.00  0.00    +0.167 C 
ATOM     11  C   UNL     1      34.312 -19.306 -21.157  0.00  0.00    +0.169 C 
ATOM     12  C   UNL     1      35.731 -19.861 -21.026  0.00  0.00    +0.174 C 
BRANCH   8  13
ATOM     13  O   UNL     1      32.765 -22.221 -19.360  0.00  0.00    -0.379 OA
ATOM     14  H   UNL     1      32.137 -22.091 -18.633  0.00  0.00    +0.211 HD
ENDBRANCH   8  13
BRANCH   9  15
ATOM     15  O   UNL     1      31.996 -19.748 -20.747  0.00  0.00    -0.379 OA
ATOM     16  H   UNL     1      31.937 -19.052 -21.421  0.00  0.00    +0.211 HD
ENDBRANCH   9  15
BRANCH  11  17
ATOM     17  O   UNL     1      34.107 -18.849 -22.492  0.00  0.00    -0.379 OA
ATOM     18  H   UNL     1      33.419 -19.387 -22.915  0.00  0.00    +0.211 HD
ENDBRANCH  11  17
BRANCH  12  19
ATOM     19  C   UNL     1      36.784 -18.779 -21.243  0.00  0.00    +0.169 C 
BRANCH  19  20
ATOM     20  O   UNL     1      36.761 -18.394 -22.605  0.00  0.00    -0.379 OA
ATOM     21  H   UNL     1      35.980 -17.843 -22.771  0.00  0.00    +0.211 HD
ENDBRANCH  19  20
ENDBRANCH  12  19
ENDBRANCH   1  10
BRANCH   5  22
ATOM     22  C   UNL     1      36.518 -23.540 -14.201  0.00  0.00    +0.026 C 
ATOM     23  C   UNL     1      37.529 -24.679 -14.290  0.00  0.00    +0.005 C 
ENDBRANCH   5  22
BRANCH   4  24
ATOM     24  C   UNL     1      33.915 -24.206 -15.375  0.00  0.00    +0.052 C 
BRANCH  24  27
ATOM     25  O   UNL     1      29.438 -23.503 -17.178  0.00  0.00    -0.468 OA
ATOM     26  O   UNL     1      28.731 -21.964 -14.844  0.00  0.00    -0.468 OA
ATOM     27  C   UNL     1      32.529 -23.606 -15.255  0.00  0.00    -0.015 C 
ATOM     28  C   UNL     1      31.587 -23.827 -16.259  0.00  0.00    +0.036 C 
ATOM     29  C   UNL     1      32.200 -22.829 -14.143  0.00  0.00    -0.001 C 
ATOM     30  C   UNL     1      30.314 -23.267 -16.150  0.00  0.00    +0.172 C 
ATOM     31  C   UNL     1      29.975 -22.513 -15.025  0.00  0.00    +0.172 C 
ATOM     32  C   UNL     1      30.923 -22.281 -14.028  0.00  0.00    +0.040 C 
ATOM     33  C   UNL     1      28.315 -22.618 -17.134  0.00  0.00    +0.253 C 
ATOM     34  C   UNL     1      27.763 -22.539 -15.725  0.00  0.00    +0.253 C 
ENDBRANCH  24  27
ENDBRANCH   4  24
TORSDOF 9
ENDMDL
MODEL 5
REMARK VINA RESULT:     -10.2      2.694      7.278
REMARK  Name = 52913524
REMARK  9 active torsions:
REMARK  status: ('A' for Active; 'I' for Inactive)
REMARK    1  A    between atoms: C_1  and  C_10
REMARK    2  A    between atoms: C_4  and  C_24
REMARK    3  A    between atoms: C_5  and  C_22
REMARK    4  A    between atoms: C_8  and  O_13
REMARK    5  A    between atoms: C_9  and  O_15
REMARK    6  A    between atoms: C_11  and  O_17
REMARK    7  A    between atoms: C_12  and  C_19
REMARK    8  A    between atoms: C_19  and  O_20
REMARK    9  A    between atoms: C_24  and  C_27
REMARK                            x       y       z     vdW  Elec       q    Type
REMARK                         _______ _______ _______ _____ _____    ______ ____
ROOT
ATOM      1  C   UNL     1      33.629 -22.841 -17.547  0.00  0.00    +0.007 C 
ATOM      2  C   UNL     1      34.888 -22.674 -16.969  0.00  0.00    -0.006 C 
ATOM      3  C   UNL     1      33.384 -22.364 -18.834  0.00  0.00    -0.002 C 
ATOM      4  C   UNL     1      35.901 -22.029 -17.679  0.00  0.00    -0.022 C 
ATOM      5  C   UNL     1      35.654 -21.552 -18.967  0.00  0.00    -0.026 C 
ATOM      6  C   UNL     1      34.397 -21.719 -19.544  0.00  0.00    -0.005 C 
ENDROOT
BRANCH   1  10
ATOM      7  O   UNL     1      31.319 -22.804 -16.974  0.00  0.00    -0.347 OA
ATOM      8  C   UNL     1      32.859 -23.659 -15.279  0.00  0.00    +0.171 C 
ATOM      9  C   UNL     1      31.670 -24.224 -14.497  0.00  0.00    +0.169 C 
ATOM     10  C   UNL     1      32.529 -23.543 -16.775  0.00  0.00    +0.167 C 
ATOM     11  C   UNL     1      30.375 -23.493 -14.850  0.00  0.00    +0.169 C 
ATOM     12  C   UNL     1      30.185 -23.424 -16.366  0.00  0.00    +0.174 C 
BRANCH   8  13
ATOM     13  O   UNL     1      33.975 -24.534 -15.124  0.00  0.00    -0.379 OA
ATOM     14  H   UNL     1      34.516 -24.240 -14.374  0.00  0.00    +0.211 HD
ENDBRANCH   8  13
BRANCH   9  15
ATOM     15  O   UNL     1      31.901 -24.060 -13.097  0.00  0.00    -0.379 OA
ATOM     16  H   UNL     1      31.659 -24.876 -12.632  0.00  0.00    +0.211 HD
ENDBRANCH   9  15
BRANCH  11  17
ATOM     17  O   UNL     1      29.271 -24.183 -14.270  0.00  0.00    -0.379 OA
ATOM     18  H   UNL     1      29.110 -23.842 -13.376  0.00  0.00    +0.211 HD
ENDBRANCH  11  17
BRANCH  12  19
ATOM     19  C   UNL     1      28.957 -22.603 -16.746  0.00  0.00    +0.169 C 
BRANCH  19  20
ATOM     20  O   UNL     1      28.198 -23.337 -17.689  0.00  0.00    -0.379 OA
ATOM     21  H   UNL     1      28.764 -24.002 -18.112  0.00  0.00    +0.211 HD
ENDBRANCH  19  20
ENDBRANCH  12  19
ENDBRANCH   1  10
BRANCH   5  22
ATOM     22  C   UNL     1      36.723 -20.858 -19.746  0.00  0.00    +0.026 C 
ATOM     23  C   UNL     1      36.165 -19.752 -20.636  0.00  0.00    +0.005 C 
ENDBRANCH   5  22
BRANCH   4  24
ATOM     24  C   UNL     1      37.240 -21.861 -17.040  0.00  0.00    +0.052 C 
BRANCH  24  27
ATOM     25  O   UNL     1      36.105 -23.211 -12.492  0.00  0.00    -0.468 OA
ATOM     26  O   UNL     1      38.104 -25.286 -12.600  0.00  0.00    -0.468 OA
ATOM     27  C   UNL     1      37.464 -22.759 -15.841  0.00  0.00    -0.015 C 
ATOM     28  C   UNL     1      36.680 -22.603 -14.698  0.00  0.00    +0.036 C 
ATOM     29  C   UNL     1      38.458 -23.738 -15.879  0.00  0.00    -0.001 C 
ATOM     30  C   UNL     1      36.894 -23.427 -13.593  0.00  0.00    +0.172 C 
ATOM     31  C   UNL     1      37.869 -24.424 -13.641  0.00  0.00    +0.172 C 
ATOM     32  C   UNL     1      38.662 -24.571 -14.779  0.00  0.00    +0.040 C 
ATOM     33  C   UNL     1      36.629 -23.854 -11.327  0.00  0.00    +0.253 C 
ATOM     34  C   UNL     1      37.035 -25.278 -11.652  0.00  0.00    +0.253 C 
ENDBRANCH  24  27
ENDBRANCH   4  24
TORSDOF 9
ENDMDL
MODEL 6
REMARK VINA RESULT:     -10.1      2.511      5.677
REMARK  Name = 52913524
REMARK  9 active torsions:
REMARK  status: ('A' for Active; 'I' for Inactive)
REMARK    1  A    between atoms: C_1  and  C_10
REMARK    2  A    between atoms: C_4  and  C_24
REMARK    3  A    between atoms: C_5  and  C_22
REMARK    4  A    between atoms: C_8  and  O_13
REMARK    5  A    between atoms: C_9  and  O_15
REMARK    6  A    between atoms: C_11  and  O_17
REMARK    7  A    between atoms: C_12  and  C_19
REMARK    8  A    between atoms: C_19  and  O_20
REMARK    9  A    between atoms: C_24  and  C_27
REMARK                            x       y       z     vdW  Elec       q    Type
REMARK                         _______ _______ _______ _____ _____    ______ ____
ROOT
ATOM      1  C   UNL     1      36.701 -22.623 -16.144  0.00  0.00    +0.007 C 
ATOM      2  C   UNL     1      35.437 -22.944 -16.640  0.00  0.00    -0.006 C 
ATOM      3  C   UNL     1      37.537 -21.771 -16.865  0.00  0.00    -0.002 C 
ATOM      4  C   UNL     1      35.010 -22.413 -17.857  0.00  0.00    -0.022 C 
ATOM      5  C   UNL     1      35.848 -21.560 -18.578  0.00  0.00    -0.026 C 
ATOM      6  C   UNL     1      37.111 -21.240 -18.082  0.00  0.00    -0.005 C 
ENDROOT
BRANCH   1  10
ATOM      7  O   UNL     1      38.236 -24.108 -15.094  0.00  0.00    -0.347 OA
ATOM      8  C   UNL     1      36.025 -23.909 -14.072  0.00  0.00    +0.171 C 
ATOM      9  C   UNL     1      36.549 -24.619 -12.821  0.00  0.00    +0.169 C 
ATOM     10  C   UNL     1      37.164 -23.200 -14.821  0.00  0.00    +0.167 C 
ATOM     11  C   UNL     1      37.782 -25.466 -13.138  0.00  0.00    +0.169 C 
ATOM     12  C   UNL     1      38.820 -24.648 -13.907  0.00  0.00    +0.174 C 
BRANCH   8  13
ATOM     13  O   UNL     1      35.058 -22.935 -13.683  0.00  0.00    -0.379 OA
ATOM     14  H   UNL     1      35.474 -22.060 -13.647  0.00  0.00    +0.211 HD
ENDBRANCH   8  13
BRANCH   9  15
ATOM     15  O   UNL     1      35.537 -25.487 -12.309  0.00  0.00    -0.379 OA
ATOM     16  H   UNL     1      35.832 -25.866 -11.466  0.00  0.00    +0.211 HD
ENDBRANCH   9  15
BRANCH  11  17
ATOM     17  O   UNL     1      38.359 -25.931 -11.920  0.00  0.00    -0.379 OA
ATOM     18  H   UNL     1      39.160 -26.442 -12.117  0.00  0.00    +0.211 HD
ENDBRANCH  11  17
BRANCH  12  19
ATOM     19  C   UNL     1      40.011 -25.501 -14.332  0.00  0.00    +0.169 C 
BRANCH  19  20
ATOM     20  O   UNL     1      39.547 -26.803 -14.637  0.00  0.00    -0.379 OA
ATOM     21  H   UNL     1      38.648 -26.915 -14.288  0.00  0.00    +0.211 HD
ENDBRANCH  19  20
ENDBRANCH  12  19
ENDBRANCH   1  10
BRANCH   5  22
ATOM     22  C   UNL     1      35.413 -20.980 -19.884  0.00  0.00    +0.026 C 
ATOM     23  C   UNL     1      36.412 -19.964 -20.427  0.00  0.00    +0.005 C 
ENDBRANCH   5  22
BRANCH   4  24
ATOM     24  C   UNL     1      33.654 -22.770 -18.368  0.00  0.00    +0.052 C 
BRANCH  24  27
ATOM     25  O   UNL     1      32.458 -24.727 -14.063  0.00  0.00    -0.468 OA
ATOM     26  O   UNL     1      29.798 -23.641 -14.299  0.00  0.00    -0.468 OA
ATOM     27  C   UNL     1      32.634 -23.022 -17.277  0.00  0.00    -0.015 C 
ATOM     28  C   UNL     1      32.993 -23.751 -16.144  0.00  0.00    +0.036 C 
ATOM     29  C   UNL     1      31.335 -22.529 -17.409  0.00  0.00    -0.001 C 
ATOM     30  C   UNL     1      32.051 -23.987 -15.143  0.00  0.00    +0.172 C 
ATOM     31  C   UNL     1      30.759 -23.471 -15.263  0.00  0.00    +0.172 C 
ATOM     32  C   UNL     1      30.396 -22.754 -16.403  0.00  0.00    +0.040 C 
ATOM     33  C   UNL     1      31.350 -25.195 -13.289  0.00  0.00    +0.253 C 
ATOM     34  C   UNL     1      30.360 -24.072 -13.057  0.00  0.00    +0.253 C 
ENDBRANCH  24  27
ENDBRANCH   4  24
TORSDOF 9
ENDMDL
MODEL 7
REMARK VINA RESULT:     -10.1      2.435      5.377
REMARK  Name = 52913524
REMARK  9 active torsions:
REMARK  status: ('A' for Active; 'I' for Inactive)
REMARK    1  A    between atoms: C_1  and  C_10
REMARK    2  A    between atoms: C_4  and  C_24
REMARK    3  A    between atoms: C_5  and  C_22
REMARK    4  A    between atoms: C_8  and  O_13
REMARK    5  A    between atoms: C_9  and  O_15
REMARK    6  A    between atoms: C_11  and  O_17
REMARK    7  A    between atoms: C_12  and  C_19
REMARK    8  A    between atoms: C_19  and  O_20
REMARK    9  A    between atoms: C_24  and  C_27
REMARK                            x       y       z     vdW  Elec       q    Type
REMARK                         _______ _______ _______ _____ _____    ______ ____
ROOT
ATOM      1  C   UNL     1      36.775 -22.687 -15.905  0.00  0.00    +0.007 C 
ATOM      2  C   UNL     1      35.556 -23.072 -16.463  0.00  0.00    -0.006 C 
ATOM      3  C   UNL     1      37.583 -21.761 -16.564  0.00  0.00    -0.002 C 
ATOM      4  C   UNL     1      35.146 -22.531 -17.682  0.00  0.00    -0.022 C 
ATOM      5  C   UNL     1      35.955 -21.605 -18.341  0.00  0.00    -0.026 C 
ATOM      6  C   UNL     1      37.173 -21.220 -17.783  0.00  0.00    -0.005 C 
ENDROOT
BRANCH   1  10
ATOM      7  O   UNL     1      38.259 -24.221 -14.851  0.00  0.00    -0.347 OA
ATOM      8  C   UNL     1      36.059 -23.937 -13.825  0.00  0.00    +0.171 C 
ATOM      9  C   UNL     1      36.560 -24.661 -12.572  0.00  0.00    +0.169 C 
ATOM     10  C   UNL     1      37.221 -23.274 -14.580  0.00  0.00    +0.167 C 
ATOM     11  C   UNL     1      37.760 -25.553 -12.888  0.00  0.00    +0.169 C 
ATOM     12  C   UNL     1      38.825 -24.777 -13.663  0.00  0.00    +0.174 C 
BRANCH   8  13
ATOM     13  O   UNL     1      35.129 -22.927 -13.437  0.00  0.00    -0.379 OA
ATOM     14  H   UNL     1      34.261 -23.119 -13.826  0.00  0.00    +0.211 HD
ENDBRANCH   8  13
BRANCH   9  15
ATOM     15  O   UNL     1      35.518 -25.489 -12.053  0.00  0.00    -0.379 OA
ATOM     16  H   UNL     1      35.903 -26.300 -11.685  0.00  0.00    +0.211 HD
ENDBRANCH   9  15
BRANCH  11  17
ATOM     17  O   UNL     1      38.323 -26.033 -11.670  0.00  0.00    -0.379 OA
ATOM     18  H   UNL     1      37.688 -25.904 -10.947  0.00  0.00    +0.211 HD
ENDBRANCH  11  17
BRANCH  12  19
ATOM     19  C   UNL     1      39.984 -25.675 -14.087  0.00  0.00    +0.169 C 
BRANCH  19  20
ATOM     20  O   UNL     1      41.020 -24.861 -14.602  0.00  0.00    -0.379 OA
ATOM     21  H   UNL     1      41.209 -24.144 -13.976  0.00  0.00    +0.211 HD
ENDBRANCH  19  20
ENDBRANCH  12  19
ENDBRANCH   1  10
BRANCH   5  22
ATOM     22  C   UNL     1      35.537 -21.013 -19.647  0.00  0.00    +0.026 C 
ATOM     23  C   UNL     1      36.610 -20.107 -20.242  0.00  0.00    +0.005 C 
ENDBRANCH   5  22
BRANCH   4  24
ATOM     24  C   UNL     1      33.837 -22.958 -18.260  0.00  0.00    +0.052 C 
BRANCH  24  27
ATOM     25  O   UNL     1      29.182 -22.378 -16.927  0.00  0.00    -0.468 OA
ATOM     26  O   UNL     1      29.747 -23.615 -14.385  0.00  0.00    -0.468 OA
ATOM     27  C   UNL     1      32.735 -23.116 -17.233  0.00  0.00    -0.015 C 
ATOM     28  C   UNL     1      31.440 -22.692 -17.532  0.00  0.00    +0.036 C 
ATOM     29  C   UNL     1      33.017 -23.680 -15.988  0.00  0.00    -0.001 C 
ATOM     30  C   UNL     1      30.429 -22.832 -16.582  0.00  0.00    +0.172 C 
ATOM     31  C   UNL     1      30.705 -23.421 -15.347  0.00  0.00    +0.172 C 
ATOM     32  C   UNL     1      32.003 -23.832 -15.043  0.00  0.00    +0.040 C 
ATOM     33  C   UNL     1      28.327 -22.250 -15.787  0.00  0.00    +0.253 C 
ATOM     34  C   UNL     1      28.426 -23.486 -14.916  0.00  0.00    +0.253 C 
ENDBRANCH  24  27
ENDBRANCH   4  24
TORSDOF 9
ENDMDL
MODEL 8
REMARK VINA RESULT:     -10.0      2.917      7.090
REMARK  Name = 52913524
REMARK  9 active torsions:
REMARK  status: ('A' for Active; 'I' for Inactive)
REMARK    1  A    between atoms: C_1  and  C_10
REMARK    2  A    between atoms: C_4  and  C_24
REMARK    3  A    between atoms: C_5  and  C_22
REMARK    4  A    between atoms: C_8  and  O_13
REMARK    5  A    between atoms: C_9  and  O_15
REMARK    6  A    between atoms: C_11  and  O_17
REMARK    7  A    between atoms: C_12  and  C_19
REMARK    8  A    between atoms: C_19  and  O_20
REMARK    9  A    between atoms: C_24  and  C_27
REMARK                            x       y       z     vdW  Elec       q    Type
REMARK                         _______ _______ _______ _____ _____    ______ ____
ROOT
ATOM      1  C   UNL     1      34.746 -22.975 -16.682  0.00  0.00    +0.007 C 
ATOM      2  C   UNL     1      33.575 -23.127 -15.939  0.00  0.00    -0.006 C 
ATOM      3  C   UNL     1      35.985 -23.208 -16.086  0.00  0.00    -0.002 C 
ATOM      4  C   UNL     1      33.644 -23.511 -14.599  0.00  0.00    -0.022 C 
ATOM      5  C   UNL     1      34.884 -23.744 -14.004  0.00  0.00    -0.026 C 
ATOM      6  C   UNL     1      36.054 -23.593 -14.747  0.00  0.00    -0.005 C 
ENDROOT
BRANCH   1  10
ATOM      7  O   UNL     1      35.810 -21.739 -18.415  0.00  0.00    -0.347 OA
ATOM      8  C   UNL     1      33.367 -21.809 -18.454  0.00  0.00    +0.171 C 
ATOM      9  C   UNL     1      33.384 -21.260 -19.884  0.00  0.00    +0.169 C 
ATOM     10  C   UNL     1      34.670 -22.559 -18.138  0.00  0.00    +0.167 C 
ATOM     11  C   UNL     1      34.685 -20.512 -20.177  0.00  0.00    +0.169 C 
ATOM     12  C   UNL     1      35.898 -21.359 -19.789  0.00  0.00    +0.174 C 
BRANCH   8  13
ATOM     13  O   UNL     1      32.273 -22.714 -18.317  0.00  0.00    -0.379 OA
ATOM     14  H   UNL     1      32.591 -23.555 -17.953  0.00  0.00    +0.211 HD
ENDBRANCH   8  13
BRANCH   9  15
ATOM     15  O   UNL     1      32.301 -20.344 -20.053  0.00  0.00    -0.379 OA
ATOM     16  H   UNL     1      31.526 -20.820 -20.391  0.00  0.00    +0.211 HD
ENDBRANCH   9  15
BRANCH  11  17
ATOM     17  O   UNL     1      34.750 -20.208 -21.568  0.00  0.00    -0.379 OA
ATOM     18  H   UNL     1      33.853 -20.203 -21.939  0.00  0.00    +0.211 HD
ENDBRANCH  11  17
BRANCH  12  19
ATOM     19  C   UNL     1      37.204 -20.592 -19.968  0.00  0.00    +0.169 C 
BRANCH  19  20
ATOM     20  O   UNL     1      36.897 -19.237 -20.238  0.00  0.00    -0.379 OA
ATOM     21  H   UNL     1      37.679 -18.795 -20.606  0.00  0.00    +0.211 HD
ENDBRANCH  19  20
ENDBRANCH  12  19
ENDBRANCH   1  10
BRANCH   5  22
ATOM     22  C   UNL     1      34.983 -24.155 -12.571  0.00  0.00    +0.026 C 
ATOM     23  C   UNL     1      36.175 -23.516 -11.867  0.00  0.00    +0.005 C 
ENDBRANCH   5  22
BRANCH   4  24
ATOM     24  C   UNL     1      32.377 -23.667 -13.824  0.00  0.00    +0.052 C 
BRANCH  24  27
ATOM     25  O   UNL     1      28.508 -21.726 -16.071  0.00  0.00    -0.468 OA
ATOM     26  O   UNL     1      27.793 -24.322 -17.101  0.00  0.00    -0.468 OA
ATOM     27  C   UNL     1      31.144 -23.825 -14.689  0.00  0.00    -0.015 C 
ATOM     28  C   UNL     1      30.374 -22.708 -15.013  0.00  0.00    +0.036 C 
ATOM     29  C   UNL     1      30.776 -25.088 -15.155  0.00  0.00    -0.001 C 
ATOM     30  C   UNL     1      29.235 -22.857 -15.804  0.00  0.00    +0.172 C 
ATOM     31  C   UNL     1      28.882 -24.117 -16.293  0.00  0.00    +0.172 C 
ATOM     32  C   UNL     1      29.645 -25.235 -15.957  0.00  0.00    +0.040 C 
ATOM     33  C   UNL     1      27.207 -22.036 -16.578  0.00  0.00    +0.253 C 
ATOM     34  C   UNL     1      27.302 -23.099 -17.654  0.00  0.00    +0.253 C 
ENDBRANCH  24  27
ENDBRANCH   4  24
TORSDOF 9
ENDMDL
MODEL 9
REMARK VINA RESULT:      -9.9     10.585     16.217
REMARK  Name = 52913524
REMARK  9 active torsions:
REMARK  status: ('A' for Active; 'I' for Inactive)
REMARK    1  A    between atoms: C_1  and  C_10
REMARK    2  A    between atoms: C_4  and  C_24
REMARK    3  A    between atoms: C_5  and  C_22
REMARK    4  A    between atoms: C_8  and  O_13
REMARK    5  A    between atoms: C_9  and  O_15
REMARK    6  A    between atoms: C_11  and  O_17
REMARK    7  A    between atoms: C_12  and  C_19
REMARK    8  A    between atoms: C_19  and  O_20
REMARK    9  A    between atoms: C_24  and  C_27
REMARK                            x       y       z     vdW  Elec       q    Type
REMARK                         _______ _______ _______ _____ _____    ______ ____
ROOT
ATOM      1  C   UNL     1      32.515  -7.969 -21.906  0.00  0.00    +0.007 C 
ATOM      2  C   UNL     1      32.038  -9.167 -22.439  0.00  0.00    -0.006 C 
ATOM      3  C   UNL     1      32.562  -7.789 -20.524  0.00  0.00    -0.002 C 
ATOM      4  C   UNL     1      31.607 -10.185 -21.588  0.00  0.00    -0.022 C 
ATOM      5  C   UNL     1      31.653 -10.005 -20.205  0.00  0.00    -0.026 C 
ATOM      6  C   UNL     1      32.131  -8.808 -19.673  0.00  0.00    -0.005 C 
ENDROOT
BRANCH   1  10
ATOM      7  O   UNL     1      31.830  -6.311 -23.470  0.00  0.00    -0.347 OA
ATOM      8  C   UNL     1      33.994  -7.373 -23.871  0.00  0.00    +0.171 C 
ATOM      9  C   UNL     1      34.330  -6.281 -24.890  0.00  0.00    +0.169 C 
ATOM     10  C   UNL     1      32.985  -6.863 -22.831  0.00  0.00    +0.167 C 
ATOM     11  C   UNL     1      33.065  -5.624 -25.439  0.00  0.00    +0.169 C 
ATOM     12  C   UNL     1      32.139  -5.191 -24.301  0.00  0.00    +0.174 C 
BRANCH   8  13
ATOM     13  O   UNL     1      35.189  -7.763 -23.197  0.00  0.00    -0.379 OA
ATOM     14  H   UNL     1      34.996  -8.498 -22.594  0.00  0.00    +0.211 HD
ENDBRANCH   8  13
BRANCH   9  15
ATOM     15  O   UNL     1      35.040  -6.857 -25.988  0.00  0.00    -0.379 OA
ATOM     16  H   UNL     1      34.609  -6.606 -26.819  0.00  0.00    +0.211 HD
ENDBRANCH   9  15
BRANCH  11  17
ATOM     17  O   UNL     1      33.424  -4.481 -26.212  0.00  0.00    -0.379 OA
ATOM     18  H   UNL     1      34.367  -4.290 -26.085  0.00  0.00    +0.211 HD
ENDBRANCH  11  17
BRANCH  12  19
ATOM     19  C   UNL     1      30.819  -4.634 -24.826  0.00  0.00    +0.169 C 
BRANCH  19  20
ATOM     20  O   UNL     1      30.408  -3.576 -23.980  0.00  0.00    -0.379 OA
ATOM     21  H   UNL     1      31.189  -3.100 -23.656  0.00  0.00    +0.211 HD
ENDBRANCH  19  20
ENDBRANCH  12  19
ENDBRANCH   1  10
BRANCH   5  22
ATOM     22  C   UNL     1      31.197 -11.080 -19.275  0.00  0.00    +0.026 C 
ATOM     23  C   UNL     1      31.547 -10.776 -17.822  0.00  0.00    +0.005 C 
ENDBRANCH   5  22
BRANCH   4  24
ATOM     24  C   UNL     1      31.100 -11.458 -22.181  0.00  0.00    +0.052 C 
BRANCH  24  27
ATOM     25  O   UNL     1      33.497 -15.464 -20.768  0.00  0.00    -0.468 OA
ATOM     26  O   UNL     1      35.125 -15.338 -23.144  0.00  0.00    -0.468 OA
ATOM     27  C   UNL     1      32.177 -12.497 -22.416  0.00  0.00    -0.015 C 
ATOM     28  C   UNL     1      32.358 -13.532 -21.499  0.00  0.00    +0.036 C 
ATOM     29  C   UNL     1      32.991 -12.413 -23.547  0.00  0.00    -0.001 C 
ATOM     30  C   UNL     1      33.355 -14.483 -21.715  0.00  0.00    +0.172 C 
ATOM     31  C   UNL     1      34.151 -14.416 -22.860  0.00  0.00    +0.172 C 
ATOM     32  C   UNL     1      33.979 -13.372 -23.770  0.00  0.00    +0.040 C 
ATOM     33  C   UNL     1      34.740 -16.159 -20.903  0.00  0.00    +0.253 C 
ATOM     34  C   UNL     1      34.984 -16.521 -22.354  0.00  0.00    +0.253 C 
ENDBRANCH  24  27
ENDBRANCH   4  24
TORSDOF 9
ENDMDL
