MODEL 1
REMARK VINA RESULT:     -12.0      0.000      0.000
REMARK  Name = 46937052
REMARK  7 active torsions:
REMARK  status: ('A' for Active; 'I' for Inactive)
REMARK    1  A    between atoms: O_1  and  C_3
REMARK    2  A    between atoms: O_1  and  C_17
REMARK    3  A    between atoms: C_4  and  C_11
REMARK    4  A    between atoms: C_17  and  C_18
REMARK    5  A    between atoms: C_18  and  N_19
REMARK    6  A    between atoms: C_18  and  C_23
REMARK    7  A    between atoms: C_23  and  C_25
REMARK                            x       y       z     vdW  Elec       q    Type
REMARK                         _______ _______ _______ _____ _____    ______ ____
ROOT
ATOM      1  O   UNL     1      32.924 -22.391 -18.894  0.00  0.00    -0.476 OA
ENDROOT
BRANCH   1   3
ATOM      2  N   UNL     1      31.753 -23.540 -15.624  0.00  0.00    -0.239 NA
ATOM      3  C   UNL     1      32.958 -22.860 -17.606  0.00  0.00    +0.158 C 
ATOM      4  C   UNL     1      34.169 -23.605 -15.666  0.00  0.00    +0.039 C 
ATOM      5  C   UNL     1      34.166 -23.129 -16.973  0.00  0.00    +0.042 C 
ATOM      6  C   UNL     1      31.790 -23.080 -16.895  0.00  0.00    +0.136 C 
ATOM      7  C   UNL     1      32.946 -23.791 -15.041  0.00  0.00    +0.101 C 
BRANCH   4  11
ATOM      8  N   UNL     1      36.230 -24.788 -15.467  0.00  0.00    -0.264 NA
ATOM      9  N   UNL     1      38.804 -24.472 -12.817  0.00  0.00    -0.150 NA
ATOM     10  N   UNL     1      38.609 -23.538 -11.709  0.00  0.00    -0.147 NA
ATOM     11  C   UNL     1      35.445 -23.902 -14.960  0.00  0.00    +0.078 C 
ATOM     12  C   UNL     1      36.819 -23.410 -13.089  0.00  0.00    +0.040 C 
ATOM     13  C   UNL     1      37.759 -24.379 -13.596  0.00  0.00    +0.107 C 
ATOM     14  C   UNL     1      37.507 -25.143 -14.843  0.00  0.00    +0.173 C 
ATOM     15  C   UNL     1      35.679 -23.138 -13.702  0.00  0.00    +0.022 C 
ATOM     16  C   UNL     1      37.464 -22.943 -11.884  0.00  0.00    +0.123 C 
ENDBRANCH   4  11
ENDBRANCH   1   3
BRANCH   1  17
ATOM     17  C   UNL     1      34.143 -21.891 -19.426  0.00  0.00    +0.184 C 
BRANCH  17  18
ATOM     18  C   UNL     1      33.865 -20.813 -20.481  0.00  0.00    -0.017 C 
BRANCH  18  19
ATOM     19  N   UNL     1      32.616 -20.134 -20.127  0.00  0.00    +0.384 N 
ATOM     20  H   UNL     1      31.848 -20.806 -20.145  0.00  0.00    -0.089 HD
ATOM     21  H   UNL     1      32.431 -19.389 -20.798  0.00  0.00    -0.089 HD
ATOM     22  H   UNL     1      32.698 -19.737 -19.191  0.00  0.00    -0.089 HD
ENDBRANCH  18  19
BRANCH  18  23
ATOM     23  C   UNL     1      34.999 -19.762 -20.589  0.00  0.00    +0.010 C 
BRANCH  23  25
ATOM     24  N   UNL     1      34.726 -18.267 -24.004  0.00  0.00    -0.244 NA
ATOM     25  C   UNL     1      34.866 -18.827 -21.721  0.00  0.00    -0.004 C 
ATOM     26  C   UNL     1      34.733 -17.500 -21.829  0.00  0.00    +0.011 C 
ATOM     27  C   UNL     1      34.646 -17.142 -23.229  0.00  0.00    +0.080 C 
ATOM     28  C   UNL     1      34.851 -19.226 -23.138  0.00  0.00    +0.094 C 
ATOM     29  C   UNL     1      34.675 -16.507 -20.786  0.00  0.00    -0.020 C 
ATOM     30  C   UNL     1      34.507 -15.864 -23.604  0.00  0.00    +0.015 C 
ATOM     31  C   UNL     1      34.438 -14.750 -22.579  0.00  0.00    -0.020 C 
ATOM     32  C   UNL     1      34.536 -15.216 -21.137  0.00  0.00    +0.052 C 
ENDBRANCH  23  25
ENDBRANCH  18  23
ENDBRANCH  17  18
ENDBRANCH   1  17
TORSDOF 7
ENDMDL
MODEL 2
REMARK VINA RESULT:     -11.8      0.882      1.664
REMARK  Name = 46937052
REMARK  7 active torsions:
REMARK  status: ('A' for Active; 'I' for Inactive)
REMARK    1  A    between atoms: O_1  and  C_3
REMARK    2  A    between atoms: O_1  and  C_17
REMARK    3  A    between atoms: C_4  and  C_11
REMARK    4  A    between atoms: C_17  and  C_18
REMARK    5  A    between atoms: C_18  and  N_19
REMARK    6  A    between atoms: C_18  and  C_23
REMARK    7  A    between atoms: C_23  and  C_25
REMARK                            x       y       z     vdW  Elec       q    Type
REMARK                         _______ _______ _______ _____ _____    ______ ____
ROOT
ATOM      1  O   UNL     1      33.114 -22.384 -19.037  0.00  0.00    -0.476 OA
ENDROOT
BRANCH   1   3
ATOM      2  N   UNL     1      31.842 -23.455 -15.779  0.00  0.00    -0.239 NA
ATOM      3  C   UNL     1      33.107 -22.831 -17.742  0.00  0.00    +0.158 C 
ATOM      4  C   UNL     1      34.257 -23.563 -15.760  0.00  0.00    +0.039 C 
ATOM      5  C   UNL     1      34.294 -23.110 -17.074  0.00  0.00    +0.042 C 
ATOM      6  C   UNL     1      31.918 -23.018 -17.056  0.00  0.00    +0.136 C 
ATOM      7  C   UNL     1      33.016 -23.717 -15.163  0.00  0.00    +0.101 C 
BRANCH   4  11
ATOM      8  N   UNL     1      36.308 -24.754 -15.507  0.00  0.00    -0.264 NA
ATOM      9  N   UNL     1      38.798 -24.469 -12.776  0.00  0.00    -0.150 NA
ATOM     10  N   UNL     1      38.571 -23.544 -11.665  0.00  0.00    -0.147 NA
ATOM     11  C   UNL     1      35.509 -23.870 -15.017  0.00  0.00    +0.078 C 
ATOM     12  C   UNL     1      36.826 -23.398 -13.100  0.00  0.00    +0.040 C 
ATOM     13  C   UNL     1      37.778 -24.366 -13.586  0.00  0.00    +0.107 C 
ATOM     14  C   UNL     1      37.563 -25.119 -14.846  0.00  0.00    +0.173 C 
ATOM     15  C   UNL     1      35.706 -23.118 -13.746  0.00  0.00    +0.022 C 
ATOM     16  C   UNL     1      37.434 -22.944 -11.871  0.00  0.00    +0.123 C 
ENDBRANCH   4  11
ENDBRANCH   1   3
BRANCH   1  17
ATOM     17  C   UNL     1      34.359 -21.931 -19.553  0.00  0.00    +0.184 C 
BRANCH  17  18
ATOM     18  C   UNL     1      34.142 -20.779 -20.542  0.00  0.00    -0.017 C 
BRANCH  18  19
ATOM     19  N   UNL     1      32.954 -20.031 -20.124  0.00  0.00    +0.384 N 
ATOM     20  H   UNL     1      32.224 -20.684 -19.838  0.00  0.00    -0.089 HD
ATOM     21  H   UNL     1      32.617 -19.464 -20.902  0.00  0.00    -0.089 HD
ATOM     22  H   UNL     1      33.193 -19.425 -19.339  0.00  0.00    -0.089 HD
ENDBRANCH  18  19
BRANCH  18  23
ATOM     23  C   UNL     1      35.348 -19.811 -20.621  0.00  0.00    +0.010 C 
BRANCH  23  25
ATOM     24  N   UNL     1      34.874 -16.264 -21.703  0.00  0.00    -0.244 NA
ATOM     25  C   UNL     1      35.108 -18.590 -21.411  0.00  0.00    -0.004 C 
ATOM     26  C   UNL     1      34.852 -18.344 -22.701  0.00  0.00    +0.011 C 
ATOM     27  C   UNL     1      34.706 -16.916 -22.894  0.00  0.00    +0.080 C 
ATOM     28  C   UNL     1      35.104 -17.225 -20.859  0.00  0.00    +0.094 C 
ATOM     29  C   UNL     1      34.724 -19.275 -23.793  0.00  0.00    -0.020 C 
ATOM     30  C   UNL     1      34.444 -16.410 -24.106  0.00  0.00    +0.015 C 
ATOM     31  C   UNL     1      34.291 -17.312 -25.315  0.00  0.00    -0.020 C 
ATOM     32  C   UNL     1      34.461 -18.791 -25.020  0.00  0.00    +0.052 C 
ENDBRANCH  23  25
ENDBRANCH  18  23
ENDBRANCH  17  18
ENDBRANCH   1  17
TORSDOF 7
ENDMDL
MODEL 3
REMARK VINA RESULT:     -11.7      4.844      8.605
REMARK  Name = 46937052
REMARK  7 active torsions:
REMARK  status: ('A' for Active; 'I' for Inactive)
REMARK    1  A    between atoms: O_1  and  C_3
REMARK    2  A    between atoms: O_1  and  C_17
REMARK    3  A    between atoms: C_4  and  C_11
REMARK    4  A    between atoms: C_17  and  C_18
REMARK    5  A    between atoms: C_18  and  N_19
REMARK    6  A    between atoms: C_18  and  C_23
REMARK    7  A    between atoms: C_23  and  C_25
REMARK                            x       y       z     vdW  Elec       q    Type
REMARK                         _______ _______ _______ _____ _____    ______ ____
ROOT
ATOM      1  O   UNL     1      34.111 -14.321 -21.425  0.00  0.00    -0.476 OA
ENDROOT
BRANCH   1   3
ATOM      2  N   UNL     1      34.966 -16.822 -23.955  0.00  0.00    -0.239 NA
ATOM      3  C   UNL     1      34.460 -15.526 -21.978  0.00  0.00    +0.158 C 
ATOM      4  C   UNL     1      35.017 -17.857 -21.770  0.00  0.00    +0.039 C 
ATOM      5  C   UNL     1      34.662 -16.648 -21.182  0.00  0.00    +0.042 C 
ATOM      6  C   UNL     1      34.624 -15.664 -23.346  0.00  0.00    +0.136 C 
ATOM      7  C   UNL     1      35.155 -17.890 -23.149  0.00  0.00    +0.101 C 
BRANCH   4  11
ATOM      8  N   UNL     1      36.443 -19.356 -20.584  0.00  0.00    -0.264 NA
ATOM      9  N   UNL     1      35.503 -22.428 -18.735  0.00  0.00    -0.150 NA
ATOM     10  N   UNL     1      34.106 -22.859 -18.684  0.00  0.00    -0.147 NA
ATOM     11  C   UNL     1      35.239 -19.076 -20.947  0.00  0.00    +0.078 C 
ATOM     12  C   UNL     1      34.234 -20.952 -19.898  0.00  0.00    +0.040 C 
ATOM     13  C   UNL     1      35.549 -21.330 -19.441  0.00  0.00    +0.107 C 
ATOM     14  C   UNL     1      36.756 -20.533 -19.771  0.00  0.00    +0.173 C 
ATOM     15  C   UNL     1      34.021 -19.875 -20.635  0.00  0.00    +0.022 C 
ATOM     16  C   UNL     1      33.399 -22.000 -19.360  0.00  0.00    +0.123 C 
ENDBRANCH   4  11
ENDBRANCH   1   3
BRANCH   1  17
ATOM     17  C   UNL     1      32.721 -14.052 -21.301  0.00  0.00    +0.184 C 
BRANCH  17  18
ATOM     18  C   UNL     1      32.343 -12.800 -22.101  0.00  0.00    -0.017 C 
BRANCH  18  19
ATOM     19  N   UNL     1      31.943 -13.218 -23.447  0.00  0.00    +0.384 N 
ATOM     20  H   UNL     1      32.772 -13.461 -23.988  0.00  0.00    -0.089 HD
ATOM     21  H   UNL     1      31.447 -12.454 -23.908  0.00  0.00    -0.089 HD
ATOM     22  H   UNL     1      31.330 -14.031 -23.382  0.00  0.00    -0.089 HD
ENDBRANCH  18  19
BRANCH  18  23
ATOM     23  C   UNL     1      31.189 -11.992 -21.457  0.00  0.00    +0.010 C 
BRANCH  23  25
ATOM     24  N   UNL     1      32.254  -9.351 -19.036  0.00  0.00    -0.244 NA
ATOM     25  C   UNL     1      31.598 -10.719 -20.838  0.00  0.00    -0.004 C 
ATOM     26  C   UNL     1      31.798  -9.477 -21.294  0.00  0.00    +0.011 C 
ATOM     27  C   UNL     1      32.202  -8.624 -20.195  0.00  0.00    +0.080 C 
ATOM     28  C   UNL     1      31.908 -10.546 -19.410  0.00  0.00    +0.094 C 
ATOM     29  C   UNL     1      31.661  -8.971 -22.636  0.00  0.00    -0.020 C 
ATOM     30  C   UNL     1      32.463  -7.326 -20.392  0.00  0.00    +0.015 C 
ATOM     31  C   UNL     1      32.346  -6.704 -21.769  0.00  0.00    -0.020 C 
ATOM     32  C   UNL     1      31.919  -7.670 -22.860  0.00  0.00    +0.052 C 
ENDBRANCH  23  25
ENDBRANCH  18  23
ENDBRANCH  17  18
ENDBRANCH   1  17
TORSDOF 7
ENDMDL
MODEL 4
REMARK VINA RESULT:     -11.6      2.031      9.790
REMARK  Name = 46937052
REMARK  7 active torsions:
REMARK  status: ('A' for Active; 'I' for Inactive)
REMARK    1  A    between atoms: O_1  and  C_3
REMARK    2  A    between atoms: O_1  and  C_17
REMARK    3  A    between atoms: C_4  and  C_11
REMARK    4  A    between atoms: C_17  and  C_18
REMARK    5  A    between atoms: C_18  and  N_19
REMARK    6  A    between atoms: C_18  and  C_23
REMARK    7  A    between atoms: C_23  and  C_25
REMARK                            x       y       z     vdW  Elec       q    Type
REMARK                         _______ _______ _______ _____ _____    ______ ____
ROOT
ATOM      1  O   UNL     1      36.506 -22.308 -18.495  0.00  0.00    -0.476 OA
ENDROOT
BRANCH   1   3
ATOM      2  N   UNL     1      33.049 -21.727 -19.542  0.00  0.00    -0.239 NA
ATOM      3  C   UNL     1      35.431 -21.742 -19.130  0.00  0.00    +0.158 C 
ATOM      4  C   UNL     1      34.484 -20.097 -20.607  0.00  0.00    +0.039 C 
ATOM      5  C   UNL     1      35.592 -20.652 -19.977  0.00  0.00    +0.042 C 
ATOM      6  C   UNL     1      34.151 -22.238 -18.947  0.00  0.00    +0.136 C 
ATOM      7  C   UNL     1      33.245 -20.667 -20.358  0.00  0.00    +0.101 C 
BRANCH   4  11
ATOM      8  N   UNL     1      34.816 -17.768 -21.000  0.00  0.00    -0.264 NA
ATOM      9  N   UNL     1      34.955 -15.993 -24.251  0.00  0.00    -0.150 NA
ATOM     10  N   UNL     1      34.781 -16.731 -25.502  0.00  0.00    -0.147 NA
ATOM     11  C   UNL     1      34.622 -18.930 -21.520  0.00  0.00    +0.078 C 
ATOM     12  C   UNL     1      34.633 -18.186 -23.773  0.00  0.00    +0.040 C 
ATOM     13  C   UNL     1      34.864 -16.853 -23.272  0.00  0.00    +0.107 C 
ATOM     14  C   UNL     1      34.966 -16.564 -21.820  0.00  0.00    +0.173 C 
ATOM     15  C   UNL     1      34.502 -19.232 -22.974  0.00  0.00    +0.022 C 
ATOM     16  C   UNL     1      34.595 -17.984 -25.203  0.00  0.00    +0.123 C 
ENDBRANCH   4  11
ENDBRANCH   1   3
BRANCH   1  17
ATOM     17  C   UNL     1      36.798 -21.838 -17.186  0.00  0.00    +0.184 C 
BRANCH  17  18
ATOM     18  C   UNL     1      36.500 -22.926 -16.147  0.00  0.00    -0.017 C 
BRANCH  18  19
ATOM     19  N   UNL     1      37.764 -23.570 -15.780  0.00  0.00    +0.384 N 
ATOM     20  H   UNL     1      38.311 -22.937 -15.196  0.00  0.00    -0.089 HD
ATOM     21  H   UNL     1      38.290 -23.793 -16.625  0.00  0.00    -0.089 HD
ATOM     22  H   UNL     1      37.571 -24.428 -15.262  0.00  0.00    -0.089 HD
ENDBRANCH  18  19
BRANCH  18  23
ATOM     23  C   UNL     1      35.823 -22.375 -14.867  0.00  0.00    +0.010 C 
BRANCH  23  25
ATOM     24  N   UNL     1      33.835 -24.712 -12.732  0.00  0.00    -0.244 NA
ATOM     25  C   UNL     1      34.759 -23.233 -14.315  0.00  0.00    -0.004 C 
ATOM     26  C   UNL     1      33.517 -23.549 -14.698  0.00  0.00    +0.011 C 
ATOM     27  C   UNL     1      32.936 -24.459 -13.732  0.00  0.00    +0.080 C 
ATOM     28  C   UNL     1      34.874 -24.010 -13.070  0.00  0.00    +0.094 C 
ATOM     29  C   UNL     1      32.787 -23.109 -15.860  0.00  0.00    -0.020 C 
ATOM     30  C   UNL     1      31.692 -24.926 -13.890  0.00  0.00    +0.015 C 
ATOM     31  C   UNL     1      30.848 -24.520 -15.082  0.00  0.00    -0.020 C 
ATOM     32  C   UNL     1      31.534 -23.564 -16.041  0.00  0.00    +0.052 C 
ENDBRANCH  23  25
ENDBRANCH  18  23
ENDBRANCH  17  18
ENDBRANCH   1  17
TORSDOF 7
ENDMDL
MODEL 5
REMARK VINA RESULT:     -11.4      1.768      9.847
REMARK  Name = 46937052
REMARK  7 active torsions:
REMARK  status: ('A' for Active; 'I' for Inactive)
REMARK    1  A    between atoms: O_1  and  C_3
REMARK    2  A    between atoms: O_1  and  C_17
REMARK    3  A    between atoms: C_4  and  C_11
REMARK    4  A    between atoms: C_17  and  C_18
REMARK    5  A    between atoms: C_18  and  N_19
REMARK    6  A    between atoms: C_18  and  C_23
REMARK    7  A    between atoms: C_23  and  C_25
REMARK                            x       y       z     vdW  Elec       q    Type
REMARK                         _______ _______ _______ _____ _____    ______ ____
ROOT
ATOM      1  O   UNL     1      33.099 -22.361 -18.877  0.00  0.00    -0.476 OA
ENDROOT
BRANCH   1   3
ATOM      2  N   UNL     1      36.574 -21.343 -19.397  0.00  0.00    -0.239 NA
ATOM      3  C   UNL     1      34.177 -21.656 -19.344  0.00  0.00    +0.158 C 
ATOM      4  C   UNL     1      35.124 -19.882 -20.665  0.00  0.00    +0.039 C 
ATOM      5  C   UNL     1      34.011 -20.578 -20.206  0.00  0.00    +0.042 C 
ATOM      6  C   UNL     1      35.468 -21.996 -18.973  0.00  0.00    +0.136 C 
ATOM      7  C   UNL     1      36.372 -20.301 -20.234  0.00  0.00    +0.101 C 
BRANCH   4  11
ATOM      8  N   UNL     1      34.969 -17.539 -21.081  0.00  0.00    -0.264 NA
ATOM      9  N   UNL     1      34.575 -15.815 -24.339  0.00  0.00    -0.150 NA
ATOM     10  N   UNL     1      34.482 -16.589 -25.576  0.00  0.00    -0.147 NA
ATOM     11  C   UNL     1      34.979 -18.724 -21.587  0.00  0.00    +0.078 C 
ATOM     12  C   UNL     1      34.719 -18.022 -23.839  0.00  0.00    +0.040 C 
ATOM     13  C   UNL     1      34.710 -16.663 -23.355  0.00  0.00    +0.107 C 
ATOM     14  C   UNL     1      34.834 -16.340 -21.912  0.00  0.00    +0.173 C 
ATOM     15  C   UNL     1      34.841 -19.062 -23.031  0.00  0.00    +0.022 C 
ATOM     16  C   UNL     1      34.563 -17.851 -25.264  0.00  0.00    +0.123 C 
ENDBRANCH   4  11
ENDBRANCH   1   3
BRANCH   1  17
ATOM     17  C   UNL     1      33.370 -23.423 -17.971  0.00  0.00    +0.184 C 
BRANCH  17  18
ATOM     18  C   UNL     1      32.984 -23.021 -16.543  0.00  0.00    -0.017 C 
BRANCH  18  19
ATOM     19  N   UNL     1      31.525 -23.095 -16.423  0.00  0.00    +0.384 N 
ATOM     20  H   UNL     1      31.115 -23.223 -17.348  0.00  0.00    -0.089 HD
ATOM     21  H   UNL     1      31.173 -22.230 -16.012  0.00  0.00    -0.089 HD
ATOM     22  H   UNL     1      31.273 -23.883 -15.827  0.00  0.00    -0.089 HD
ENDBRANCH  18  19
BRANCH  18  23
ATOM     23  C   UNL     1      33.627 -23.925 -15.462  0.00  0.00    +0.010 C 
BRANCH  23  25
ATOM     24  N   UNL     1      37.109 -22.577 -15.289  0.00  0.00    -0.244 NA
ATOM     25  C   UNL     1      35.089 -23.786 -15.333  0.00  0.00    -0.004 C 
ATOM     26  C   UNL     1      36.095 -24.642 -15.119  0.00  0.00    +0.011 C 
ATOM     27  C   UNL     1      37.345 -23.910 -15.089  0.00  0.00    +0.080 C 
ATOM     28  C   UNL     1      35.819 -22.512 -15.427  0.00  0.00    +0.094 C 
ATOM     29  C   UNL     1      36.047 -26.070 -14.935  0.00  0.00    -0.020 C 
ATOM     30  C   UNL     1      38.507 -24.543 -14.888  0.00  0.00    +0.015 C 
ATOM     31  C   UNL     1      38.556 -26.045 -14.686  0.00  0.00    -0.020 C 
ATOM     32  C   UNL     1      37.202 -26.729 -14.731  0.00  0.00    +0.052 C 
ENDBRANCH  23  25
ENDBRANCH  18  23
ENDBRANCH  17  18
ENDBRANCH   1  17
TORSDOF 7
ENDMDL
MODEL 6
REMARK VINA RESULT:     -11.4      4.251      8.006
REMARK  Name = 46937052
REMARK  7 active torsions:
REMARK  status: ('A' for Active; 'I' for Inactive)
REMARK    1  A    between atoms: O_1  and  C_3
REMARK    2  A    between atoms: O_1  and  C_17
REMARK    3  A    between atoms: C_4  and  C_11
REMARK    4  A    between atoms: C_17  and  C_18
REMARK    5  A    between atoms: C_18  and  N_19
REMARK    6  A    between atoms: C_18  and  C_23
REMARK    7  A    between atoms: C_23  and  C_25
REMARK                            x       y       z     vdW  Elec       q    Type
REMARK                         _______ _______ _______ _____ _____    ______ ____
ROOT
ATOM      1  O   UNL     1      34.920 -15.300 -22.717  0.00  0.00    -0.476 OA
ENDROOT
BRANCH   1   3
ATOM      2  N   UNL     1      34.700 -18.537 -24.409  0.00  0.00    -0.239 NA
ATOM      3  C   UNL     1      34.909 -16.658 -22.902  0.00  0.00    +0.158 C 
ATOM      4  C   UNL     1      35.072 -18.901 -22.048  0.00  0.00    +0.039 C 
ATOM      5  C   UNL     1      35.086 -17.528 -21.832  0.00  0.00    +0.042 C 
ATOM      6  C   UNL     1      34.722 -17.208 -24.159  0.00  0.00    +0.136 C 
ATOM      7  C   UNL     1      34.876 -19.351 -23.345  0.00  0.00    +0.101 C 
BRANCH   4  11
ATOM      8  N   UNL     1      36.437 -19.991 -20.424  0.00  0.00    -0.264 NA
ATOM      9  N   UNL     1      35.425 -22.517 -17.907  0.00  0.00    -0.150 NA
ATOM     10  N   UNL     1      34.037 -22.971 -17.836  0.00  0.00    -0.147 NA
ATOM     11  C   UNL     1      35.258 -19.859 -20.925  0.00  0.00    +0.078 C 
ATOM     12  C   UNL     1      34.215 -21.438 -19.492  0.00  0.00    +0.040 C 
ATOM     13  C   UNL     1      35.501 -21.636 -18.869  0.00  0.00    +0.107 C 
ATOM     14  C   UNL     1      36.713 -20.908 -19.316  0.00  0.00    +0.173 C 
ATOM     15  C   UNL     1      34.035 -20.595 -20.495  0.00  0.00    +0.022 C 
ATOM     16  C   UNL     1      33.363 -22.342 -18.755  0.00  0.00    +0.123 C 
ENDBRANCH   4  11
ENDBRANCH   1   3
BRANCH   1  17
ATOM     17  C   UNL     1      33.661 -14.642 -22.731  0.00  0.00    +0.184 C 
BRANCH  17  18
ATOM     18  C   UNL     1      33.627 -13.571 -23.830  0.00  0.00    -0.017 C 
BRANCH  18  19
ATOM     19  N   UNL     1      33.061 -14.173 -25.040  0.00  0.00    +0.384 N 
ATOM     20  H   UNL     1      32.475 -13.488 -25.517  0.00  0.00    -0.089 HD
ATOM     21  H   UNL     1      32.497 -14.984 -24.785  0.00  0.00    -0.089 HD
ATOM     22  H   UNL     1      33.816 -14.464 -25.660  0.00  0.00    -0.089 HD
ENDBRANCH  18  19
BRANCH  18  23
ATOM     23  C   UNL     1      32.789 -12.328 -23.442  0.00  0.00    +0.010 C 
BRANCH  23  25
ATOM     24  N   UNL     1      35.064  -9.637 -24.688  0.00  0.00    -0.244 NA
ATOM     25  C   UNL     1      33.450 -11.036 -23.695  0.00  0.00    -0.004 C 
ATOM     26  C   UNL     1      33.251  -9.782 -23.269  0.00  0.00    +0.011 C 
ATOM     27  C   UNL     1      34.238  -8.911 -23.873  0.00  0.00    +0.080 C 
ATOM     28  C   UNL     1      34.609 -10.849 -24.582  0.00  0.00    +0.094 C 
ATOM     29  C   UNL     1      32.250  -9.282 -22.362  0.00  0.00    -0.020 C 
ATOM     30  C   UNL     1      34.253  -7.600 -23.605  0.00  0.00    +0.015 C 
ATOM     31  C   UNL     1      33.239  -6.982 -22.662  0.00  0.00    -0.020 C 
ATOM     32  C   UNL     1      32.243  -7.967 -22.077  0.00  0.00    +0.052 C 
ENDBRANCH  23  25
ENDBRANCH  18  23
ENDBRANCH  17  18
ENDBRANCH   1  17
TORSDOF 7
ENDMDL
MODEL 7
REMARK VINA RESULT:     -11.4      3.982      7.198
REMARK  Name = 46937052
REMARK  7 active torsions:
REMARK  status: ('A' for Active; 'I' for Inactive)
REMARK    1  A    between atoms: O_1  and  C_3
REMARK    2  A    between atoms: O_1  and  C_17
REMARK    3  A    between atoms: C_4  and  C_11
REMARK    4  A    between atoms: C_17  and  C_18
REMARK    5  A    between atoms: C_18  and  N_19
REMARK    6  A    between atoms: C_18  and  C_23
REMARK    7  A    between atoms: C_23  and  C_25
REMARK                            x       y       z     vdW  Elec       q    Type
REMARK                         _______ _______ _______ _____ _____    ______ ____
ROOT
ATOM      1  O   UNL     1      35.124 -15.322 -22.801  0.00  0.00    -0.476 OA
ENDROOT
BRANCH   1   3
ATOM      2  N   UNL     1      34.699 -18.574 -24.423  0.00  0.00    -0.239 NA
ATOM      3  C   UNL     1      35.044 -16.681 -22.959  0.00  0.00    +0.158 C 
ATOM      4  C   UNL     1      35.129 -18.914 -22.068  0.00  0.00    +0.039 C 
ATOM      5  C   UNL     1      35.215 -17.540 -21.878  0.00  0.00    +0.042 C 
ATOM      6  C   UNL     1      34.790 -17.244 -24.199  0.00  0.00    +0.136 C 
ATOM      7  C   UNL     1      34.871 -19.377 -23.349  0.00  0.00    +0.101 C 
BRANCH   4  11
ATOM      8  N   UNL     1      36.480 -19.977 -20.414  0.00  0.00    -0.264 NA
ATOM      9  N   UNL     1      35.452 -22.487 -17.887  0.00  0.00    -0.150 NA
ATOM     10  N   UNL     1      34.066 -22.952 -17.832  0.00  0.00    -0.147 NA
ATOM     11  C   UNL     1      35.306 -19.859 -20.933  0.00  0.00    +0.078 C 
ATOM     12  C   UNL     1      34.256 -21.433 -19.500  0.00  0.00    +0.040 C 
ATOM     13  C   UNL     1      35.534 -21.615 -18.856  0.00  0.00    +0.107 C 
ATOM     14  C   UNL     1      36.747 -20.881 -19.293  0.00  0.00    +0.173 C 
ATOM     15  C   UNL     1      34.084 -20.601 -20.514  0.00  0.00    +0.022 C 
ATOM     16  C   UNL     1      33.401 -22.337 -18.767  0.00  0.00    +0.123 C 
ENDBRANCH   4  11
ENDBRANCH   1   3
BRANCH   1  17
ATOM     17  C   UNL     1      34.514 -14.775 -21.640  0.00  0.00    +0.184 C 
BRANCH  17  18
ATOM     18  C   UNL     1      32.986 -14.854 -21.749  0.00  0.00    -0.017 C 
BRANCH  18  19
ATOM     19  N   UNL     1      32.460 -15.351 -20.475  0.00  0.00    +0.384 N 
ATOM     20  H   UNL     1      33.211 -15.381 -19.786  0.00  0.00    -0.089 HD
ATOM     21  H   UNL     1      32.082 -16.290 -20.607  0.00  0.00    -0.089 HD
ATOM     22  H   UNL     1      31.721 -14.729 -20.147  0.00  0.00    -0.089 HD
ENDBRANCH  18  19
BRANCH  18  23
ATOM     23  C   UNL     1      32.328 -13.489 -22.070  0.00  0.00    +0.010 C 
BRANCH  23  25
ATOM     24  N   UNL     1      33.840 -10.992 -24.405  0.00  0.00    -0.244 NA
ATOM     25  C   UNL     1      32.872 -12.807 -23.259  0.00  0.00    -0.004 C 
ATOM     26  C   UNL     1      33.045 -13.153 -24.540  0.00  0.00    +0.011 C 
ATOM     27  C   UNL     1      33.640 -12.044 -25.257  0.00  0.00    +0.080 C 
ATOM     28  C   UNL     1      33.400 -11.433 -23.266  0.00  0.00    +0.094 C 
ATOM     29  C   UNL     1      32.725 -14.396 -25.194  0.00  0.00    -0.020 C 
ATOM     30  C   UNL     1      33.915 -12.139 -26.563  0.00  0.00    +0.015 C 
ATOM     31  C   UNL     1      33.613 -13.407 -27.337  0.00  0.00    -0.020 C 
ATOM     32  C   UNL     1      32.992 -14.516 -26.507  0.00  0.00    +0.052 C 
ENDBRANCH  23  25
ENDBRANCH  18  23
ENDBRANCH  17  18
ENDBRANCH   1  17
TORSDOF 7
ENDMDL
MODEL 8
REMARK VINA RESULT:     -11.3      5.164      9.429
REMARK  Name = 46937052
REMARK  7 active torsions:
REMARK  status: ('A' for Active; 'I' for Inactive)
REMARK    1  A    between atoms: O_1  and  C_3
REMARK    2  A    between atoms: O_1  and  C_17
REMARK    3  A    between atoms: C_4  and  C_11
REMARK    4  A    between atoms: C_17  and  C_18
REMARK    5  A    between atoms: C_18  and  N_19
REMARK    6  A    between atoms: C_18  and  C_23
REMARK    7  A    between atoms: C_23  and  C_25
REMARK                            x       y       z     vdW  Elec       q    Type
REMARK                         _______ _______ _______ _____ _____    ______ ____
ROOT
ATOM      1  O   UNL     1      33.991 -13.592 -23.449  0.00  0.00    -0.476 OA
ENDROOT
BRANCH   1   3
ATOM      2  N   UNL     1      34.110 -16.640 -25.469  0.00  0.00    -0.239 NA
ATOM      3  C   UNL     1      34.160 -14.911 -23.780  0.00  0.00    +0.158 C 
ATOM      4  C   UNL     1      34.704 -17.178 -23.188  0.00  0.00    +0.039 C 
ATOM      5  C   UNL     1      34.538 -15.847 -22.823  0.00  0.00    +0.042 C 
ATOM      6  C   UNL     1      33.960 -15.355 -25.077  0.00  0.00    +0.136 C 
ATOM      7  C   UNL     1      34.479 -17.520 -24.512  0.00  0.00    +0.101 C 
BRANCH   4  11
ATOM      8  N   UNL     1      36.355 -18.300 -21.882  0.00  0.00    -0.264 NA
ATOM      9  N   UNL     1      35.867 -21.066 -19.462  0.00  0.00    -0.150 NA
ATOM     10  N   UNL     1      34.531 -21.609 -19.223  0.00  0.00    -0.147 NA
ATOM     11  C   UNL     1      35.107 -18.204 -22.188  0.00  0.00    +0.078 C 
ATOM     12  C   UNL     1      34.377 -19.947 -20.753  0.00  0.00    +0.040 C 
ATOM     13  C   UNL     1      35.751 -20.112 -20.347  0.00  0.00    +0.107 C 
ATOM     14  C   UNL     1      36.843 -19.279 -20.907  0.00  0.00    +0.173 C 
ATOM     15  C   UNL     1      34.003 -19.044 -21.645  0.00  0.00    +0.022 C 
ATOM     16  C   UNL     1      33.694 -20.955 -19.976  0.00  0.00    +0.123 C 
ENDBRANCH   4  11
ENDBRANCH   1   3
BRANCH   1  17
ATOM     17  C   UNL     1      33.583 -12.717 -24.493  0.00  0.00    +0.184 C 
BRANCH  17  18
ATOM     18  C   UNL     1      34.090 -11.294 -24.228  0.00  0.00    -0.017 C 
BRANCH  18  19
ATOM     19  N   UNL     1      35.037 -10.939 -25.288  0.00  0.00    +0.384 N 
ATOM     20  H   UNL     1      34.597 -10.280 -25.931  0.00  0.00    -0.089 HD
ATOM     21  H   UNL     1      35.309 -11.780 -25.797  0.00  0.00    -0.089 HD
ATOM     22  H   UNL     1      35.865 -10.509 -24.874  0.00  0.00    -0.089 HD
ENDBRANCH  18  19
BRANCH  18  23
ATOM     23  C   UNL     1      32.954 -10.241 -24.191  0.00  0.00    +0.010 C 
BRANCH  23  25
ATOM     24  N   UNL     1      32.805  -7.871 -21.305  0.00  0.00    -0.244 NA
ATOM     25  C   UNL     1      32.724  -9.629 -22.871  0.00  0.00    -0.004 C 
ATOM     26  C   UNL     1      32.193 -10.056 -21.719  0.00  0.00    +0.011 C 
ATOM     27  C   UNL     1      32.237  -8.984 -20.747  0.00  0.00    +0.080 C 
ATOM     28  C   UNL     1      33.081  -8.245 -22.518  0.00  0.00    +0.094 C 
ATOM     29  C   UNL     1      31.642 -11.349 -21.400  0.00  0.00    -0.020 C 
ATOM     30  C   UNL     1      31.762  -9.160 -19.508  0.00  0.00    +0.015 C 
ATOM     31  C   UNL     1      31.164 -10.486 -19.079  0.00  0.00    -0.020 C 
ATOM     32  C   UNL     1      31.158 -11.551 -20.161  0.00  0.00    +0.052 C 
ENDBRANCH  23  25
ENDBRANCH  18  23
ENDBRANCH  17  18
ENDBRANCH   1  17
TORSDOF 7
ENDMDL
MODEL 9
REMARK VINA RESULT:     -11.2      4.732      8.602
REMARK  Name = 46937052
REMARK  7 active torsions:
REMARK  status: ('A' for Active; 'I' for Inactive)
REMARK    1  A    between atoms: O_1  and  C_3
REMARK    2  A    between atoms: O_1  and  C_17
REMARK    3  A    between atoms: C_4  and  C_11
REMARK    4  A    between atoms: C_17  and  C_18
REMARK    5  A    between atoms: C_18  and  N_19
REMARK    6  A    between atoms: C_18  and  C_23
REMARK    7  A    between atoms: C_23  and  C_25
REMARK                            x       y       z     vdW  Elec       q    Type
REMARK                         _______ _______ _______ _____ _____    ______ ____
ROOT
ATOM      1  O   UNL     1      32.359 -14.394 -21.298  0.00  0.00    -0.476 OA
ENDROOT
BRANCH   1   3
ATOM      2  N   UNL     1      35.037 -15.627 -23.464  0.00  0.00    -0.239 NA
ATOM      3  C   UNL     1      33.340 -15.214 -21.793  0.00  0.00    +0.158 C 
ATOM      4  C   UNL     1      34.645 -17.232 -21.699  0.00  0.00    +0.039 C 
ATOM      5  C   UNL     1      33.644 -16.421 -21.175  0.00  0.00    +0.042 C 
ATOM      6  C   UNL     1      34.059 -14.865 -22.925  0.00  0.00    +0.136 C 
ATOM      7  C   UNL     1      35.305 -16.793 -22.836  0.00  0.00    +0.101 C 
BRANCH   4  11
ATOM      8  N   UNL     1      36.238 -18.788 -20.845  0.00  0.00    -0.264 NA
ATOM      9  N   UNL     1      35.605 -22.113 -19.332  0.00  0.00    -0.150 NA
ATOM     10  N   UNL     1      34.238 -22.621 -19.214  0.00  0.00    -0.147 NA
ATOM     11  C   UNL     1      34.994 -18.530 -21.063  0.00  0.00    +0.078 C 
ATOM     12  C   UNL     1      34.171 -20.574 -20.179  0.00  0.00    +0.040 C 
ATOM     13  C   UNL     1      35.538 -20.934 -19.891  0.00  0.00    +0.107 C 
ATOM     14  C   UNL     1      36.674 -20.039 -20.221  0.00  0.00    +0.173 C 
ATOM     15  C   UNL     1      33.845 -19.426 -20.750  0.00  0.00    +0.022 C 
ATOM     16  C   UNL     1      33.435 -21.723 -19.709  0.00  0.00    +0.123 C 
ENDBRANCH   4  11
ENDBRANCH   1   3
BRANCH   1  17
ATOM     17  C   UNL     1      32.676 -13.013 -21.182  0.00  0.00    +0.184 C 
BRANCH  17  18
ATOM     18  C   UNL     1      31.417 -12.201 -20.852  0.00  0.00    -0.017 C 
BRANCH  18  19
ATOM     19  N   UNL     1      31.686 -11.405 -19.651  0.00  0.00    +0.384 N 
ATOM     20  H   UNL     1      30.830 -11.319 -19.103  0.00  0.00    -0.089 HD
ATOM     21  H   UNL     1      32.011 -10.478 -19.923  0.00  0.00    -0.089 HD
ATOM     22  H   UNL     1      32.402 -11.867 -19.091  0.00  0.00    -0.089 HD
ENDBRANCH  18  19
BRANCH  18  23
ATOM     23  C   UNL     1      30.987 -11.254 -22.000  0.00  0.00    +0.010 C 
BRANCH  23  25
ATOM     24  N   UNL     1      33.143  -8.220 -22.342  0.00  0.00    -0.244 NA
ATOM     25  C   UNL     1      32.017 -10.287 -22.420  0.00  0.00    -0.004 C 
ATOM     26  C   UNL     1      33.004 -10.302 -23.324  0.00  0.00    +0.011 C 
ATOM     27  C   UNL     1      33.705  -9.036 -23.286  0.00  0.00    +0.080 C 
ATOM     28  C   UNL     1      32.180  -8.940 -21.851  0.00  0.00    +0.094 C 
ATOM     29  C   UNL     1      33.386 -11.355 -24.230  0.00  0.00    -0.020 C 
ATOM     30  C   UNL     1      34.741  -8.799 -24.100  0.00  0.00    +0.015 C 
ATOM     31  C   UNL     1      35.216  -9.847 -25.088  0.00  0.00    -0.020 C 
ATOM     32  C   UNL     1      34.425 -11.142 -25.058  0.00  0.00    +0.052 C 
ENDBRANCH  23  25
ENDBRANCH  18  23
ENDBRANCH  17  18
ENDBRANCH   1  17
TORSDOF 7
ENDMDL
