MODEL 1
REMARK VINA RESULT:      -9.4      0.000      0.000
REMARK  Name = 444503
REMARK  9 active torsions:
REMARK  status: ('A' for Active; 'I' for Inactive)
REMARK    1  A    between atoms: C_3  and  C_16
REMARK    2  A    between atoms: C_5  and  N_9
REMARK    3  A    between atoms: C_16  and  O_17
REMARK    4  A    between atoms: O_17  and  P_18
REMARK    5  A    between atoms: P_18  and  O_20
REMARK    6  A    between atoms: P_18  and  O_22
REMARK    7  A    between atoms: O_22  and  P_23
REMARK    8  A    between atoms: P_23  and  O_25
REMARK    9  A    between atoms: P_23  and  O_27
REMARK                            x       y       z     vdW  Elec       q    Type
REMARK                         _______ _______ _______ _____ _____    ______ ____
ROOT
ATOM      1  F   UNL     1      37.391 -22.820 -16.766  0.00  0.00    -0.234 F 
ATOM      2  O   UNL     1      35.070 -24.529 -16.056  0.00  0.00    -0.334 OA
ATOM      3  C   UNL     1      36.323 -24.354 -15.366  0.00  0.00    +0.180 C 
ATOM      4  C   UNL     1      36.725 -22.906 -15.579  0.00  0.00    +0.195 C 
ATOM      5  C   UNL     1      34.582 -23.243 -16.469  0.00  0.00    +0.202 C 
ATOM      6  C   UNL     1      35.403 -22.201 -15.731  0.00  0.00    +0.089 C 
ENDROOT
BRANCH   5   9
ATOM      7  O   UNL     1      32.611 -22.562 -18.372  0.00  0.00    -0.252 OA
ATOM      8  O   UNL     1      29.225 -22.922 -15.264  0.00  0.00    -0.270 OA
ATOM      9  N   UNL     1      33.181 -23.152 -16.185  0.00  0.00    -0.219 N 
ATOM     10  N   UNL     1      30.926 -22.741 -16.823  0.00  0.00    -0.236 N 
ATOM     11  C   UNL     1      32.272 -22.801 -17.211  0.00  0.00    +0.315 C 
ATOM     12  C   UNL     1      32.713 -23.409 -14.900  0.00  0.00    +0.076 C 
ATOM     13  C   UNL     1      31.427 -23.348 -14.545  0.00  0.00    +0.074 C 
ATOM     14  C   UNL     1      30.415 -22.987 -15.557  0.00  0.00    +0.254 C 
ATOM     15  H   UNL     1      30.276 -22.497 -17.521  0.00  0.00    +0.159 HD
ENDBRANCH   5   9
BRANCH   3  16
ATOM     16  C   UNL     1      36.104 -24.702 -13.901  0.00  0.00    +0.186 C 
BRANCH  16  17
ATOM     17  O   UNL     1      36.912 -23.851 -13.106  0.00  0.00    -0.270 OA
BRANCH  17  18
ATOM     18  P   UNL     1      38.343 -24.372 -12.559  0.00  0.00    +0.484 P 
ATOM     19  O   UNL     1      38.994 -23.476 -11.546  0.00  0.00    -0.227 OA
BRANCH  18  20
ATOM     20  O   UNL     1      38.051 -25.874 -12.031  0.00  0.00    -0.302 OA
ATOM     21  H   UNL     1      37.938 -26.466 -12.790  0.00  0.00    +0.222 HD
ENDBRANCH  18  20
BRANCH  18  22
ATOM     22  O   UNL     1      39.225 -24.613 -13.892  0.00  0.00    -0.186 OA
BRANCH  22  23
ATOM     23  P   UNL     1      39.893 -25.957 -14.494  0.00  0.00    +0.481 P 
ATOM     24  O   UNL     1      41.062 -26.477 -13.711  0.00  0.00    -0.227 OA
BRANCH  23  25
ATOM     25  O   UNL     1      40.214 -25.552 -16.025  0.00  0.00    -0.302 OA
ATOM     26  H   UNL     1      41.161 -25.363 -16.118  0.00  0.00    +0.222 HD
ENDBRANCH  23  25
BRANCH  23  27
ATOM     27  O   UNL     1      38.642 -26.970 -14.623  0.00  0.00    -0.302 OA
ATOM     28  H   UNL     1      38.849 -27.659 -15.275  0.00  0.00    +0.222 HD
ENDBRANCH  23  27
ENDBRANCH  22  23
ENDBRANCH  18  22
ENDBRANCH  17  18
ENDBRANCH  16  17
ENDBRANCH   3  16
TORSDOF 9
ENDMDL
MODEL 2
REMARK VINA RESULT:      -8.8      2.356      3.546
REMARK  Name = 444503
REMARK  9 active torsions:
REMARK  status: ('A' for Active; 'I' for Inactive)
REMARK    1  A    between atoms: C_3  and  C_16
REMARK    2  A    between atoms: C_5  and  N_9
REMARK    3  A    between atoms: C_16  and  O_17
REMARK    4  A    between atoms: O_17  and  P_18
REMARK    5  A    between atoms: P_18  and  O_20
REMARK    6  A    between atoms: P_18  and  O_22
REMARK    7  A    between atoms: O_22  and  P_23
REMARK    8  A    between atoms: P_23  and  O_25
REMARK    9  A    between atoms: P_23  and  O_27
REMARK                            x       y       z     vdW  Elec       q    Type
REMARK                         _______ _______ _______ _____ _____    ______ ____
ROOT
ATOM      1  F   UNL     1      33.084 -25.046 -14.088  0.00  0.00    -0.234 F 
ATOM      2  O   UNL     1      34.445 -22.521 -14.853  0.00  0.00    -0.334 OA
ATOM      3  C   UNL     1      34.768 -23.453 -13.802  0.00  0.00    +0.180 C 
ATOM      4  C   UNL     1      34.409 -24.829 -14.332  0.00  0.00    +0.195 C 
ATOM      5  C   UNL     1      34.136 -23.254 -16.048  0.00  0.00    +0.202 C 
ATOM      6  C   UNL     1      34.592 -24.684 -15.820  0.00  0.00    +0.089 C 
ENDROOT
BRANCH   5   9
ATOM      7  O   UNL     1      32.893 -22.768 -18.537  0.00  0.00    -0.252 OA
ATOM      8  O   UNL     1      36.715 -20.868 -20.279  0.00  0.00    -0.270 OA
ATOM      9  N   UNL     1      34.782 -22.635 -17.166  0.00  0.00    -0.219 N 
ATOM     10  N   UNL     1      34.798 -21.823 -19.403  0.00  0.00    -0.236 N 
ATOM     11  C   UNL     1      34.070 -22.437 -18.374  0.00  0.00    +0.315 C 
ATOM     12  C   UNL     1      36.108 -22.227 -17.068  0.00  0.00    +0.076 C 
ATOM     13  C   UNL     1      36.789 -21.644 -18.057  0.00  0.00    +0.074 C 
ATOM     14  C   UNL     1      36.118 -21.402 -19.350  0.00  0.00    +0.254 C 
ATOM     15  H   UNL     1      34.322 -21.676 -20.253  0.00  0.00    +0.159 HD
ENDBRANCH   5   9
BRANCH   3  16
ATOM     16  C   UNL     1      36.249 -23.306 -13.484  0.00  0.00    +0.186 C 
BRANCH  16  17
ATOM     17  O   UNL     1      36.870 -24.573 -13.614  0.00  0.00    -0.270 OA
BRANCH  17  18
ATOM     18  P   UNL     1      37.839 -25.124 -12.440  0.00  0.00    +0.484 P 
ATOM     19  O   UNL     1      38.005 -24.194 -11.273  0.00  0.00    -0.227 OA
BRANCH  18  20
ATOM     20  O   UNL     1      37.226 -26.571 -12.057  0.00  0.00    -0.302 OA
ATOM     21  H   UNL     1      36.902 -27.007 -12.860  0.00  0.00    +0.222 HD
ENDBRANCH  18  20
BRANCH  18  22
ATOM     22  O   UNL     1      39.220 -25.494 -13.194  0.00  0.00    -0.186 OA
BRANCH  22  23
ATOM     23  P   UNL     1      39.563 -25.645 -14.766  0.00  0.00    +0.481 P 
ATOM     24  O   UNL     1      40.915 -26.223 -15.059  0.00  0.00    -0.227 OA
BRANCH  23  25
ATOM     25  O   UNL     1      39.311 -24.155 -15.339  0.00  0.00    -0.302 OA
ATOM     26  H   UNL     1      38.895 -23.610 -14.654  0.00  0.00    +0.222 HD
ENDBRANCH  23  25
BRANCH  23  27
ATOM     27  O   UNL     1      38.310 -26.488 -15.341  0.00  0.00    -0.302 OA
ATOM     28  H   UNL     1      38.448 -27.433 -15.165  0.00  0.00    +0.222 HD
ENDBRANCH  23  27
ENDBRANCH  22  23
ENDBRANCH  18  22
ENDBRANCH  17  18
ENDBRANCH  16  17
ENDBRANCH   3  16
TORSDOF 9
ENDMDL
MODEL 3
REMARK VINA RESULT:      -8.6      5.179      7.751
REMARK  Name = 444503
REMARK  9 active torsions:
REMARK  status: ('A' for Active; 'I' for Inactive)
REMARK    1  A    between atoms: C_3  and  C_16
REMARK    2  A    between atoms: C_5  and  N_9
REMARK    3  A    between atoms: C_16  and  O_17
REMARK    4  A    between atoms: O_17  and  P_18
REMARK    5  A    between atoms: P_18  and  O_20
REMARK    6  A    between atoms: P_18  and  O_22
REMARK    7  A    between atoms: O_22  and  P_23
REMARK    8  A    between atoms: P_23  and  O_25
REMARK    9  A    between atoms: P_23  and  O_27
REMARK                            x       y       z     vdW  Elec       q    Type
REMARK                         _______ _______ _______ _____ _____    ______ ____
ROOT
ATOM      1  F   UNL     1      35.323 -24.472 -16.130  0.00  0.00    -0.234 F 
ATOM      2  O   UNL     1      33.603 -23.514 -18.351  0.00  0.00    -0.334 OA
ATOM      3  C   UNL     1      33.246 -23.850 -16.996  0.00  0.00    +0.180 C 
ATOM      4  C   UNL     1      34.427 -23.444 -16.135  0.00  0.00    +0.195 C 
ATOM      5  C   UNL     1      34.807 -22.733 -18.336  0.00  0.00    +0.202 C 
ATOM      6  C   UNL     1      35.034 -22.297 -16.899  0.00  0.00    +0.089 C 
ENDROOT
BRANCH   5   9
ATOM      7  O   UNL     1      36.975 -21.318 -19.464  0.00  0.00    -0.252 OA
ATOM      8  O   UNL     1      34.162 -18.502 -21.790  0.00  0.00    -0.270 OA
ATOM      9  N   UNL     1      34.670 -21.628 -19.238  0.00  0.00    -0.219 N 
ATOM     10  N   UNL     1      35.572 -19.916 -20.622  0.00  0.00    -0.236 N 
ATOM     11  C   UNL     1      35.822 -20.983 -19.748  0.00  0.00    +0.315 C 
ATOM     12  C   UNL     1      33.405 -21.189 -19.613  0.00  0.00    +0.076 C 
ATOM     13  C   UNL     1      33.182 -20.169 -20.446  0.00  0.00    +0.074 C 
ATOM     14  C   UNL     1      34.332 -19.443 -21.021  0.00  0.00    +0.254 C 
ATOM     15  H   UNL     1      36.360 -19.452 -20.988  0.00  0.00    +0.159 HD
ENDBRANCH   5   9
BRANCH   3  16
ATOM     16  C   UNL     1      31.969 -23.098 -16.649  0.00  0.00    +0.186 C 
BRANCH  16  17
ATOM     17  O   UNL     1      30.968 -24.040 -16.302  0.00  0.00    -0.270 OA
BRANCH  17  18
ATOM     18  P   UNL     1      30.198 -23.919 -14.883  0.00  0.00    +0.484 P 
ATOM     19  O   UNL     1      30.516 -25.007 -13.900  0.00  0.00    -0.227 OA
BRANCH  18  20
ATOM     20  O   UNL     1      30.545 -22.426 -14.363  0.00  0.00    -0.302 OA
ATOM     21  H   UNL     1      29.800 -22.084 -13.846  0.00  0.00    +0.222 HD
ENDBRANCH  18  20
BRANCH  18  22
ATOM     22  O   UNL     1      28.633 -23.819 -15.278  0.00  0.00    -0.186 OA
BRANCH  22  23
ATOM     23  P   UNL     1      27.902 -23.154 -16.557  0.00  0.00    +0.481 P 
ATOM     24  O   UNL     1      27.623 -24.105 -17.683  0.00  0.00    -0.227 OA
BRANCH  23  25
ATOM     25  O   UNL     1      28.870 -21.913 -16.927  0.00  0.00    -0.302 OA
ATOM     26  H   UNL     1      29.722 -22.023 -16.477  0.00  0.00    +0.222 HD
ENDBRANCH  23  25
BRANCH  23  27
ATOM     27  O   UNL     1      26.602 -22.442 -15.915  0.00  0.00    -0.302 OA
ATOM     28  H   UNL     1      25.996 -23.120 -15.576  0.00  0.00    +0.222 HD
ENDBRANCH  23  27
ENDBRANCH  22  23
ENDBRANCH  18  22
ENDBRANCH  17  18
ENDBRANCH  16  17
ENDBRANCH   3  16
TORSDOF 9
ENDMDL
MODEL 4
REMARK VINA RESULT:      -8.5      3.836      8.074
REMARK  Name = 444503
REMARK  9 active torsions:
REMARK  status: ('A' for Active; 'I' for Inactive)
REMARK    1  A    between atoms: C_3  and  C_16
REMARK    2  A    between atoms: C_5  and  N_9
REMARK    3  A    between atoms: C_16  and  O_17
REMARK    4  A    between atoms: O_17  and  P_18
REMARK    5  A    between atoms: P_18  and  O_20
REMARK    6  A    between atoms: P_18  and  O_22
REMARK    7  A    between atoms: O_22  and  P_23
REMARK    8  A    between atoms: P_23  and  O_25
REMARK    9  A    between atoms: P_23  and  O_27
REMARK                            x       y       z     vdW  Elec       q    Type
REMARK                         _______ _______ _______ _____ _____    ______ ____
ROOT
ATOM      1  F   UNL     1      32.305 -22.092 -17.307  0.00  0.00    -0.234 F 
ATOM      2  O   UNL     1      33.718 -22.955 -14.843  0.00  0.00    -0.334 OA
ATOM      3  C   UNL     1      32.356 -23.194 -15.248  0.00  0.00    +0.180 C 
ATOM      4  C   UNL     1      32.384 -23.338 -16.758  0.00  0.00    +0.195 C 
ATOM      5  C   UNL     1      34.584 -23.172 -15.967  0.00  0.00    +0.202 C 
ATOM      6  C   UNL     1      33.762 -23.882 -17.028  0.00  0.00    +0.089 C 
ENDROOT
BRANCH   5   9
ATOM      7  O   UNL     1      37.238 -22.209 -16.009  0.00  0.00    -0.252 OA
ATOM      8  O   UNL     1      38.896 -26.171 -14.336  0.00  0.00    -0.270 OA
ATOM      9  N   UNL     1      35.726 -23.929 -15.548  0.00  0.00    -0.219 N 
ATOM     10  N   UNL     1      38.062 -24.183 -15.176  0.00  0.00    -0.236 N 
ATOM     11  C   UNL     1      37.018 -23.355 -15.609  0.00  0.00    +0.315 C 
ATOM     12  C   UNL     1      35.566 -25.230 -15.081  0.00  0.00    +0.076 C 
ATOM     13  C   UNL     1      36.571 -26.008 -14.671  0.00  0.00    +0.074 C 
ATOM     14  C   UNL     1      37.950 -25.483 -14.705  0.00  0.00    +0.254 C 
ATOM     15  H   UNL     1      38.970 -23.804 -15.211  0.00  0.00    +0.159 HD
ENDBRANCH   5   9
BRANCH   3  16
ATOM     16  C   UNL     1      31.869 -24.449 -14.538  0.00  0.00    +0.186 C 
BRANCH  16  17
ATOM     17  O   UNL     1      30.526 -24.249 -14.133  0.00  0.00    -0.270 OA
BRANCH  17  18
ATOM     18  P   UNL     1      29.312 -24.785 -15.062  0.00  0.00    +0.484 P 
ATOM     19  O   UNL     1      29.743 -25.468 -16.327  0.00  0.00    -0.227 OA
BRANCH  18  20
ATOM     20  O   UNL     1      28.426 -25.709 -14.073  0.00  0.00    -0.302 OA
ATOM     21  H   UNL     1      27.808 -26.242 -14.597  0.00  0.00    +0.222 HD
ENDBRANCH  18  20
BRANCH  18  22
ATOM     22  O   UNL     1      28.377 -23.487 -15.295  0.00  0.00    -0.186 OA
BRANCH  22  23
ATOM     23  P   UNL     1      27.855 -22.786 -16.654  0.00  0.00    +0.481 P 
ATOM     24  O   UNL     1      26.672 -21.881 -16.477  0.00  0.00    -0.227 OA
BRANCH  23  25
ATOM     25  O   UNL     1      27.621 -24.040 -17.646  0.00  0.00    -0.302 OA
ATOM     26  H   UNL     1      28.477 -24.358 -17.974  0.00  0.00    +0.222 HD
ENDBRANCH  23  25
BRANCH  23  27
ATOM     27  O   UNL     1      29.184 -22.080 -17.243  0.00  0.00    -0.302 OA
ATOM     28  H   UNL     1      29.111 -22.005 -18.208  0.00  0.00    +0.222 HD
ENDBRANCH  23  27
ENDBRANCH  22  23
ENDBRANCH  18  22
ENDBRANCH  17  18
ENDBRANCH  16  17
ENDBRANCH   3  16
TORSDOF 9
ENDMDL
MODEL 5
REMARK VINA RESULT:      -8.5      9.679     12.583
REMARK  Name = 444503
REMARK  9 active torsions:
REMARK  status: ('A' for Active; 'I' for Inactive)
REMARK    1  A    between atoms: C_3  and  C_16
REMARK    2  A    between atoms: C_5  and  N_9
REMARK    3  A    between atoms: C_16  and  O_17
REMARK    4  A    between atoms: O_17  and  P_18
REMARK    5  A    between atoms: P_18  and  O_20
REMARK    6  A    between atoms: P_18  and  O_22
REMARK    7  A    between atoms: O_22  and  P_23
REMARK    8  A    between atoms: P_23  and  O_25
REMARK    9  A    between atoms: P_23  and  O_27
REMARK                            x       y       z     vdW  Elec       q    Type
REMARK                         _______ _______ _______ _____ _____    ______ ____
ROOT
ATOM      1  F   UNL     1      36.071 -16.419 -23.964  0.00  0.00    -0.234 F 
ATOM      2  O   UNL     1      35.193 -16.995 -21.187  0.00  0.00    -0.334 OA
ATOM      3  C   UNL     1      34.749 -15.966 -22.093  0.00  0.00    +0.180 C 
ATOM      4  C   UNL     1      34.804 -16.573 -23.483  0.00  0.00    +0.195 C 
ATOM      5  C   UNL     1      35.291 -18.235 -21.903  0.00  0.00    +0.202 C 
ATOM      6  C   UNL     1      34.576 -18.039 -23.228  0.00  0.00    +0.089 C 
ENDROOT
BRANCH   5   9
ATOM      7  O   UNL     1      36.784 -19.987 -20.267  0.00  0.00    -0.252 OA
ATOM      8  O   UNL     1      32.998 -22.241 -18.912  0.00  0.00    -0.270 OA
ATOM      9  N   UNL     1      34.722 -19.286 -21.114  0.00  0.00    -0.219 N 
ATOM     10  N   UNL     1      34.897 -21.109 -19.594  0.00  0.00    -0.236 N 
ATOM     11  C   UNL     1      35.558 -20.113 -20.326  0.00  0.00    +0.315 C 
ATOM     12  C   UNL     1      33.347 -19.496 -21.119  0.00  0.00    +0.076 C 
ATOM     13  C   UNL     1      32.730 -20.450 -20.417  0.00  0.00    +0.074 C 
ATOM     14  C   UNL     1      33.533 -21.355 -19.570  0.00  0.00    +0.254 C 
ATOM     15  H   UNL     1      35.461 -21.697 -19.039  0.00  0.00    +0.159 HD
ENDBRANCH   5   9
BRANCH   3  16
ATOM     16  C   UNL     1      33.343 -15.552 -21.680  0.00  0.00    +0.186 C 
BRANCH  16  17
ATOM     17  O   UNL     1      33.272 -14.137 -21.665  0.00  0.00    -0.270 OA
BRANCH  17  18
ATOM     18  P   UNL     1      32.712 -13.342 -22.959  0.00  0.00    +0.484 P 
ATOM     19  O   UNL     1      32.336 -14.215 -24.120  0.00  0.00    -0.227 OA
BRANCH  18  20
ATOM     20  O   UNL     1      31.499 -12.439 -22.383  0.00  0.00    -0.302 OA
ATOM     21  H   UNL     1      31.757 -11.504 -22.398  0.00  0.00    +0.222 HD
ENDBRANCH  18  20
BRANCH  18  22
ATOM     22  O   UNL     1      33.859 -12.252 -23.293  0.00  0.00    -0.186 OA
BRANCH  22  23
ATOM     23  P   UNL     1      33.906 -11.064 -24.388  0.00  0.00    +0.481 P 
ATOM     24  O   UNL     1      33.772 -11.519 -25.811  0.00  0.00    -0.227 OA
BRANCH  23  25
ATOM     25  O   UNL     1      35.285 -10.297 -24.036  0.00  0.00    -0.302 OA
ATOM     26  H   UNL     1      35.172  -9.345 -24.182  0.00  0.00    +0.222 HD
ENDBRANCH  23  25
BRANCH  23  27
ATOM     27  O   UNL     1      32.763 -10.042 -23.878  0.00  0.00    -0.302 OA
ATOM     28  H   UNL     1      33.068  -9.128 -24.001  0.00  0.00    +0.222 HD
ENDBRANCH  23  27
ENDBRANCH  22  23
ENDBRANCH  18  22
ENDBRANCH  17  18
ENDBRANCH  16  17
ENDBRANCH   3  16
TORSDOF 9
ENDMDL
MODEL 6
REMARK VINA RESULT:      -8.4      1.859      3.196
REMARK  Name = 444503
REMARK  9 active torsions:
REMARK  status: ('A' for Active; 'I' for Inactive)
REMARK    1  A    between atoms: C_3  and  C_16
REMARK    2  A    between atoms: C_5  and  N_9
REMARK    3  A    between atoms: C_16  and  O_17
REMARK    4  A    between atoms: O_17  and  P_18
REMARK    5  A    between atoms: P_18  and  O_20
REMARK    6  A    between atoms: P_18  and  O_22
REMARK    7  A    between atoms: O_22  and  P_23
REMARK    8  A    between atoms: P_23  and  O_25
REMARK    9  A    between atoms: P_23  and  O_27
REMARK                            x       y       z     vdW  Elec       q    Type
REMARK                         _______ _______ _______ _____ _____    ______ ____
ROOT
ATOM      1  F   UNL     1      35.882 -21.821 -16.380  0.00  0.00    -0.234 F 
ATOM      2  O   UNL     1      34.193 -24.255 -16.571  0.00  0.00    -0.334 OA
ATOM      3  C   UNL     1      35.519 -24.101 -16.029  0.00  0.00    +0.180 C 
ATOM      4  C   UNL     1      35.564 -22.719 -15.405  0.00  0.00    +0.195 C 
ATOM      5  C   UNL     1      33.376 -23.164 -16.119  0.00  0.00    +0.202 C 
ATOM      6  C   UNL     1      34.134 -22.479 -14.996  0.00  0.00    +0.089 C 
ENDROOT
BRANCH   5   9
ATOM      7  O   UNL     1      30.912 -22.407 -17.272  0.00  0.00    -0.252 OA
ATOM      8  O   UNL     1      28.532 -25.159 -14.441  0.00  0.00    -0.270 OA
ATOM      9  N   UNL     1      32.100 -23.667 -15.703  0.00  0.00    -0.219 N 
ATOM     10  N   UNL     1      29.728 -23.778 -15.861  0.00  0.00    -0.236 N 
ATOM     11  C   UNL     1      30.920 -23.222 -16.347  0.00  0.00    +0.315 C 
ATOM     12  C   UNL     1      32.019 -24.593 -14.669  0.00  0.00    +0.076 C 
ATOM     13  C   UNL     1      30.876 -25.113 -14.215  0.00  0.00    +0.074 C 
ATOM     14  C   UNL     1      29.601 -24.700 -14.833  0.00  0.00    +0.254 C 
ATOM     15  H   UNL     1      28.895 -23.481 -16.294  0.00  0.00    +0.159 HD
ENDBRANCH   5   9
BRANCH   3  16
ATOM     16  C   UNL     1      35.746 -25.218 -15.021  0.00  0.00    +0.186 C 
BRANCH  16  17
ATOM     17  O   UNL     1      36.639 -24.755 -14.023  0.00  0.00    -0.270 OA
BRANCH  17  18
ATOM     18  P   UNL     1      37.293 -25.801 -12.974  0.00  0.00    +0.484 P 
ATOM     19  O   UNL     1      37.368 -27.218 -13.463  0.00  0.00    -0.227 OA
BRANCH  18  20
ATOM     20  O   UNL     1      38.725 -25.149 -12.596  0.00  0.00    -0.302 OA
ATOM     21  H   UNL     1      38.919 -24.419 -13.204  0.00  0.00    +0.222 HD
ENDBRANCH  18  20
BRANCH  18  22
ATOM     22  O   UNL     1      36.430 -25.611 -11.621  0.00  0.00    -0.186 OA
BRANCH  22  23
ATOM     23  P   UNL     1      35.899 -24.276 -10.880  0.00  0.00    +0.481 P 
ATOM     24  O   UNL     1      35.342 -24.503  -9.506  0.00  0.00    -0.227 OA
BRANCH  23  25
ATOM     25  O   UNL     1      34.860 -23.653 -11.951  0.00  0.00    -0.302 OA
ATOM     26  H   UNL     1      34.645 -22.741 -11.699  0.00  0.00    +0.222 HD
ENDBRANCH  23  25
BRANCH  23  27
ATOM     27  O   UNL     1      37.167 -23.277 -10.956  0.00  0.00    -0.302 OA
ATOM     28  H   UNL     1      36.855 -22.367 -11.084  0.00  0.00    +0.222 HD
ENDBRANCH  23  27
ENDBRANCH  22  23
ENDBRANCH  18  22
ENDBRANCH  17  18
ENDBRANCH  16  17
ENDBRANCH   3  16
TORSDOF 9
ENDMDL
MODEL 7
REMARK VINA RESULT:      -8.4      7.950     10.853
REMARK  Name = 444503
REMARK  9 active torsions:
REMARK  status: ('A' for Active; 'I' for Inactive)
REMARK    1  A    between atoms: C_3  and  C_16
REMARK    2  A    between atoms: C_5  and  N_9
REMARK    3  A    between atoms: C_16  and  O_17
REMARK    4  A    between atoms: O_17  and  P_18
REMARK    5  A    between atoms: P_18  and  O_20
REMARK    6  A    between atoms: P_18  and  O_22
REMARK    7  A    between atoms: O_22  and  P_23
REMARK    8  A    between atoms: P_23  and  O_25
REMARK    9  A    between atoms: P_23  and  O_27
REMARK                            x       y       z     vdW  Elec       q    Type
REMARK                         _______ _______ _______ _____ _____    ______ ____
ROOT
ATOM      1  F   UNL     1      36.051 -18.296 -23.602  0.00  0.00    -0.234 F 
ATOM      2  O   UNL     1      35.943 -18.677 -20.660  0.00  0.00    -0.334 OA
ATOM      3  C   UNL     1      35.595 -17.521 -21.446  0.00  0.00    +0.180 C 
ATOM      4  C   UNL     1      35.018 -18.051 -22.746  0.00  0.00    +0.195 C 
ATOM      5  C   UNL     1      35.408 -19.849 -21.293  0.00  0.00    +0.202 C 
ATOM      6  C   UNL     1      34.420 -19.373 -22.343  0.00  0.00    +0.089 C 
ENDROOT
BRANCH   5   9
ATOM      7  O   UNL     1      36.842 -21.602 -19.607  0.00  0.00    -0.252 OA
ATOM      8  O   UNL     1      32.989 -23.044 -17.526  0.00  0.00    -0.270 OA
ATOM      9  N   UNL     1      34.806 -20.692 -20.304  0.00  0.00    -0.219 N 
ATOM     10  N   UNL     1      34.922 -22.320 -18.572  0.00  0.00    -0.236 N 
ATOM     11  C   UNL     1      35.614 -21.539 -19.507  0.00  0.00    +0.315 C 
ATOM     12  C   UNL     1      33.427 -20.680 -20.124  0.00  0.00    +0.076 C 
ATOM     13  C   UNL     1      32.780 -21.430 -19.228  0.00  0.00    +0.074 C 
ATOM     14  C   UNL     1      33.552 -22.341 -18.359  0.00  0.00    +0.254 C 
ATOM     15  H   UNL     1      35.465 -22.917 -18.008  0.00  0.00    +0.159 HD
ENDBRANCH   5   9
BRANCH   3  16
ATOM     16  C   UNL     1      34.601 -16.692 -20.647  0.00  0.00    +0.186 C 
BRANCH  16  17
ATOM     17  O   UNL     1      34.243 -15.552 -21.408  0.00  0.00    -0.270 OA
BRANCH  17  18
ATOM     18  P   UNL     1      32.711 -15.030 -21.415  0.00  0.00    +0.484 P 
ATOM     19  O   UNL     1      31.724 -15.970 -20.787  0.00  0.00    -0.227 OA
BRANCH  18  20
ATOM     20  O   UNL     1      32.779 -13.571 -20.719  0.00  0.00    -0.302 OA
ATOM     21  H   UNL     1      33.468 -13.570 -20.037  0.00  0.00    +0.222 HD
ENDBRANCH  18  20
BRANCH  18  22
ATOM     22  O   UNL     1      32.405 -14.688 -22.965  0.00  0.00    -0.186 OA
BRANCH  22  23
ATOM     23  P   UNL     1      33.383 -14.202 -24.157  0.00  0.00    +0.481 P 
ATOM     24  O   UNL     1      32.677 -13.761 -25.405  0.00  0.00    -0.227 OA
BRANCH  23  25
ATOM     25  O   UNL     1      34.388 -15.455 -24.339  0.00  0.00    -0.302 OA
ATOM     26  H   UNL     1      34.398 -15.982 -23.525  0.00  0.00    +0.222 HD
ENDBRANCH  23  25
BRANCH  23  27
ATOM     27  O   UNL     1      34.304 -13.078 -23.449  0.00  0.00    -0.302 OA
ATOM     28  H   UNL     1      33.741 -12.468 -22.947  0.00  0.00    +0.222 HD
ENDBRANCH  23  27
ENDBRANCH  22  23
ENDBRANCH  18  22
ENDBRANCH  17  18
ENDBRANCH  16  17
ENDBRANCH   3  16
TORSDOF 9
ENDMDL
MODEL 8
REMARK VINA RESULT:      -8.3      8.603     11.528
REMARK  Name = 444503
REMARK  9 active torsions:
REMARK  status: ('A' for Active; 'I' for Inactive)
REMARK    1  A    between atoms: C_3  and  C_16
REMARK    2  A    between atoms: C_5  and  N_9
REMARK    3  A    between atoms: C_16  and  O_17
REMARK    4  A    between atoms: O_17  and  P_18
REMARK    5  A    between atoms: P_18  and  O_20
REMARK    6  A    between atoms: P_18  and  O_22
REMARK    7  A    between atoms: O_22  and  P_23
REMARK    8  A    between atoms: P_23  and  O_25
REMARK    9  A    between atoms: P_23  and  O_27
REMARK                            x       y       z     vdW  Elec       q    Type
REMARK                         _______ _______ _______ _____ _____    ______ ____
ROOT
ATOM      1  F   UNL     1      36.070 -17.521 -23.680  0.00  0.00    -0.234 F 
ATOM      2  O   UNL     1      35.519 -17.971 -20.797  0.00  0.00    -0.334 OA
ATOM      3  C   UNL     1      35.091 -16.894 -21.654  0.00  0.00    +0.180 C 
ATOM      4  C   UNL     1      34.873 -17.506 -23.026  0.00  0.00    +0.195 C 
ATOM      5  C   UNL     1      35.353 -19.215 -21.495  0.00  0.00    +0.202 C 
ATOM      6  C   UNL     1      34.493 -18.929 -22.712  0.00  0.00    +0.089 C 
ENDROOT
BRANCH   5   9
ATOM      7  O   UNL     1      36.816 -21.160 -20.062  0.00  0.00    -0.252 OA
ATOM      8  O   UNL     1      32.996 -22.877 -18.135  0.00  0.00    -0.270 OA
ATOM      9  N   UNL     1      34.767 -20.180 -20.613  0.00  0.00    -0.219 N 
ATOM     10  N   UNL     1      34.913 -22.014 -19.104  0.00  0.00    -0.236 N 
ATOM     11  C   UNL     1      35.589 -21.116 -19.941  0.00  0.00    +0.315 C 
ATOM     12  C   UNL     1      33.391 -20.199 -20.416  0.00  0.00    +0.076 C 
ATOM     13  C   UNL     1      32.759 -21.061 -19.616  0.00  0.00    +0.074 C 
ATOM     14  C   UNL     1      33.545 -22.070 -18.879  0.00  0.00    +0.254 C 
ATOM     15  H   UNL     1      35.465 -22.675 -18.627  0.00  0.00    +0.159 HD
ENDBRANCH   5   9
BRANCH   3  16
ATOM     16  C   UNL     1      33.823 -16.298 -21.059  0.00  0.00    +0.186 C 
BRANCH  16  17
ATOM     17  O   UNL     1      33.004 -15.827 -22.115  0.00  0.00    -0.270 OA
BRANCH  17  18
ATOM     18  P   UNL     1      32.980 -14.251 -22.481  0.00  0.00    +0.484 P 
ATOM     19  O   UNL     1      32.237 -13.389 -21.503  0.00  0.00    -0.227 OA
BRANCH  18  20
ATOM     20  O   UNL     1      34.539 -13.857 -22.667  0.00  0.00    -0.302 OA
ATOM     21  H   UNL     1      35.087 -14.648 -22.553  0.00  0.00    +0.222 HD
ENDBRANCH  18  20
BRANCH  18  22
ATOM     22  O   UNL     1      32.401 -14.193 -23.989  0.00  0.00    -0.186 OA
BRANCH  22  23
ATOM     23  P   UNL     1      33.152 -14.280 -25.418  0.00  0.00    +0.481 P 
ATOM     24  O   UNL     1      34.128 -15.411 -25.543  0.00  0.00    -0.227 OA
BRANCH  23  25
ATOM     25  O   UNL     1      33.783 -12.802 -25.590  0.00  0.00    -0.302 OA
ATOM     26  H   UNL     1      33.288 -12.316 -26.268  0.00  0.00    +0.222 HD
ENDBRANCH  23  25
BRANCH  23  27
ATOM     27  O   UNL     1      31.933 -14.298 -26.479  0.00  0.00    -0.302 OA
ATOM     28  H   UNL     1      31.299 -14.989 -26.232  0.00  0.00    +0.222 HD
ENDBRANCH  23  27
ENDBRANCH  22  23
ENDBRANCH  18  22
ENDBRANCH  17  18
ENDBRANCH  16  17
ENDBRANCH   3  16
TORSDOF 9
ENDMDL
MODEL 9
REMARK VINA RESULT:      -8.2      9.608     11.492
REMARK  Name = 444503
REMARK  9 active torsions:
REMARK  status: ('A' for Active; 'I' for Inactive)
REMARK    1  A    between atoms: C_3  and  C_16
REMARK    2  A    between atoms: C_5  and  N_9
REMARK    3  A    between atoms: C_16  and  O_17
REMARK    4  A    between atoms: O_17  and  P_18
REMARK    5  A    between atoms: P_18  and  O_20
REMARK    6  A    between atoms: P_18  and  O_22
REMARK    7  A    between atoms: O_22  and  P_23
REMARK    8  A    between atoms: P_23  and  O_25
REMARK    9  A    between atoms: P_23  and  O_27
REMARK                            x       y       z     vdW  Elec       q    Type
REMARK                         _______ _______ _______ _____ _____    ______ ____
ROOT
ATOM      1  F   UNL     1      32.823 -14.436 -19.719  0.00  0.00    -0.234 F 
ATOM      2  O   UNL     1      34.684 -14.371 -22.031  0.00  0.00    -0.334 OA
ATOM      3  C   UNL     1      34.424 -15.435 -21.094  0.00  0.00    +0.180 C 
ATOM      4  C   UNL     1      32.953 -15.334 -20.737  0.00  0.00    +0.195 C 
ATOM      5  C   UNL     1      33.435 -13.788 -22.432  0.00  0.00    +0.202 C 
ATOM      6  C   UNL     1      32.338 -14.733 -21.973  0.00  0.00    +0.089 C 
ENDROOT
BRANCH   5   9
ATOM      7  O   UNL     1      33.902 -11.302 -23.687  0.00  0.00    -0.252 OA
ATOM      8  O   UNL     1      33.422 -13.127 -27.892  0.00  0.00    -0.270 OA
ATOM      9  N   UNL     1      33.438 -13.586 -23.850  0.00  0.00    -0.219 N 
ATOM     10  N   UNL     1      33.662 -12.213 -25.780  0.00  0.00    -0.236 N 
ATOM     11  C   UNL     1      33.682 -12.297 -24.381  0.00  0.00    +0.315 C 
ATOM     12  C   UNL     1      33.202 -14.656 -24.707  0.00  0.00    +0.076 C 
ATOM     13  C   UNL     1      33.185 -14.561 -26.039  0.00  0.00    +0.074 C 
ATOM     14  C   UNL     1      33.430 -13.250 -26.671  0.00  0.00    +0.254 C 
ATOM     15  H   UNL     1      33.828 -11.324 -26.171  0.00  0.00    +0.159 HD
ENDBRANCH   5   9
BRANCH   3  16
ATOM     16  C   UNL     1      34.785 -16.751 -21.769  0.00  0.00    +0.186 C 
BRANCH  16  17
ATOM     17  O   UNL     1      35.039 -17.720 -20.767  0.00  0.00    -0.270 OA
BRANCH  17  18
ATOM     18  P   UNL     1      35.529 -19.206 -21.183  0.00  0.00    +0.484 P 
ATOM     19  O   UNL     1      35.071 -19.662 -22.538  0.00  0.00    -0.227 OA
BRANCH  18  20
ATOM     20  O   UNL     1      37.136 -19.168 -20.999  0.00  0.00    -0.302 OA
ATOM     21  H   UNL     1      37.544 -18.807 -21.802  0.00  0.00    +0.222 HD
ENDBRANCH  18  20
BRANCH  18  22
ATOM     22  O   UNL     1      35.039 -20.150 -19.966  0.00  0.00    -0.186 OA
BRANCH  22  23
ATOM     23  P   UNL     1      35.714 -21.461 -19.302  0.00  0.00    +0.481 P 
ATOM     24  O   UNL     1      34.738 -22.434 -18.709  0.00  0.00    -0.227 OA
BRANCH  23  25
ATOM     25  O   UNL     1      36.782 -20.835 -18.262  0.00  0.00    -0.302 OA
ATOM     26  H   UNL     1      37.679 -20.950 -18.612  0.00  0.00    +0.222 HD
ENDBRANCH  23  25
BRANCH  23  27
ATOM     27  O   UNL     1      36.639 -22.046 -20.490  0.00  0.00    -0.302 OA
ATOM     28  H   UNL     1      37.574 -21.908 -20.270  0.00  0.00    +0.222 HD
ENDBRANCH  23  27
ENDBRANCH  22  23
ENDBRANCH  18  22
ENDBRANCH  17  18
ENDBRANCH  16  17
ENDBRANCH   3  16
TORSDOF 9
ENDMDL
