MODEL 1
REMARK VINA RESULT:      -4.5      0.000      0.000
REMARK  Name = 248
REMARK  3 active torsions:
REMARK  status: ('A' for Active; 'I' for Inactive)
REMARK    1  A    between atoms: C_1  and  N_2
REMARK    2  A    between atoms: C_1  and  C_7
REMARK    3  A    between atoms: C_7  and  O_8
REMARK                            x       y       z     vdW  Elec       q    Type
REMARK                         _______ _______ _______ _____ _____    ______ ____
ROOT
ATOM      1  C   UNL     1      38.951 -26.064 -14.272  0.00  0.00    +0.039 C 
ENDROOT
BRANCH   1   2
ATOM      2  N   UNL     1      37.906 -24.996 -13.985  0.00  0.00    +0.393 N 
ATOM      3  C   UNL     1      38.185 -24.365 -12.628  0.00  0.00    -0.095 C 
ATOM      4  C   UNL     1      37.968 -23.922 -15.063  0.00  0.00    -0.095 C 
ATOM      5  C   UNL     1      36.522 -25.627 -13.977  0.00  0.00    -0.095 C 
ENDBRANCH   1   2
BRANCH   1   7
ATOM      6  O   UNL     1      40.942 -24.673 -14.304  0.00  0.00    -0.253 OA
ATOM      7  C   UNL     1      40.190 -25.459 -14.860  0.00  0.00    +0.293 C 
BRANCH   7   8
ATOM      8  O   UNL     1      40.374 -25.913 -16.126  0.00  0.00    -0.482 OA
ATOM      9  H   UNL     1      40.279 -25.327 -16.852  0.00  0.00    +0.295 HD
ENDBRANCH   7   8
ENDBRANCH   1   7
TORSDOF 3
ENDMDL
MODEL 2
REMARK VINA RESULT:      -4.4     10.405     11.369
REMARK  Name = 248
REMARK  3 active torsions:
REMARK  status: ('A' for Active; 'I' for Inactive)
REMARK    1  A    between atoms: C_1  and  N_2
REMARK    2  A    between atoms: C_1  and  C_7
REMARK    3  A    between atoms: C_7  and  O_8
REMARK                            x       y       z     vdW  Elec       q    Type
REMARK                         _______ _______ _______ _____ _____    ______ ____
ROOT
ATOM      1  C   UNL     1      41.509 -14.312 -15.772  0.00  0.00    +0.039 C 
ENDROOT
BRANCH   1   2
ATOM      2  N   UNL     1      42.146 -13.937 -17.103  0.00  0.00    +0.393 N 
ATOM      3  C   UNL     1      41.334 -14.536 -18.242  0.00  0.00    -0.095 C 
ATOM      4  C   UNL     1      42.171 -12.421 -17.243  0.00  0.00    -0.095 C 
ATOM      5  C   UNL     1      43.568 -14.475 -17.155  0.00  0.00    -0.095 C 
ENDBRANCH   1   2
BRANCH   1   7
ATOM      6  O   UNL     1      42.310 -16.605 -15.713  0.00  0.00    -0.253 OA
ATOM      7  C   UNL     1      41.394 -15.801 -15.633  0.00  0.00    +0.293 C 
BRANCH   7   8
ATOM      8  O   UNL     1      40.103 -16.148 -15.399  0.00  0.00    -0.482 OA
ATOM      9  H   UNL     1      39.815 -16.317 -14.523  0.00  0.00    +0.295 HD
ENDBRANCH   7   8
ENDBRANCH   1   7
TORSDOF 3
ENDMDL
MODEL 3
REMARK VINA RESULT:      -4.3      9.607     10.377
REMARK  Name = 248
REMARK  3 active torsions:
REMARK  status: ('A' for Active; 'I' for Inactive)
REMARK    1  A    between atoms: C_1  and  N_2
REMARK    2  A    between atoms: C_1  and  C_7
REMARK    3  A    between atoms: C_7  and  O_8
REMARK                            x       y       z     vdW  Elec       q    Type
REMARK                         _______ _______ _______ _____ _____    ______ ____
ROOT
ATOM      1  C   UNL     1      28.592 -23.205 -15.411  0.00  0.00    +0.039 C 
ENDROOT
BRANCH   1   2
ATOM      2  N   UNL     1      30.031 -23.699 -15.360  0.00  0.00    +0.393 N 
ATOM      3  C   UNL     1      30.634 -23.368 -14.003  0.00  0.00    -0.095 C 
ATOM      4  C   UNL     1      30.056 -25.207 -15.571  0.00  0.00    -0.095 C 
ATOM      5  C   UNL     1      30.840 -23.020 -16.455  0.00  0.00    -0.095 C 
ENDBRANCH   1   2
BRANCH   1   7
ATOM      6  O   UNL     1      27.788 -24.096 -17.523  0.00  0.00    -0.253 OA
ATOM      7  C   UNL     1      28.095 -23.142 -16.824  0.00  0.00    +0.293 C 
BRANCH   7   8
ATOM      8  O   UNL     1      28.028 -21.851 -17.237  0.00  0.00    -0.482 OA
ATOM      9  H   UNL     1      27.459 -21.614 -17.943  0.00  0.00    +0.295 HD
ENDBRANCH   7   8
ENDBRANCH   1   7
TORSDOF 3
ENDMDL
MODEL 4
REMARK VINA RESULT:      -4.3      2.667      3.731
REMARK  Name = 248
REMARK  3 active torsions:
REMARK  status: ('A' for Active; 'I' for Inactive)
REMARK    1  A    between atoms: C_1  and  N_2
REMARK    2  A    between atoms: C_1  and  C_7
REMARK    3  A    between atoms: C_7  and  O_8
REMARK                            x       y       z     vdW  Elec       q    Type
REMARK                         _______ _______ _______ _____ _____    ______ ____
ROOT
ATOM      1  C   UNL     1      36.633 -23.619 -12.967  0.00  0.00    +0.039 C 
ENDROOT
BRANCH   1   2
ATOM      2  N   UNL     1      36.991 -24.854 -13.781  0.00  0.00    +0.393 N 
ATOM      3  C   UNL     1      38.263 -24.589 -14.573  0.00  0.00    -0.095 C 
ATOM      4  C   UNL     1      37.215 -26.033 -12.844  0.00  0.00    -0.095 C 
ATOM      5  C   UNL     1      35.854 -25.178 -14.740  0.00  0.00    -0.095 C 
ENDBRANCH   1   2
BRANCH   1   7
ATOM      6  O   UNL     1      38.645 -23.163 -11.684  0.00  0.00    -0.253 OA
ATOM      7  C   UNL     1      37.479 -23.526 -11.733  0.00  0.00    +0.293 C 
BRANCH   7   8
ATOM      8  O   UNL     1      36.761 -23.907 -10.646  0.00  0.00    -0.482 OA
ATOM      9  H   UNL     1      35.935 -23.503 -10.465  0.00  0.00    +0.295 HD
ENDBRANCH   7   8
ENDBRANCH   1   7
TORSDOF 3
ENDMDL
MODEL 5
REMARK VINA RESULT:      -4.2      2.758      3.768
REMARK  Name = 248
REMARK  3 active torsions:
REMARK  status: ('A' for Active; 'I' for Inactive)
REMARK    1  A    between atoms: C_1  and  N_2
REMARK    2  A    between atoms: C_1  and  C_7
REMARK    3  A    between atoms: C_7  and  O_8
REMARK                            x       y       z     vdW  Elec       q    Type
REMARK                         _______ _______ _______ _____ _____    ______ ____
ROOT
ATOM      1  C   UNL     1      36.525 -23.512 -12.903  0.00  0.00    +0.039 C 
ENDROOT
BRANCH   1   2
ATOM      2  N   UNL     1      36.858 -24.727 -13.757  0.00  0.00    +0.393 N 
ATOM      3  C   UNL     1      35.673 -25.058 -14.653  0.00  0.00    -0.095 C 
ATOM      4  C   UNL     1      38.075 -24.423 -14.620  0.00  0.00    -0.095 C 
ATOM      5  C   UNL     1      37.160 -25.914 -12.854  0.00  0.00    -0.095 C 
ENDBRANCH   1   2
BRANCH   1   7
ATOM      6  O   UNL     1      38.575 -23.077 -11.674  0.00  0.00    -0.253 OA
ATOM      7  C   UNL     1      37.410 -23.445 -11.695  0.00  0.00    +0.293 C 
BRANCH   7   8
ATOM      8  O   UNL     1      36.729 -23.858 -10.596  0.00  0.00    -0.482 OA
ATOM      9  H   UNL     1      37.123 -23.788  -9.748  0.00  0.00    +0.295 HD
ENDBRANCH   7   8
ENDBRANCH   1   7
TORSDOF 3
ENDMDL
MODEL 6
REMARK VINA RESULT:      -4.2      2.129      2.682
REMARK  Name = 248
REMARK  3 active torsions:
REMARK  status: ('A' for Active; 'I' for Inactive)
REMARK    1  A    between atoms: C_1  and  N_2
REMARK    2  A    between atoms: C_1  and  C_7
REMARK    3  A    between atoms: C_7  and  O_8
REMARK                            x       y       z     vdW  Elec       q    Type
REMARK                         _______ _______ _______ _____ _____    ______ ____
ROOT
ATOM      1  C   UNL     1      36.805 -25.911 -13.802  0.00  0.00    +0.039 C 
ENDROOT
BRANCH   1   2
ATOM      2  N   UNL     1      36.425 -24.509 -14.255  0.00  0.00    +0.393 N 
ATOM      3  C   UNL     1      36.260 -23.610 -13.039  0.00  0.00    -0.095 C 
ATOM      4  C   UNL     1      37.522 -23.951 -15.152  0.00  0.00    -0.095 C 
ATOM      5  C   UNL     1      35.115 -24.562 -15.029  0.00  0.00    -0.095 C 
ENDBRANCH   1   2
BRANCH   1   7
ATOM      6  O   UNL     1      36.756 -27.113 -15.913  0.00  0.00    -0.253 OA
ATOM      7  C   UNL     1      37.372 -26.708 -14.939  0.00  0.00    +0.293 C 
BRANCH   7   8
ATOM      8  O   UNL     1      38.697 -26.925 -14.739  0.00  0.00    -0.482 OA
ATOM      9  H   UNL     1      39.029 -27.024 -13.868  0.00  0.00    +0.295 HD
ENDBRANCH   7   8
ENDBRANCH   1   7
TORSDOF 3
ENDMDL
MODEL 7
REMARK VINA RESULT:      -4.2      9.614     10.313
REMARK  Name = 248
REMARK  3 active torsions:
REMARK  status: ('A' for Active; 'I' for Inactive)
REMARK    1  A    between atoms: C_1  and  N_2
REMARK    2  A    between atoms: C_1  and  C_7
REMARK    3  A    between atoms: C_7  and  O_8
REMARK                            x       y       z     vdW  Elec       q    Type
REMARK                         _______ _______ _______ _____ _____    ______ ____
ROOT
ATOM      1  C   UNL     1      28.535 -23.458 -15.393  0.00  0.00    +0.039 C 
ENDROOT
BRANCH   1   2
ATOM      2  N   UNL     1      30.015 -23.807 -15.334  0.00  0.00    +0.393 N 
ATOM      3  C   UNL     1      30.762 -23.040 -16.417  0.00  0.00    -0.095 C 
ATOM      4  C   UNL     1      30.572 -23.425 -13.969  0.00  0.00    -0.095 C 
ATOM      5  C   UNL     1      30.194 -25.302 -15.555  0.00  0.00    -0.095 C 
ENDBRANCH   1   2
BRANCH   1   7
ATOM      6  O   UNL     1      28.148 -21.876 -17.196  0.00  0.00    -0.253 OA
ATOM      7  C   UNL     1      28.141 -23.022 -16.773  0.00  0.00    +0.293 C 
BRANCH   7   8
ATOM      8  O   UNL     1      27.765 -24.097 -17.511  0.00  0.00    -0.482 OA
ATOM      9  H   UNL     1      26.935 -24.504 -17.357  0.00  0.00    +0.295 HD
ENDBRANCH   7   8
ENDBRANCH   1   7
TORSDOF 3
ENDMDL
MODEL 8
REMARK VINA RESULT:      -4.1      3.130      3.975
REMARK  Name = 248
REMARK  3 active torsions:
REMARK  status: ('A' for Active; 'I' for Inactive)
REMARK    1  A    between atoms: C_1  and  N_2
REMARK    2  A    between atoms: C_1  and  C_7
REMARK    3  A    between atoms: C_7  and  O_8
REMARK                            x       y       z     vdW  Elec       q    Type
REMARK                         _______ _______ _______ _____ _____    ______ ____
ROOT
ATOM      1  C   UNL     1      36.677 -23.932 -13.081  0.00  0.00    +0.039 C 
ENDROOT
BRANCH   1   2
ATOM      2  N   UNL     1      37.075 -24.409 -14.471  0.00  0.00    +0.393 N 
ATOM      3  C   UNL     1      38.462 -25.033 -14.416  0.00  0.00    -0.095 C 
ATOM      4  C   UNL     1      36.072 -25.448 -14.956  0.00  0.00    -0.095 C 
ATOM      5  C   UNL     1      37.086 -23.228 -15.430  0.00  0.00    -0.095 C 
ENDBRANCH   1   2
BRANCH   1   7
ATOM      6  O   UNL     1      36.853 -25.998 -11.817  0.00  0.00    -0.253 OA
ATOM      7  C   UNL     1      36.181 -25.071 -12.243  0.00  0.00    +0.293 C 
BRANCH   7   8
ATOM      8  O   UNL     1      34.851 -24.935 -12.012  0.00  0.00    -0.482 OA
ATOM      9  H   UNL     1      34.521 -24.145 -11.629  0.00  0.00    +0.295 HD
ENDBRANCH   7   8
ENDBRANCH   1   7
TORSDOF 3
ENDMDL
MODEL 9
REMARK VINA RESULT:      -4.1     10.029     10.771
REMARK  Name = 248
REMARK  3 active torsions:
REMARK  status: ('A' for Active; 'I' for Inactive)
REMARK    1  A    between atoms: C_1  and  N_2
REMARK    2  A    between atoms: C_1  and  C_7
REMARK    3  A    between atoms: C_7  and  O_8
REMARK                            x       y       z     vdW  Elec       q    Type
REMARK                         _______ _______ _______ _____ _____    ______ ____
ROOT
ATOM      1  C   UNL     1      42.974 -15.568 -17.031  0.00  0.00    +0.039 C 
ENDROOT
BRANCH   1   2
ATOM      2  N   UNL     1      41.993 -14.443 -16.733  0.00  0.00    +0.393 N 
ATOM      3  C   UNL     1      42.763 -13.180 -16.376  0.00  0.00    -0.095 C 
ATOM      4  C   UNL     1      41.133 -14.180 -17.961  0.00  0.00    -0.095 C 
ATOM      5  C   UNL     1      41.102 -14.842 -15.565  0.00  0.00    -0.095 C 
ENDBRANCH   1   2
BRANCH   1   7
ATOM      6  O   UNL     1      41.567 -17.545 -17.138  0.00  0.00    -0.253 OA
ATOM      7  C   UNL     1      42.281 -16.723 -17.690  0.00  0.00    +0.293 C 
BRANCH   7   8
ATOM      8  O   UNL     1      42.559 -16.736 -19.019  0.00  0.00    -0.482 OA
ATOM      9  H   UNL     1      43.447 -16.805 -19.311  0.00  0.00    +0.295 HD
ENDBRANCH   7   8
ENDBRANCH   1   7
TORSDOF 3
ENDMDL
