MODEL 1
REMARK VINA RESULT:     -10.6      0.000      0.000
REMARK  Name = 6102685
REMARK  5 active torsions:
REMARK  status: ('A' for Active; 'I' for Inactive)
REMARK    1  A    between atoms: C_7  and  C_12
REMARK    2  A    between atoms: C_9  and  N_15
REMARK    3  A    between atoms: C_12  and  O_13
REMARK    4  A    between atoms: N_15  and  S_17
REMARK    5  A    between atoms: S_17  and  C_20
REMARK                            x       y       z     vdW  Elec       q    Type
REMARK                         _______ _______ _______ _____ _____    ______ ____
ROOT
ATOM      1  C   UNL     1      36.831 -23.524 -11.766  0.00  0.00    +0.005 C 
ATOM      2  C   UNL     1      37.198 -23.373 -13.242  0.00  0.00    +0.026 C 
ATOM      3  C   UNL     1      35.842 -24.667 -11.578  0.00  0.00    +0.005 C 
ATOM      4  C   UNL     1      36.000 -23.388 -14.158  0.00  0.00    -0.019 C 
ATOM      5  C   UNL     1      34.541 -24.377 -12.324  0.00  0.00    +0.026 C 
ATOM      6  C   UNL     1      34.758 -23.898 -13.737  0.00  0.00    -0.026 C 
ATOM      7  C   UNL     1      36.146 -22.934 -15.478  0.00  0.00    +0.086 C 
ATOM      8  C   UNL     1      33.679 -23.910 -14.634  0.00  0.00    -0.003 C 
ATOM      9  C   UNL     1      35.068 -22.961 -16.362  0.00  0.00    +0.071 C 
ATOM     10  C   UNL     1      33.834 -23.446 -15.940  0.00  0.00    +0.016 C 
ENDROOT
BRANCH   7  12
ATOM     11  O   UNL     1      38.484 -23.080 -15.964  0.00  0.00    -0.245 OA
ATOM     12  C   UNL     1      37.435 -22.436 -15.957  0.00  0.00    +0.339 C 
BRANCH  12  13
ATOM     13  O   UNL     1      37.356 -21.157 -16.406  0.00  0.00    -0.477 OA
ATOM     14  H   UNL     1      36.564 -20.845 -16.797  0.00  0.00    +0.295 HD
ENDBRANCH  12  13
ENDBRANCH   7  12
BRANCH   9  15
ATOM     15  N   UNL     1      35.201 -22.499 -17.710  0.00  0.00    -0.215 N 
ATOM     16  H   UNL     1      36.058 -22.137 -18.035  0.00  0.00    +0.174 HD
BRANCH  15  17
ATOM     17  S   UNL     1      33.833 -22.585 -18.752  0.00  0.00    +0.074 S 
ATOM     18  O   UNL     1      33.964 -23.753 -19.604  0.00  0.00    -0.150 OA
ATOM     19  O   UNL     1      32.615 -22.380 -17.992  0.00  0.00    -0.150 OA
BRANCH  17  20
ATOM     20  C   UNL     1      34.070 -21.168 -19.785  0.00  0.00    +0.125 C 
ATOM     21  C   UNL     1      35.357 -20.797 -20.136  0.00  0.00    +0.020 C 
ATOM     22  C   UNL     1      32.966 -20.460 -20.221  0.00  0.00    +0.020 C 
ATOM     23  C   UNL     1      35.543 -19.680 -20.949  0.00  0.00    +0.001 C 
ATOM     24  C   UNL     1      33.152 -19.342 -21.035  0.00  0.00    +0.001 C 
ATOM     25  C   UNL     1      34.441 -18.953 -21.399  0.00  0.00    +0.000 C 
ENDBRANCH  17  20
ENDBRANCH  15  17
ENDBRANCH   9  15
TORSDOF 5
ENDMDL
MODEL 2
REMARK VINA RESULT:     -10.5      7.715     10.842
REMARK  Name = 6102685
REMARK  5 active torsions:
REMARK  status: ('A' for Active; 'I' for Inactive)
REMARK    1  A    between atoms: C_7  and  C_12
REMARK    2  A    between atoms: C_9  and  N_15
REMARK    3  A    between atoms: C_12  and  O_13
REMARK    4  A    between atoms: N_15  and  S_17
REMARK    5  A    between atoms: S_17  and  C_20
REMARK                            x       y       z     vdW  Elec       q    Type
REMARK                         _______ _______ _______ _____ _____    ______ ____
ROOT
ATOM      1  C   UNL     1      33.964 -19.461 -21.176  0.00  0.00    +0.005 C 
ATOM      2  C   UNL     1      34.258 -17.976 -20.970  0.00  0.00    +0.026 C 
ATOM      3  C   UNL     1      34.937 -20.062 -22.183  0.00  0.00    +0.005 C 
ATOM      4  C   UNL     1      34.445 -17.221 -22.263  0.00  0.00    -0.019 C 
ATOM      5  C   UNL     1      34.775 -19.393 -23.546  0.00  0.00    +0.026 C 
ATOM      6  C   UNL     1      34.728 -17.888 -23.470  0.00  0.00    -0.026 C 
ATOM      7  C   UNL     1      34.389 -15.819 -22.248  0.00  0.00    +0.086 C 
ATOM      8  C   UNL     1      34.914 -17.140 -24.642  0.00  0.00    -0.003 C 
ATOM      9  C   UNL     1      34.586 -15.088 -23.418  0.00  0.00    +0.071 C 
ATOM     10  C   UNL     1      34.846 -15.747 -24.616  0.00  0.00    +0.016 C 
ENDROOT
BRANCH   7  12
ATOM     11  O   UNL     1      35.001 -14.763 -20.189  0.00  0.00    -0.245 OA
ATOM     12  C   UNL     1      34.138 -15.096 -21.001  0.00  0.00    +0.339 C 
BRANCH  12  13
ATOM     13  O   UNL     1      32.819 -14.822 -20.826  0.00  0.00    -0.477 OA
ATOM     14  H   UNL     1      32.175 -15.476 -21.013  0.00  0.00    +0.295 HD
ENDBRANCH  12  13
ENDBRANCH   7  12
BRANCH   9  15
ATOM     15  N   UNL     1      34.530 -13.657 -23.419  0.00  0.00    -0.215 N 
ATOM     16  H   UNL     1      35.286 -13.125 -23.079  0.00  0.00    +0.174 HD
BRANCH  15  17
ATOM     17  S   UNL     1      33.115 -12.885 -24.023  0.00  0.00    +0.074 S 
ATOM     18  O   UNL     1      32.980 -13.190 -25.436  0.00  0.00    -0.150 OA
ATOM     19  O   UNL     1      32.000 -13.117 -23.125  0.00  0.00    -0.150 OA
BRANCH  17  20
ATOM     20  C   UNL     1      33.555 -11.174 -23.908  0.00  0.00    +0.125 C 
ATOM     21  C   UNL     1      32.799 -10.337 -23.107  0.00  0.00    +0.020 C 
ATOM     22  C   UNL     1      34.645 -10.710 -24.621  0.00  0.00    +0.020 C 
ATOM     23  C   UNL     1      33.145  -8.989 -23.018  0.00  0.00    +0.001 C 
ATOM     24  C   UNL     1      34.991  -9.361 -24.531  0.00  0.00    +0.001 C 
ATOM     25  C   UNL     1      34.241  -8.502 -23.729  0.00  0.00    +0.000 C 
ENDBRANCH  17  20
ENDBRANCH  15  17
ENDBRANCH   9  15
TORSDOF 5
ENDMDL
MODEL 3
REMARK VINA RESULT:     -10.5      9.226     13.174
REMARK  Name = 6102685
REMARK  5 active torsions:
REMARK  status: ('A' for Active; 'I' for Inactive)
REMARK    1  A    between atoms: C_7  and  C_12
REMARK    2  A    between atoms: C_9  and  N_15
REMARK    3  A    between atoms: C_12  and  O_13
REMARK    4  A    between atoms: N_15  and  S_17
REMARK    5  A    between atoms: S_17  and  C_20
REMARK                            x       y       z     vdW  Elec       q    Type
REMARK                         _______ _______ _______ _____ _____    ______ ____
ROOT
ATOM      1  C   UNL     1      33.142  -7.564 -21.865  0.00  0.00    +0.005 C 
ATOM      2  C   UNL     1      32.322  -8.853 -21.845  0.00  0.00    +0.026 C 
ATOM      3  C   UNL     1      33.481  -7.171 -23.296  0.00  0.00    +0.005 C 
ATOM      4  C   UNL     1      32.894  -9.936 -22.726  0.00  0.00    -0.019 C 
ATOM      5  C   UNL     1      34.343  -8.245 -23.956  0.00  0.00    +0.026 C 
ATOM      6  C   UNL     1      33.817  -9.643 -23.747  0.00  0.00    -0.026 C 
ATOM      7  C   UNL     1      32.451 -11.257 -22.557  0.00  0.00    +0.086 C 
ATOM      8  C   UNL     1      34.304 -10.682 -24.554  0.00  0.00    -0.003 C 
ATOM      9  C   UNL     1      32.936 -12.278 -23.373  0.00  0.00    +0.071 C 
ATOM     10  C   UNL     1      33.863 -11.992 -24.370  0.00  0.00    +0.016 C 
ENDROOT
BRANCH   7  12
ATOM     11  O   UNL     1      31.724 -11.930 -20.379  0.00  0.00    -0.245 OA
ATOM     12  C   UNL     1      31.461 -11.586 -21.531  0.00  0.00    +0.339 C 
BRANCH  12  13
ATOM     13  O   UNL     1      30.189 -11.470 -21.991  0.00  0.00    -0.477 OA
ATOM     14  H   UNL     1      29.481 -11.859 -21.517  0.00  0.00    +0.295 HD
ENDBRANCH  12  13
ENDBRANCH   7  12
BRANCH   9  15
ATOM     15  N   UNL     1      32.495 -13.631 -23.211  0.00  0.00    -0.215 N 
ATOM     16  H   UNL     1      31.713 -13.967 -23.708  0.00  0.00    +0.174 HD
BRANCH  15  17
ATOM     17  S   UNL     1      33.355 -14.657 -22.131  0.00  0.00    +0.074 S 
ATOM     18  O   UNL     1      34.520 -13.947 -21.635  0.00  0.00    -0.150 OA
ATOM     19  O   UNL     1      32.436 -15.278 -21.195  0.00  0.00    -0.150 OA
BRANCH  17  20
ATOM     20  C   UNL     1      33.950 -15.919 -23.220  0.00  0.00    +0.125 C 
ATOM     21  C   UNL     1      34.522 -17.058 -22.683  0.00  0.00    +0.020 C 
ATOM     22  C   UNL     1      33.830 -15.740 -24.586  0.00  0.00    +0.020 C 
ATOM     23  C   UNL     1      34.991 -18.052 -23.543  0.00  0.00    +0.001 C 
ATOM     24  C   UNL     1      34.300 -16.734 -25.446  0.00  0.00    +0.001 C 
ATOM     25  C   UNL     1      34.880 -17.890 -24.923  0.00  0.00    +0.000 C 
ENDBRANCH  17  20
ENDBRANCH  15  17
ENDBRANCH   9  15
TORSDOF 5
ENDMDL
MODEL 4
REMARK VINA RESULT:     -10.4      5.567     10.859
REMARK  Name = 6102685
REMARK  5 active torsions:
REMARK  status: ('A' for Active; 'I' for Inactive)
REMARK    1  A    between atoms: C_7  and  C_12
REMARK    2  A    between atoms: C_9  and  N_15
REMARK    3  A    between atoms: C_12  and  O_13
REMARK    4  A    between atoms: N_15  and  S_17
REMARK    5  A    between atoms: S_17  and  C_20
REMARK                            x       y       z     vdW  Elec       q    Type
REMARK                         _______ _______ _______ _____ _____    ______ ____
ROOT
ATOM      1  C   UNL     1      33.386 -12.534 -26.131  0.00  0.00    +0.005 C 
ATOM      2  C   UNL     1      33.929 -13.927 -25.817  0.00  0.00    +0.026 C 
ATOM      3  C   UNL     1      33.843 -11.534 -25.076  0.00  0.00    +0.005 C 
ATOM      4  C   UNL     1      33.737 -14.330 -24.377  0.00  0.00    -0.019 C 
ATOM      5  C   UNL     1      33.293 -11.917 -23.704  0.00  0.00    +0.026 C 
ATOM      6  C   UNL     1      33.476 -13.377 -23.374  0.00  0.00    -0.026 C 
ATOM      7  C   UNL     1      33.878 -15.681 -24.022  0.00  0.00    +0.086 C 
ATOM      8  C   UNL     1      33.327 -13.800 -22.045  0.00  0.00    -0.003 C 
ATOM      9  C   UNL     1      33.737 -16.085 -22.696  0.00  0.00    +0.071 C 
ATOM     10  C   UNL     1      33.459 -15.146 -21.707  0.00  0.00    +0.016 C 
ENDROOT
BRANCH   7  12
ATOM     11  O   UNL     1      33.406 -17.096 -25.893  0.00  0.00    -0.245 OA
ATOM     12  C   UNL     1      34.189 -16.689 -25.035  0.00  0.00    +0.339 C 
BRANCH  12  13
ATOM     13  O   UNL     1      35.465 -17.142 -24.932  0.00  0.00    -0.477 OA
ATOM     14  H   UNL     1      36.181 -16.587 -25.171  0.00  0.00    +0.295 HD
ENDBRANCH  12  13
ENDBRANCH   7  12
BRANCH   9  15
ATOM     15  N   UNL     1      33.875 -17.460 -22.319  0.00  0.00    -0.215 N 
ATOM     16  H   UNL     1      33.175 -18.115 -22.544  0.00  0.00    +0.174 HD
BRANCH  15  17
ATOM     17  S   UNL     1      35.289 -17.944 -21.465  0.00  0.00    +0.074 S 
ATOM     18  O   UNL     1      36.331 -18.265 -22.423  0.00  0.00    -0.150 OA
ATOM     19  O   UNL     1      35.563 -17.012 -20.388  0.00  0.00    -0.150 OA
BRANCH  17  20
ATOM     20  C   UNL     1      34.772 -19.473 -20.738  0.00  0.00    +0.125 C 
ATOM     21  C   UNL     1      33.421 -19.762 -20.668  0.00  0.00    +0.020 C 
ATOM     22  C   UNL     1      35.728 -20.347 -20.257  0.00  0.00    +0.020 C 
ATOM     23  C   UNL     1      33.013 -20.966 -20.094  0.00  0.00    +0.001 C 
ATOM     24  C   UNL     1      35.321 -21.552 -19.683  0.00  0.00    +0.001 C 
ATOM     25  C   UNL     1      33.963 -21.861 -19.603  0.00  0.00    +0.000 C 
ENDBRANCH  17  20
ENDBRANCH  15  17
ENDBRANCH   9  15
TORSDOF 5
ENDMDL
MODEL 5
REMARK VINA RESULT:     -10.3     11.334     14.664
REMARK  Name = 6102685
REMARK  5 active torsions:
REMARK  status: ('A' for Active; 'I' for Inactive)
REMARK    1  A    between atoms: C_7  and  C_12
REMARK    2  A    between atoms: C_9  and  N_15
REMARK    3  A    between atoms: C_12  and  O_13
REMARK    4  A    between atoms: N_15  and  S_17
REMARK    5  A    between atoms: S_17  and  C_20
REMARK                            x       y       z     vdW  Elec       q    Type
REMARK                         _______ _______ _______ _____ _____    ______ ____
ROOT
ATOM      1  C   UNL     1      34.141 -15.084 -22.305  0.00  0.00    +0.005 C 
ATOM      2  C   UNL     1      33.957 -13.970 -23.335  0.00  0.00    +0.026 C 
ATOM      3  C   UNL     1      32.818 -15.401 -21.622  0.00  0.00    +0.005 C 
ATOM      4  C   UNL     1      33.171 -12.797 -22.807  0.00  0.00    -0.019 C 
ATOM      5  C   UNL     1      32.306 -14.182 -20.857  0.00  0.00    +0.026 C 
ATOM      6  C   UNL     1      32.361 -12.908 -21.661  0.00  0.00    -0.026 C 
ATOM      7  C   UNL     1      33.206 -11.581 -23.509  0.00  0.00    +0.086 C 
ATOM      8  C   UNL     1      31.632 -11.793 -21.222  0.00  0.00    -0.003 C 
ATOM      9  C   UNL     1      32.469 -10.484 -23.067  0.00  0.00    +0.071 C 
ATOM     10  C   UNL     1      31.683 -10.588 -21.923  0.00  0.00    +0.016 C 
ENDROOT
BRANCH   7  12
ATOM     11  O   UNL     1      33.695 -11.891 -25.831  0.00  0.00    -0.245 OA
ATOM     12  C   UNL     1      34.006 -11.447 -24.726  0.00  0.00    +0.339 C 
BRANCH  12  13
ATOM     13  O   UNL     1      35.159 -10.763 -24.508  0.00  0.00    -0.477 OA
ATOM     14  H   UNL     1      35.723 -10.553 -25.225  0.00  0.00    +0.295 HD
ENDBRANCH  12  13
ENDBRANCH   7  12
BRANCH   9  15
ATOM     15  N   UNL     1      32.496  -9.238 -23.771  0.00  0.00    -0.215 N 
ATOM     16  H   UNL     1      31.976  -9.117 -24.598  0.00  0.00    +0.174 HD
BRANCH  15  17
ATOM     17  S   UNL     1      33.459  -7.956 -23.145  0.00  0.00    +0.074 S 
ATOM     18  O   UNL     1      32.977  -7.610 -21.820  0.00  0.00    -0.150 OA
ATOM     19  O   UNL     1      34.865  -8.244 -23.348  0.00  0.00    -0.150 OA
BRANCH  17  20
ATOM     20  C   UNL     1      33.022  -6.615 -24.215  0.00  0.00    +0.125 C 
ATOM     21  C   UNL     1      33.891  -6.251 -25.228  0.00  0.00    +0.020 C 
ATOM     22  C   UNL     1      31.822  -5.959 -24.016  0.00  0.00    +0.020 C 
ATOM     23  C   UNL     1      33.547  -5.194 -26.070  0.00  0.00    +0.001 C 
ATOM     24  C   UNL     1      31.477  -4.901 -24.859  0.00  0.00    +0.001 C 
ATOM     25  C   UNL     1      32.340  -4.520 -25.886  0.00  0.00    +0.000 C 
ENDBRANCH  17  20
ENDBRANCH  15  17
ENDBRANCH   9  15
TORSDOF 5
ENDMDL
MODEL 6
REMARK VINA RESULT:     -10.0      3.809      5.694
REMARK  Name = 6102685
REMARK  5 active torsions:
REMARK  status: ('A' for Active; 'I' for Inactive)
REMARK    1  A    between atoms: C_7  and  C_12
REMARK    2  A    between atoms: C_9  and  N_15
REMARK    3  A    between atoms: C_12  and  O_13
REMARK    4  A    between atoms: N_15  and  S_17
REMARK    5  A    between atoms: S_17  and  C_20
REMARK                            x       y       z     vdW  Elec       q    Type
REMARK                         _______ _______ _______ _____ _____    ______ ____
ROOT
ATOM      1  C   UNL     1      37.802 -22.402 -16.130  0.00  0.00    +0.005 C 
ATOM      2  C   UNL     1      36.845 -22.805 -15.010  0.00  0.00    +0.026 C 
ATOM      3  C   UNL     1      37.136 -21.402 -17.066  0.00  0.00    +0.005 C 
ATOM      4  C   UNL     1      35.465 -23.158 -15.504  0.00  0.00    -0.019 C 
ATOM      5  C   UNL     1      35.917 -22.029 -17.739  0.00  0.00    +0.026 C 
ATOM      6  C   UNL     1      35.014 -22.758 -16.776  0.00  0.00    -0.026 C 
ATOM      7  C   UNL     1      34.592 -23.854 -14.653  0.00  0.00    +0.086 C 
ATOM      8  C   UNL     1      33.713 -23.093 -17.183  0.00  0.00    -0.003 C 
ATOM      9  C   UNL     1      33.300 -24.171 -15.066  0.00  0.00    +0.071 C 
ATOM     10  C   UNL     1      32.860 -23.793 -16.331  0.00  0.00    +0.016 C 
ENDROOT
BRANCH   7  12
ATOM     11  O   UNL     1      35.815 -25.151 -13.057  0.00  0.00    -0.245 OA
ATOM     12  C   UNL     1      35.018 -24.247 -13.310  0.00  0.00    +0.339 C 
BRANCH  12  13
ATOM     13  O   UNL     1      34.431 -23.494 -12.345  0.00  0.00    -0.477 OA
ATOM     14  H   UNL     1      33.739 -22.903 -12.567  0.00  0.00    +0.295 HD
ENDBRANCH  12  13
ENDBRANCH   7  12
BRANCH   9  15
ATOM     15  N   UNL     1      32.400 -24.882 -14.209  0.00  0.00    -0.215 N 
ATOM     16  H   UNL     1      32.499 -25.852 -14.070  0.00  0.00    +0.174 HD
BRANCH  15  17
ATOM     17  S   UNL     1      31.138 -24.009 -13.428  0.00  0.00    +0.074 S 
ATOM     18  O   UNL     1      30.494 -24.878 -12.460  0.00  0.00    -0.150 OA
ATOM     19  O   UNL     1      31.617 -22.703 -13.019  0.00  0.00    -0.150 OA
BRANCH  17  20
ATOM     20  C   UNL     1      29.986 -23.771 -14.751  0.00  0.00    +0.125 C 
ATOM     21  C   UNL     1      29.466 -24.878 -15.399  0.00  0.00    +0.020 C 
ATOM     22  C   UNL     1      29.628 -22.485 -15.108  0.00  0.00    +0.020 C 
ATOM     23  C   UNL     1      28.559 -24.690 -16.441  0.00  0.00    +0.001 C 
ATOM     24  C   UNL     1      28.720 -22.297 -16.151  0.00  0.00    +0.001 C 
ATOM     25  C   UNL     1      28.185 -23.399 -16.816  0.00  0.00    +0.000 C 
ENDBRANCH  17  20
ENDBRANCH  15  17
ENDBRANCH   9  15
TORSDOF 5
ENDMDL
MODEL 7
REMARK VINA RESULT:     -10.0      9.055     11.891
REMARK  Name = 6102685
REMARK  5 active torsions:
REMARK  status: ('A' for Active; 'I' for Inactive)
REMARK    1  A    between atoms: C_7  and  C_12
REMARK    2  A    between atoms: C_9  and  N_15
REMARK    3  A    between atoms: C_12  and  O_13
REMARK    4  A    between atoms: N_15  and  S_17
REMARK    5  A    between atoms: S_17  and  C_20
REMARK                            x       y       z     vdW  Elec       q    Type
REMARK                         _______ _______ _______ _____ _____    ______ ____
ROOT
ATOM      1  C   UNL     1      35.683 -17.243 -23.242  0.00  0.00    +0.005 C 
ATOM      2  C   UNL     1      34.762 -16.147 -23.777  0.00  0.00    +0.026 C 
ATOM      3  C   UNL     1      34.912 -18.186 -22.327  0.00  0.00    +0.005 C 
ATOM      4  C   UNL     1      33.915 -15.507 -22.706  0.00  0.00    -0.019 C 
ATOM      5  C   UNL     1      34.380 -17.433 -21.110  0.00  0.00    +0.026 C 
ATOM      6  C   UNL     1      33.703 -16.132 -21.463  0.00  0.00    -0.026 C 
ATOM      7  C   UNL     1      33.279 -14.286 -22.979  0.00  0.00    +0.086 C 
ATOM      8  C   UNL     1      32.889 -15.506 -20.507  0.00  0.00    -0.003 C 
ATOM      9  C   UNL     1      32.465 -13.680 -22.023  0.00  0.00    +0.071 C 
ATOM     10  C   UNL     1      32.271 -14.288 -20.787  0.00  0.00    +0.016 C 
ENDROOT
BRANCH   7  12
ATOM     11  O   UNL     1      32.965 -14.028 -25.337  0.00  0.00    -0.245 OA
ATOM     12  C   UNL     1      33.447 -13.632 -24.276  0.00  0.00    +0.339 C 
BRANCH  12  13
ATOM     13  O   UNL     1      34.210 -12.511 -24.190  0.00  0.00    -0.477 OA
ATOM     14  H   UNL     1      35.144 -12.579 -24.180  0.00  0.00    +0.295 HD
ENDBRANCH  12  13
ENDBRANCH   7  12
BRANCH   9  15
ATOM     15  N   UNL     1      31.812 -12.433 -22.287  0.00  0.00    -0.215 N 
ATOM     16  H   UNL     1      31.608 -12.158 -23.210  0.00  0.00    +0.174 HD
BRANCH  15  17
ATOM     17  S   UNL     1      31.390 -11.424 -20.958  0.00  0.00    +0.074 S 
ATOM     18  O   UNL     1      29.949 -11.260 -20.930  0.00  0.00    -0.150 OA
ATOM     19  O   UNL     1      32.090 -11.856 -19.763  0.00  0.00    -0.150 OA
BRANCH  17  20
ATOM     20  C   UNL     1      32.074  -9.867 -21.450  0.00  0.00    +0.125 C 
ATOM     21  C   UNL     1      32.184  -8.854 -20.514  0.00  0.00    +0.020 C 
ATOM     22  C   UNL     1      32.483  -9.696 -22.759  0.00  0.00    +0.020 C 
ATOM     23  C   UNL     1      32.722  -7.627 -20.903  0.00  0.00    +0.001 C 
ATOM     24  C   UNL     1      33.022  -8.468 -23.148  0.00  0.00    +0.001 C 
ATOM     25  C   UNL     1      33.141  -7.434 -22.219  0.00  0.00    +0.000 C 
ENDBRANCH  17  20
ENDBRANCH  15  17
ENDBRANCH   9  15
TORSDOF 5
ENDMDL
MODEL 8
REMARK VINA RESULT:      -9.9     11.361     14.902
REMARK  Name = 6102685
REMARK  5 active torsions:
REMARK  status: ('A' for Active; 'I' for Inactive)
REMARK    1  A    between atoms: C_7  and  C_12
REMARK    2  A    between atoms: C_9  and  N_15
REMARK    3  A    between atoms: C_12  and  O_13
REMARK    4  A    between atoms: N_15  and  S_17
REMARK    5  A    between atoms: S_17  and  C_20
REMARK                            x       y       z     vdW  Elec       q    Type
REMARK                         _______ _______ _______ _____ _____    ______ ____
ROOT
ATOM      1  C   UNL     1      32.711 -14.942 -21.874  0.00  0.00    +0.005 C 
ATOM      2  C   UNL     1      32.396 -13.515 -21.427  0.00  0.00    +0.026 C 
ATOM      3  C   UNL     1      34.102 -15.010 -22.492  0.00  0.00    +0.005 C 
ATOM      4  C   UNL     1      32.722 -12.478 -22.472  0.00  0.00    -0.019 C 
ATOM      5  C   UNL     1      34.174 -14.136 -23.742  0.00  0.00    +0.026 C 
ATOM      6  C   UNL     1      33.593 -12.760 -23.542  0.00  0.00    -0.026 C 
ATOM      7  C   UNL     1      32.189 -11.186 -22.341  0.00  0.00    +0.086 C 
ATOM      8  C   UNL     1      33.882 -11.755 -24.477  0.00  0.00    -0.003 C 
ATOM      9  C   UNL     1      32.493 -10.195 -23.272  0.00  0.00    +0.071 C 
ATOM     10  C   UNL     1      33.337 -10.478 -24.341  0.00  0.00    +0.016 C 
ENDROOT
BRANCH   7  12
ATOM     11  O   UNL     1      31.614 -10.108 -20.284  0.00  0.00    -0.245 OA
ATOM     12  C   UNL     1      31.314 -10.852 -21.217  0.00  0.00    +0.339 C 
BRANCH  12  13
ATOM     13  O   UNL     1      30.105 -11.462 -21.311  0.00  0.00    -0.477 OA
ATOM     14  H   UNL     1      29.798 -11.773 -22.140  0.00  0.00    +0.295 HD
ENDBRANCH  12  13
ENDBRANCH   7  12
BRANCH   9  15
ATOM     15  N   UNL     1      31.955  -8.873 -23.153  0.00  0.00    -0.215 N 
ATOM     16  H   UNL     1      31.018  -8.689 -23.396  0.00  0.00    +0.174 HD
BRANCH  15  17
ATOM     17  S   UNL     1      32.977  -7.613 -22.577  0.00  0.00    +0.074 S 
ATOM     18  O   UNL     1      32.241  -6.815 -21.614  0.00  0.00    -0.150 OA
ATOM     19  O   UNL     1      34.278  -8.150 -22.226  0.00  0.00    -0.150 OA
BRANCH  17  20
ATOM     20  C   UNL     1      33.177  -6.615 -24.025  0.00  0.00    +0.125 C 
ATOM     21  C   UNL     1      32.162  -5.749 -24.391  0.00  0.00    +0.020 C 
ATOM     22  C   UNL     1      34.343  -6.721 -24.759  0.00  0.00    +0.020 C 
ATOM     23  C   UNL     1      32.320  -4.963 -25.532  0.00  0.00    +0.001 C 
ATOM     24  C   UNL     1      34.501  -5.934 -25.901  0.00  0.00    +0.001 C 
ATOM     25  C   UNL     1      33.490  -5.055 -26.287  0.00  0.00    +0.000 C 
ENDBRANCH  17  20
ENDBRANCH  15  17
ENDBRANCH   9  15
TORSDOF 5
ENDMDL
MODEL 9
REMARK VINA RESULT:      -9.9      3.067      5.144
REMARK  Name = 6102685
REMARK  5 active torsions:
REMARK  status: ('A' for Active; 'I' for Inactive)
REMARK    1  A    between atoms: C_7  and  C_12
REMARK    2  A    between atoms: C_9  and  N_15
REMARK    3  A    between atoms: C_12  and  O_13
REMARK    4  A    between atoms: N_15  and  S_17
REMARK    5  A    between atoms: S_17  and  C_20
REMARK                            x       y       z     vdW  Elec       q    Type
REMARK                         _______ _______ _______ _____ _____    ______ ____
ROOT
ATOM      1  C   UNL     1      34.116 -23.771 -16.231  0.00  0.00    +0.005 C 
ATOM      2  C   UNL     1      33.667 -22.807 -17.328  0.00  0.00    +0.026 C 
ATOM      3  C   UNL     1      35.175 -23.119 -15.351  0.00  0.00    +0.005 C 
ATOM      4  C   UNL     1      34.817 -22.136 -18.038  0.00  0.00    -0.019 C 
ATOM      5  C   UNL     1      36.419 -22.784 -16.172  0.00  0.00    +0.026 C 
ATOM      6  C   UNL     1      36.105 -22.092 -17.474  0.00  0.00    -0.026 C 
ATOM      7  C   UNL     1      34.580 -21.495 -19.264  0.00  0.00    +0.086 C 
ATOM      8  C   UNL     1      37.137 -21.438 -18.164  0.00  0.00    -0.003 C 
ATOM      9  C   UNL     1      35.612 -20.840 -19.934  0.00  0.00    +0.071 C 
ATOM     10  C   UNL     1      36.891 -20.813 -19.386  0.00  0.00    +0.016 C 
ENDROOT
BRANCH   7  12
ATOM     11  O   UNL     1      32.678 -22.470 -20.340  0.00  0.00    -0.245 OA
ATOM     12  C   UNL     1      33.242 -21.489 -19.856  0.00  0.00    +0.339 C 
BRANCH  12  13
ATOM     13  O   UNL     1      32.670 -20.258 -19.816  0.00  0.00    -0.477 OA
ATOM     14  H   UNL     1      31.909 -20.111 -19.291  0.00  0.00    +0.295 HD
ENDBRANCH  12  13
ENDBRANCH   7  12
BRANCH   9  15
ATOM     15  N   UNL     1      35.386 -20.183 -21.186  0.00  0.00    -0.215 N 
ATOM     16  H   UNL     1      34.849 -20.615 -21.890  0.00  0.00    +0.174 HD
BRANCH  15  17
ATOM     17  S   UNL     1      36.073 -18.625 -21.438  0.00  0.00    +0.074 S 
ATOM     18  O   UNL     1      35.580 -17.723 -20.413  0.00  0.00    -0.150 OA
ATOM     19  O   UNL     1      37.500 -18.742 -21.670  0.00  0.00    -0.150 OA
BRANCH  17  20
ATOM     20  C   UNL     1      35.316 -18.133 -22.960  0.00  0.00    +0.125 C 
ATOM     21  C   UNL     1      34.896 -19.107 -23.849  0.00  0.00    +0.020 C 
ATOM     22  C   UNL     1      35.161 -16.787 -23.231  0.00  0.00    +0.020 C 
ATOM     23  C   UNL     1      34.300 -18.719 -25.049  0.00  0.00    +0.001 C 
ATOM     24  C   UNL     1      34.565 -16.399 -24.432  0.00  0.00    +0.001 C 
ATOM     25  C   UNL     1      34.135 -17.365 -25.340  0.00  0.00    +0.000 C 
ENDBRANCH  17  20
ENDBRANCH  15  17
ENDBRANCH   9  15
TORSDOF 5
ENDMDL
