MODEL 1
REMARK VINA RESULT:      -6.9      0.000      0.000
REMARK  Name = 5289290
REMARK  7 active torsions:
REMARK  status: ('A' for Active; 'I' for Inactive)
REMARK    1  A    between atoms: C_1  and  C_4
REMARK    2  A    between atoms: C_1  and  C_7
REMARK    3  A    between atoms: C_1  and  C_11
REMARK    4  A    between atoms: C_11  and  C_14
REMARK    5  A    between atoms: N_13  and  C_16
REMARK    6  A    between atoms: C_16  and  C_17
REMARK    7  A    between atoms: C_16  and  C_19
REMARK                            x       y       z     vdW  Elec       q    Type
REMARK                         _______ _______ _______ _____ _____    ______ ____
ROOT
ATOM      1  C   UNL     1      32.883 -23.931 -16.181  0.00  0.00    +0.085 C 
ENDROOT
BRANCH   1   4
ATOM      2  O   UNL     1      35.160 -24.692 -15.752  0.00  0.00    -0.275 OA
ATOM      3  N   UNL     1      34.544 -22.629 -14.958  0.00  0.00    -0.329 N 
ATOM      4  C   UNL     1      34.308 -23.816 -15.619  0.00  0.00    +0.219 C 
ATOM      5  H   UNL     1      35.428 -22.456 -14.560  0.00  0.00    +0.145 HD
ATOM      6  H   UNL     1      33.829 -21.957 -14.883  0.00  0.00    +0.145 HD
ENDBRANCH   1   4
BRANCH   1   7
ATOM      7  C   UNL     1      31.810 -23.983 -15.032  0.00  0.00    +0.009 C 
ATOM      8  C   UNL     1      31.465 -22.584 -14.487  0.00  0.00    +0.000 C 
ATOM      9  C   UNL     1      30.509 -24.631 -15.555  0.00  0.00    +0.000 C 
ATOM     10  C   UNL     1      32.304 -24.855 -13.857  0.00  0.00    +0.000 C 
ENDBRANCH   1   7
BRANCH   1  11
ATOM     11  C   UNL     1      32.665 -22.786 -17.194  0.00  0.00    +0.094 C 
BRANCH  11  14
ATOM     12  O   UNL     1      33.755 -23.913 -19.047  0.00  0.00    -0.275 OA
ATOM     13  N   UNL     1      34.161 -21.652 -18.702  0.00  0.00    -0.306 N 
ATOM     14  C   UNL     1      33.578 -22.878 -18.410  0.00  0.00    +0.223 C 
ATOM     15  H   UNL     1      33.952 -20.882 -18.125  0.00  0.00    +0.149 HD
BRANCH  13  16
ATOM     16  C   UNL     1      35.062 -21.460 -19.815  0.00  0.00    +0.072 C 
BRANCH  16  17
ATOM     17  C   UNL     1      36.509 -21.316 -19.321  0.00  0.00    +0.020 C 
ATOM     18  C   UNL     1      36.671 -21.672 -17.849  0.00  0.00    +0.002 C 
ENDBRANCH  16  17
BRANCH  16  19
ATOM     19  C   UNL     1      34.651 -20.229 -20.638  0.00  0.00    +0.020 C 
ATOM     20  C   UNL     1      33.143 -20.020 -20.676  0.00  0.00    +0.002 C 
ENDBRANCH  16  19
ENDBRANCH  13  16
ENDBRANCH  11  14
ENDBRANCH   1  11
TORSDOF 7
ENDMDL
MODEL 2
REMARK VINA RESULT:      -6.7      3.439      5.977
REMARK  Name = 5289290
REMARK  7 active torsions:
REMARK  status: ('A' for Active; 'I' for Inactive)
REMARK    1  A    between atoms: C_1  and  C_4
REMARK    2  A    between atoms: C_1  and  C_7
REMARK    3  A    between atoms: C_1  and  C_11
REMARK    4  A    between atoms: C_11  and  C_14
REMARK    5  A    between atoms: N_13  and  C_16
REMARK    6  A    between atoms: C_16  and  C_17
REMARK    7  A    between atoms: C_16  and  C_19
REMARK                            x       y       z     vdW  Elec       q    Type
REMARK                         _______ _______ _______ _____ _____    ______ ____
ROOT
ATOM      1  C   UNL     1      36.160 -25.053 -14.306  0.00  0.00    +0.085 C 
ENDROOT
BRANCH   1   4
ATOM      2  O   UNL     1      36.405 -26.805 -15.985  0.00  0.00    -0.275 OA
ATOM      3  N   UNL     1      37.059 -27.271 -13.835  0.00  0.00    -0.329 N 
ATOM      4  C   UNL     1      36.541 -26.451 -14.815  0.00  0.00    +0.219 C 
ATOM      5  H   UNL     1      37.335 -28.190 -14.059  0.00  0.00    +0.145 HD
ATOM      6  H   UNL     1      37.153 -26.939 -12.914  0.00  0.00    +0.145 HD
ENDBRANCH   1   4
BRANCH   1   7
ATOM      7  C   UNL     1      37.368 -24.052 -14.405  0.00  0.00    +0.009 C 
ATOM      8  C   UNL     1      37.197 -23.035 -15.550  0.00  0.00    +0.000 C 
ATOM      9  C   UNL     1      37.513 -23.268 -13.081  0.00  0.00    +0.000 C 
ATOM     10  C   UNL     1      38.696 -24.811 -14.624  0.00  0.00    +0.000 C 
ENDBRANCH   1   7
BRANCH   1  11
ATOM     11  C   UNL     1      34.895 -24.589 -15.061  0.00  0.00    +0.094 C 
BRANCH  11  14
ATOM     12  O   UNL     1      33.858 -24.129 -12.914  0.00  0.00    -0.275 OA
ATOM     13  N   UNL     1      32.569 -24.006 -14.842  0.00  0.00    -0.306 N 
ATOM     14  C   UNL     1      33.742 -24.225 -14.134  0.00  0.00    +0.223 C 
ATOM     15  H   UNL     1      32.584 -24.109 -15.820  0.00  0.00    +0.149 HD
BRANCH  13  16
ATOM     16  C   UNL     1      31.328 -23.634 -14.204  0.00  0.00    +0.072 C 
BRANCH  16  17
ATOM     17  C   UNL     1      30.585 -24.880 -13.698  0.00  0.00    +0.020 C 
ATOM     18  C   UNL     1      29.621 -25.453 -14.730  0.00  0.00    +0.002 C 
ENDBRANCH  16  17
BRANCH  16  19
ATOM     19  C   UNL     1      30.439 -22.835 -15.170  0.00  0.00    +0.020 C 
ATOM     20  C   UNL     1      31.015 -22.761 -16.578  0.00  0.00    +0.002 C 
ENDBRANCH  16  19
ENDBRANCH  13  16
ENDBRANCH  11  14
ENDBRANCH   1  11
TORSDOF 7
ENDMDL
MODEL 3
REMARK VINA RESULT:      -6.7      1.585      2.238
REMARK  Name = 5289290
REMARK  7 active torsions:
REMARK  status: ('A' for Active; 'I' for Inactive)
REMARK    1  A    between atoms: C_1  and  C_4
REMARK    2  A    between atoms: C_1  and  C_7
REMARK    3  A    between atoms: C_1  and  C_11
REMARK    4  A    between atoms: C_11  and  C_14
REMARK    5  A    between atoms: N_13  and  C_16
REMARK    6  A    between atoms: C_16  and  C_17
REMARK    7  A    between atoms: C_16  and  C_19
REMARK                            x       y       z     vdW  Elec       q    Type
REMARK                         _______ _______ _______ _____ _____    ______ ____
ROOT
ATOM      1  C   UNL     1      31.112 -23.873 -15.953  0.00  0.00    +0.085 C 
ENDROOT
BRANCH   1   4
ATOM      2  O   UNL     1      32.422 -24.880 -14.160  0.00  0.00    -0.275 OA
ATOM      3  N   UNL     1      32.099 -22.609 -14.116  0.00  0.00    -0.329 N 
ATOM      4  C   UNL     1      31.940 -23.865 -14.660  0.00  0.00    +0.219 C 
ATOM      5  H   UNL     1      32.615 -22.495 -13.284  0.00  0.00    +0.145 HD
ATOM      6  H   UNL     1      31.698 -21.826 -14.558  0.00  0.00    +0.145 HD
ENDBRANCH   1   4
BRANCH   1   7
ATOM      7  C   UNL     1      29.570 -23.940 -15.654  0.00  0.00    +0.009 C 
ATOM      8  C   UNL     1      29.225 -24.980 -14.571  0.00  0.00    +0.000 C 
ATOM      9  C   UNL     1      29.065 -22.560 -15.175  0.00  0.00    +0.000 C 
ATOM     10  C   UNL     1      28.775 -24.288 -16.932  0.00  0.00    +0.000 C 
ENDBRANCH   1   7
BRANCH   1  11
ATOM     11  C   UNL     1      31.534 -22.658 -16.808  0.00  0.00    +0.094 C 
BRANCH  11  14
ATOM     12  O   UNL     1      33.482 -23.914 -17.526  0.00  0.00    -0.275 OA
ATOM     13  N   UNL     1      32.982 -21.905 -18.578  0.00  0.00    -0.306 N 
ATOM     14  C   UNL     1      32.774 -22.919 -17.653  0.00  0.00    +0.223 C 
ATOM     15  H   UNL     1      32.353 -21.149 -18.597  0.00  0.00    +0.149 HD
BRANCH  13  16
ATOM     16  C   UNL     1      34.083 -21.914 -19.513  0.00  0.00    +0.072 C 
BRANCH  16  17
ATOM     17  C   UNL     1      35.426 -21.911 -18.767  0.00  0.00    +0.020 C 
ATOM     18  C   UNL     1      36.527 -21.188 -19.534  0.00  0.00    +0.002 C 
ENDBRANCH  16  17
BRANCH  16  19
ATOM     19  C   UNL     1      33.996 -20.710 -20.465  0.00  0.00    +0.020 C 
ATOM     20  C   UNL     1      32.664 -19.979 -20.371  0.00  0.00    +0.002 C 
ENDBRANCH  16  19
ENDBRANCH  13  16
ENDBRANCH  11  14
ENDBRANCH   1  11
TORSDOF 7
ENDMDL
MODEL 4
REMARK VINA RESULT:      -6.7      7.038      9.690
REMARK  Name = 5289290
REMARK  7 active torsions:
REMARK  status: ('A' for Active; 'I' for Inactive)
REMARK    1  A    between atoms: C_1  and  C_4
REMARK    2  A    between atoms: C_1  and  C_7
REMARK    3  A    between atoms: C_1  and  C_11
REMARK    4  A    between atoms: C_11  and  C_14
REMARK    5  A    between atoms: N_13  and  C_16
REMARK    6  A    between atoms: C_16  and  C_17
REMARK    7  A    between atoms: C_16  and  C_19
REMARK                            x       y       z     vdW  Elec       q    Type
REMARK                         _______ _______ _______ _____ _____    ______ ____
ROOT
ATOM      1  C   UNL     1      34.132 -17.290 -22.518  0.00  0.00    +0.085 C 
ENDROOT
BRANCH   1   4
ATOM      2  O   UNL     1      35.512 -15.529 -23.487  0.00  0.00    -0.275 OA
ATOM      3  N   UNL     1      34.277 -16.838 -24.910  0.00  0.00    -0.329 N 
ATOM      4  C   UNL     1      34.718 -16.452 -23.662  0.00  0.00    +0.219 C 
ATOM      5  H   UNL     1      34.594 -16.363 -25.712  0.00  0.00    +0.145 HD
ATOM      6  H   UNL     1      33.645 -17.588 -24.998  0.00  0.00    +0.145 HD
ENDBRANCH   1   4
BRANCH   1   7
ATOM      7  C   UNL     1      34.913 -18.642 -22.330  0.00  0.00    +0.009 C 
ATOM      8  C   UNL     1      36.362 -18.423 -21.856  0.00  0.00    +0.000 C 
ATOM      9  C   UNL     1      34.193 -19.528 -21.289  0.00  0.00    +0.000 C 
ATOM     10  C   UNL     1      34.950 -19.444 -23.651  0.00  0.00    +0.000 C 
ENDBRANCH   1   7
BRANCH   1  11
ATOM     11  C   UNL     1      34.081 -16.413 -21.248  0.00  0.00    +0.094 C 
BRANCH  11  14
ATOM     12  O   UNL     1      31.751 -15.929 -20.770  0.00  0.00    -0.275 OA
ATOM     13  N   UNL     1      33.107 -14.240 -21.608  0.00  0.00    -0.306 N 
ATOM     14  C   UNL     1      32.841 -15.532 -21.175  0.00  0.00    +0.223 C 
ATOM     15  H   UNL     1      34.017 -14.025 -21.914  0.00  0.00    +0.149 HD
BRANCH  13  16
ATOM     16  C   UNL     1      32.105 -13.200 -21.629  0.00  0.00    +0.072 C 
BRANCH  16  17
ATOM     17  C   UNL     1      32.399 -12.187 -22.746  0.00  0.00    +0.020 C 
ATOM     18  C   UNL     1      33.525 -12.636 -23.670  0.00  0.00    +0.002 C 
ENDBRANCH  16  17
BRANCH  16  19
ATOM     19  C   UNL     1      32.032 -12.490 -20.267  0.00  0.00    +0.020 C 
ATOM     20  C   UNL     1      31.314 -11.149 -20.339  0.00  0.00    +0.002 C 
ENDBRANCH  16  19
ENDBRANCH  13  16
ENDBRANCH  11  14
ENDBRANCH   1  11
TORSDOF 7
ENDMDL
MODEL 5
REMARK VINA RESULT:      -6.7      7.396     10.232
REMARK  Name = 5289290
REMARK  7 active torsions:
REMARK  status: ('A' for Active; 'I' for Inactive)
REMARK    1  A    between atoms: C_1  and  C_4
REMARK    2  A    between atoms: C_1  and  C_7
REMARK    3  A    between atoms: C_1  and  C_11
REMARK    4  A    between atoms: C_11  and  C_14
REMARK    5  A    between atoms: N_13  and  C_16
REMARK    6  A    between atoms: C_16  and  C_17
REMARK    7  A    between atoms: C_16  and  C_19
REMARK                            x       y       z     vdW  Elec       q    Type
REMARK                         _______ _______ _______ _____ _____    ______ ____
ROOT
ATOM      1  C   UNL     1      34.333 -17.045 -23.222  0.00  0.00    +0.085 C 
ENDROOT
BRANCH   1   4
ATOM      2  O   UNL     1      34.280 -19.027 -24.641  0.00  0.00    -0.275 OA
ATOM      3  N   UNL     1      35.222 -17.115 -25.492  0.00  0.00    -0.329 N 
ATOM      4  C   UNL     1      34.599 -17.847 -24.504  0.00  0.00    +0.219 C 
ATOM      5  H   UNL     1      35.437 -17.538 -26.355  0.00  0.00    +0.145 HD
ATOM      6  H   UNL     1      35.451 -16.171 -25.335  0.00  0.00    +0.145 HD
ENDBRANCH   1   4
BRANCH   1   7
ATOM      7  C   UNL     1      34.917 -17.768 -21.954  0.00  0.00    +0.009 C 
ATOM      8  C   UNL     1      36.331 -18.328 -22.195  0.00  0.00    +0.000 C 
ATOM      9  C   UNL     1      34.985 -16.780 -20.768  0.00  0.00    +0.000 C 
ATOM     10  C   UNL     1      34.001 -18.932 -21.514  0.00  0.00    +0.000 C 
ENDBRANCH   1   7
BRANCH   1  11
ATOM     11  C   UNL     1      34.864 -15.610 -23.427  0.00  0.00    +0.094 C 
BRANCH  11  14
ATOM     12  O   UNL     1      33.115 -14.795 -24.900  0.00  0.00    -0.275 OA
ATOM     13  N   UNL     1      33.674 -13.557 -23.017  0.00  0.00    -0.306 N 
ATOM     14  C   UNL     1      33.791 -14.631 -23.888  0.00  0.00    +0.223 C 
ATOM     15  H   UNL     1      34.267 -13.520 -22.232  0.00  0.00    +0.149 HD
BRANCH  13  16
ATOM     16  C   UNL     1      32.721 -12.490 -23.215  0.00  0.00    +0.072 C 
BRANCH  16  17
ATOM     17  C   UNL     1      33.434 -11.200 -23.646  0.00  0.00    +0.020 C 
ATOM     18  C   UNL     1      34.053 -11.302 -25.035  0.00  0.00    +0.002 C 
ENDBRANCH  16  17
BRANCH  16  19
ATOM     19  C   UNL     1      31.904 -12.248 -21.935  0.00  0.00    +0.020 C 
ATOM     20  C   UNL     1      32.271 -13.207 -20.810  0.00  0.00    +0.002 C 
ENDBRANCH  16  19
ENDBRANCH  13  16
ENDBRANCH  11  14
ENDBRANCH   1  11
TORSDOF 7
ENDMDL
MODEL 6
REMARK VINA RESULT:      -6.6      2.431      3.429
REMARK  Name = 5289290
REMARK  7 active torsions:
REMARK  status: ('A' for Active; 'I' for Inactive)
REMARK    1  A    between atoms: C_1  and  C_4
REMARK    2  A    between atoms: C_1  and  C_7
REMARK    3  A    between atoms: C_1  and  C_11
REMARK    4  A    between atoms: C_11  and  C_14
REMARK    5  A    between atoms: N_13  and  C_16
REMARK    6  A    between atoms: C_16  and  C_17
REMARK    7  A    between atoms: C_16  and  C_19
REMARK                            x       y       z     vdW  Elec       q    Type
REMARK                         _______ _______ _______ _____ _____    ______ ____
ROOT
ATOM      1  C   UNL     1      31.001 -23.149 -15.599  0.00  0.00    +0.085 C 
ENDROOT
BRANCH   1   4
ATOM      2  O   UNL     1      28.910 -21.979 -15.145  0.00  0.00    -0.275 OA
ATOM      3  N   UNL     1      29.129 -23.055 -17.160  0.00  0.00    -0.329 N 
ATOM      4  C   UNL     1      29.580 -22.661 -15.918  0.00  0.00    +0.219 C 
ATOM      5  H   UNL     1      28.229 -22.793 -17.462  0.00  0.00    +0.145 HD
ATOM      6  H   UNL     1      29.707 -23.597 -17.744  0.00  0.00    +0.145 HD
ENDBRANCH   1   4
BRANCH   1   7
ATOM      7  C   UNL     1      31.005 -24.189 -14.419  0.00  0.00    +0.009 C 
ATOM      8  C   UNL     1      32.396 -24.807 -14.184  0.00  0.00    +0.000 C 
ATOM      9  C   UNL     1      30.554 -23.503 -13.110  0.00  0.00    +0.000 C 
ATOM     10  C   UNL     1      30.004 -25.334 -14.691  0.00  0.00    +0.000 C 
ENDBRANCH   1   7
BRANCH   1  11
ATOM     11  C   UNL     1      31.638 -23.677 -16.903  0.00  0.00    +0.094 C 
BRANCH  11  14
ATOM     12  O   UNL     1      33.913 -22.846 -16.729  0.00  0.00    -0.275 OA
ATOM     13  N   UNL     1      32.604 -22.189 -18.532  0.00  0.00    -0.306 N 
ATOM     14  C   UNL     1      32.851 -22.870 -17.348  0.00  0.00    +0.223 C 
ATOM     15  H   UNL     1      31.716 -22.275 -18.947  0.00  0.00    +0.149 HD
BRANCH  13  16
ATOM     16  C   UNL     1      33.593 -21.358 -19.177  0.00  0.00    +0.072 C 
BRANCH  16  17
ATOM     17  C   UNL     1      32.974 -20.602 -20.363  0.00  0.00    +0.020 C 
ATOM     18  C   UNL     1      33.939 -19.609 -20.999  0.00  0.00    +0.002 C 
ENDBRANCH  16  17
BRANCH  16  19
ATOM     19  C   UNL     1      34.789 -22.203 -19.646  0.00  0.00    +0.020 C 
ATOM     20  C   UNL     1      36.121 -21.678 -19.128  0.00  0.00    +0.002 C 
ENDBRANCH  16  19
ENDBRANCH  13  16
ENDBRANCH  11  14
ENDBRANCH   1  11
TORSDOF 7
ENDMDL
MODEL 7
REMARK VINA RESULT:      -6.6      3.220      5.004
REMARK  Name = 5289290
REMARK  7 active torsions:
REMARK  status: ('A' for Active; 'I' for Inactive)
REMARK    1  A    between atoms: C_1  and  C_4
REMARK    2  A    between atoms: C_1  and  C_7
REMARK    3  A    between atoms: C_1  and  C_11
REMARK    4  A    between atoms: C_11  and  C_14
REMARK    5  A    between atoms: N_13  and  C_16
REMARK    6  A    between atoms: C_16  and  C_17
REMARK    7  A    between atoms: C_16  and  C_19
REMARK                            x       y       z     vdW  Elec       q    Type
REMARK                         _______ _______ _______ _____ _____    ______ ____
ROOT
ATOM      1  C   UNL     1      36.692 -25.079 -14.386  0.00  0.00    +0.085 C 
ENDROOT
BRANCH   1   4
ATOM      2  O   UNL     1      38.469 -26.661 -14.917  0.00  0.00    -0.275 OA
ATOM      3  N   UNL     1      36.318 -27.228 -15.476  0.00  0.00    -0.329 N 
ATOM      4  C   UNL     1      37.272 -26.386 -14.945  0.00  0.00    +0.219 C 
ATOM      5  H   UNL     1      36.586 -28.094 -15.862  0.00  0.00    +0.145 HD
ATOM      6  H   UNL     1      35.370 -26.964 -15.470  0.00  0.00    +0.145 HD
ENDBRANCH   1   4
BRANCH   1   7
ATOM      7  C   UNL     1      36.913 -24.964 -12.833  0.00  0.00    +0.009 C 
ATOM      8  C   UNL     1      37.179 -26.331 -12.175  0.00  0.00    +0.000 C 
ATOM      9  C   UNL     1      38.118 -24.044 -12.538  0.00  0.00    +0.000 C 
ATOM     10  C   UNL     1      35.684 -24.326 -12.148  0.00  0.00    +0.000 C 
ENDBRANCH   1   7
BRANCH   1  11
ATOM     11  C   UNL     1      37.280 -23.901 -15.193  0.00  0.00    +0.094 C 
BRANCH  11  14
ATOM     12  O   UNL     1      36.457 -21.951 -16.381  0.00  0.00    -0.275 OA
ATOM     13  N   UNL     1      34.964 -23.628 -15.790  0.00  0.00    -0.306 N 
ATOM     14  C   UNL     1      36.216 -23.033 -15.853  0.00  0.00    +0.223 C 
ATOM     15  H   UNL     1      34.879 -24.500 -15.343  0.00  0.00    +0.149 HD
BRANCH  13  16
ATOM     16  C   UNL     1      33.780 -23.020 -16.353  0.00  0.00    +0.072 C 
BRANCH  16  17
ATOM     17  C   UNL     1      32.539 -23.380 -15.522  0.00  0.00    +0.020 C 
ATOM     18  C   UNL     1      31.234 -23.067 -16.243  0.00  0.00    +0.002 C 
ENDBRANCH  16  17
BRANCH  16  19
ATOM     19  C   UNL     1      33.591 -23.454 -17.815  0.00  0.00    +0.020 C 
ATOM     20  C   UNL     1      33.859 -22.328 -18.805  0.00  0.00    +0.002 C 
ENDBRANCH  16  19
ENDBRANCH  13  16
ENDBRANCH  11  14
ENDBRANCH   1  11
TORSDOF 7
ENDMDL
MODEL 8
REMARK VINA RESULT:      -6.6      3.331      5.788
REMARK  Name = 5289290
REMARK  7 active torsions:
REMARK  status: ('A' for Active; 'I' for Inactive)
REMARK    1  A    between atoms: C_1  and  C_4
REMARK    2  A    between atoms: C_1  and  C_7
REMARK    3  A    between atoms: C_1  and  C_11
REMARK    4  A    between atoms: C_11  and  C_14
REMARK    5  A    between atoms: N_13  and  C_16
REMARK    6  A    between atoms: C_16  and  C_17
REMARK    7  A    between atoms: C_16  and  C_19
REMARK                            x       y       z     vdW  Elec       q    Type
REMARK                         _______ _______ _______ _____ _____    ______ ____
ROOT
ATOM      1  C   UNL     1      36.496 -24.395 -14.006  0.00  0.00    +0.085 C 
ENDROOT
BRANCH   1   4
ATOM      2  O   UNL     1      38.531 -23.660 -15.130  0.00  0.00    -0.275 OA
ATOM      3  N   UNL     1      37.919 -25.862 -15.338  0.00  0.00    -0.329 N 
ATOM      4  C   UNL     1      37.749 -24.574 -14.876  0.00  0.00    +0.219 C 
ATOM      5  H   UNL     1      38.693 -26.082 -15.905  0.00  0.00    +0.145 HD
ATOM      6  H   UNL     1      37.266 -26.560 -15.102  0.00  0.00    +0.145 HD
ENDBRANCH   1   4
BRANCH   1   7
ATOM      7  C   UNL     1      36.855 -24.344 -12.476  0.00  0.00    +0.009 C 
ATOM      8  C   UNL     1      37.957 -25.351 -12.097  0.00  0.00    +0.000 C 
ATOM      9  C   UNL     1      37.342 -22.929 -12.096  0.00  0.00    +0.000 C 
ATOM     10  C   UNL     1      35.610 -24.637 -11.609  0.00  0.00    +0.000 C 
ENDBRANCH   1   7
BRANCH   1  11
ATOM     11  C   UNL     1      35.725 -23.156 -14.512  0.00  0.00    +0.094 C 
BRANCH  11  14
ATOM     12  O   UNL     1      34.453 -23.614 -16.529  0.00  0.00    -0.275 OA
ATOM     13  N   UNL     1      33.382 -23.708 -14.470  0.00  0.00    -0.306 N 
ATOM     14  C   UNL     1      34.473 -23.509 -15.305  0.00  0.00    +0.223 C 
ATOM     15  H   UNL     1      33.505 -23.599 -13.500  0.00  0.00    +0.149 HD
BRANCH  13  16
ATOM     16  C   UNL     1      32.073 -24.065 -14.966  0.00  0.00    +0.072 C 
BRANCH  16  17
ATOM     17  C   UNL     1      31.201 -22.813 -15.147  0.00  0.00    +0.020 C 
ATOM     18  C   UNL     1      30.663 -22.666 -16.564  0.00  0.00    +0.002 C 
ENDBRANCH  16  17
BRANCH  16  19
ATOM     19  C   UNL     1      31.388 -25.063 -14.019  0.00  0.00    +0.020 C 
ATOM     20  C   UNL     1      30.010 -25.491 -14.507  0.00  0.00    +0.002 C 
ENDBRANCH  16  19
ENDBRANCH  13  16
ENDBRANCH  11  14
ENDBRANCH   1  11
TORSDOF 7
ENDMDL
MODEL 9
REMARK VINA RESULT:      -6.5      3.288      5.305
REMARK  Name = 5289290
REMARK  7 active torsions:
REMARK  status: ('A' for Active; 'I' for Inactive)
REMARK    1  A    between atoms: C_1  and  C_4
REMARK    2  A    between atoms: C_1  and  C_7
REMARK    3  A    between atoms: C_1  and  C_11
REMARK    4  A    between atoms: C_11  and  C_14
REMARK    5  A    between atoms: N_13  and  C_16
REMARK    6  A    between atoms: C_16  and  C_17
REMARK    7  A    between atoms: C_16  and  C_19
REMARK                            x       y       z     vdW  Elec       q    Type
REMARK                         _______ _______ _______ _____ _____    ______ ____
ROOT
ATOM      1  C   UNL     1      37.045 -24.022 -13.666  0.00  0.00    +0.085 C 
ENDROOT
BRANCH   1   4
ATOM      2  O   UNL     1      38.249 -22.680 -12.024  0.00  0.00    -0.275 OA
ATOM      3  N   UNL     1      36.135 -23.395 -11.492  0.00  0.00    -0.329 N 
ATOM      4  C   UNL     1      37.229 -23.297 -12.325  0.00  0.00    +0.219 C 
ATOM      5  H   UNL     1      36.151 -22.964 -10.606  0.00  0.00    +0.145 HD
ATOM      6  H   UNL     1      35.339 -23.896 -11.781  0.00  0.00    +0.145 HD
ENDBRANCH   1   4
BRANCH   1   7
ATOM      7  C   UNL     1      37.868 -25.361 -13.718  0.00  0.00    +0.009 C 
ATOM      8  C   UNL     1      37.872 -26.102 -12.367  0.00  0.00    +0.000 C 
ATOM      9  C   UNL     1      37.271 -26.306 -14.784  0.00  0.00    +0.000 C 
ATOM     10  C   UNL     1      39.333 -25.091 -14.128  0.00  0.00    +0.000 C 
ENDBRANCH   1   7
BRANCH   1  11
ATOM     11  C   UNL     1      35.532 -24.205 -13.917  0.00  0.00    +0.094 C 
BRANCH  11  14
ATOM     12  O   UNL     1      35.612 -22.333 -15.461  0.00  0.00    -0.275 OA
ATOM     13  N   UNL     1      33.728 -23.691 -15.426  0.00  0.00    -0.306 N 
ATOM     14  C   UNL     1      34.990 -23.292 -15.009  0.00  0.00    +0.223 C 
ATOM     15  H   UNL     1      33.317 -24.475 -14.997  0.00  0.00    +0.149 HD
BRANCH  13  16
ATOM     16  C   UNL     1      32.993 -23.003 -16.462  0.00  0.00    +0.072 C 
BRANCH  16  17
ATOM     17  C   UNL     1      31.484 -23.251 -16.312  0.00  0.00    +0.020 C 
ATOM     18  C   UNL     1      30.948 -22.829 -14.950  0.00  0.00    +0.002 C 
ENDBRANCH  16  17
BRANCH  16  19
ATOM     19  C   UNL     1      33.473 -23.446 -17.854  0.00  0.00    +0.020 C 
ATOM     20  C   UNL     1      33.756 -22.272 -18.782  0.00  0.00    +0.002 C 
ENDBRANCH  16  19
ENDBRANCH  13  16
ENDBRANCH  11  14
ENDBRANCH   1  11
TORSDOF 7
ENDMDL
