MODEL 1
REMARK VINA RESULT:      -9.8      0.000      0.000
REMARK  Name = 6603901
REMARK  14 active torsions:
REMARK  status: ('A' for Active; 'I' for Inactive)
REMARK    1  A    between atoms: C_1  and  O_2
REMARK    2  A    between atoms: C_1  and  C_17
REMARK    3  A    between atoms: O_2  and  C_4
REMARK    4  A    between atoms: C_3  and  C_14
REMARK    5  A    between atoms: C_5  and  O_12
REMARK    6  A    between atoms: C_6  and  C_10
REMARK    7  A    between atoms: C_14  and  C_15
REMARK    8  A    between atoms: C_17  and  C_18
REMARK    9  A    between atoms: C_18  and  O_19
REMARK   10  A    between atoms: O_19  and  C_20
REMARK   11  A    between atoms: C_23  and  O_26
REMARK   12  A    between atoms: O_26  and  C_27
REMARK   13  A    between atoms: C_27  and  C_29
REMARK   14  A    between atoms: C_29  and  O_30
REMARK                            x       y       z     vdW  Elec       q    Type
REMARK                         _______ _______ _______ _____ _____    ______ ____
ROOT
ATOM      1  C   UNL     1      33.473 -22.954 -17.109  0.00  0.00    +0.209 C 
ENDROOT
BRANCH   1   2
ATOM      2  O   UNL     1      34.225 -23.117 -18.304  0.00  0.00    -0.476 OA
BRANCH   2   4
ATOM      3  C   UNL     1      35.604 -21.397 -19.248  0.00  0.00    +0.045 C 
ATOM      4  C   UNL     1      34.365 -22.012 -19.102  0.00  0.00    +0.137 C 
ATOM      5  C   UNL     1      35.726 -20.272 -20.064  0.00  0.00    +0.135 C 
ATOM      6  C   UNL     1      34.609 -19.768 -20.728  0.00  0.00    +0.068 C 
ATOM      7  C   UNL     1      33.246 -21.514 -19.763  0.00  0.00    +0.037 C 
ATOM      8  C   UNL     1      33.369 -20.389 -20.578  0.00  0.00    +0.009 C 
BRANCH   6  10
ATOM      9  O   UNL     1      34.852 -17.453 -21.109  0.00  0.00    -0.291 OA
ATOM     10  C   UNL     1      34.712 -18.595 -21.586  0.00  0.00    +0.176 C 
ATOM     11  C   UNL     1      34.648 -18.746 -23.101  0.00  0.00    +0.077 C 
ENDBRANCH   6  10
BRANCH   5  12
ATOM     12  O   UNL     1      36.940 -19.666 -20.210  0.00  0.00    -0.506 OA
ATOM     13  H   UNL     1      37.715 -20.185 -20.304  0.00  0.00    +0.292 HD
ENDBRANCH   5  12
BRANCH   3  14
ATOM     14  C   UNL     1      36.801 -21.939 -18.535  0.00  0.00    +0.033 C 
BRANCH  14  15
ATOM     15  C   UNL     1      36.875 -21.458 -17.080  0.00  0.00    +0.005 C 
ATOM     16  C   UNL     1      37.500 -22.502 -16.170  0.00  0.00    +0.000 C 
ENDBRANCH  14  15
ENDBRANCH   3  14
ENDBRANCH   2   4
ENDBRANCH   1   2
BRANCH   1  17
ATOM     17  C   UNL     1      33.967 -23.930 -16.052  0.00  0.00    +0.095 C 
BRANCH  17  18
ATOM     18  C   UNL     1      33.604 -23.481 -14.647  0.00  0.00    +0.209 C 
BRANCH  18  19
ATOM     19  O   UNL     1      32.592 -24.338 -14.137  0.00  0.00    -0.475 OA
BRANCH  19  20
ATOM     20  C   UNL     1      31.312 -24.114 -14.574  0.00  0.00    +0.139 C 
ATOM     21  C   UNL     1      30.833 -22.812 -14.661  0.00  0.00    +0.040 C 
ATOM     22  C   UNL     1      30.507 -25.191 -14.926  0.00  0.00    +0.040 C 
ATOM     23  C   UNL     1      28.717 -23.660 -15.459  0.00  0.00    +0.140 C 
ATOM     24  C   UNL     1      29.531 -22.584 -15.105  0.00  0.00    +0.040 C 
ATOM     25  C   UNL     1      29.205 -24.963 -15.370  0.00  0.00    +0.040 C 
BRANCH  23  26
ATOM     26  O   UNL     1      27.447 -23.437 -15.893  0.00  0.00    -0.464 OA
BRANCH  26  27
ATOM     27  C   UNL     1      27.058 -22.079 -16.096  0.00  0.00    +0.314 C 
BRANCH  27  29
ATOM     28  O   UNL     1      26.841 -22.679 -18.441  0.00  0.00    -0.246 OA
ATOM     29  C   UNL     1      26.731 -21.854 -17.546  0.00  0.00    +0.359 C 
BRANCH  29  30
ATOM     30  O   UNL     1      26.284 -20.587 -17.734  0.00  0.00    -0.478 OA
ATOM     31  H   UNL     1      26.561 -20.099 -18.484  0.00  0.00    +0.295 HD
ENDBRANCH  29  30
ENDBRANCH  27  29
ENDBRANCH  26  27
ENDBRANCH  23  26
ENDBRANCH  19  20
ENDBRANCH  18  19
ENDBRANCH  17  18
ENDBRANCH   1  17
TORSDOF 14
ENDMDL
MODEL 2
REMARK VINA RESULT:      -9.6      3.212      6.717
REMARK  Name = 6603901
REMARK  14 active torsions:
REMARK  status: ('A' for Active; 'I' for Inactive)
REMARK    1  A    between atoms: C_1  and  O_2
REMARK    2  A    between atoms: C_1  and  C_17
REMARK    3  A    between atoms: O_2  and  C_4
REMARK    4  A    between atoms: C_3  and  C_14
REMARK    5  A    between atoms: C_5  and  O_12
REMARK    6  A    between atoms: C_6  and  C_10
REMARK    7  A    between atoms: C_14  and  C_15
REMARK    8  A    between atoms: C_17  and  C_18
REMARK    9  A    between atoms: C_18  and  O_19
REMARK   10  A    between atoms: O_19  and  C_20
REMARK   11  A    between atoms: C_23  and  O_26
REMARK   12  A    between atoms: O_26  and  C_27
REMARK   13  A    between atoms: C_27  and  C_29
REMARK   14  A    between atoms: C_29  and  O_30
REMARK                            x       y       z     vdW  Elec       q    Type
REMARK                         _______ _______ _______ _____ _____    ______ ____
ROOT
ATOM      1  C   UNL     1      32.633 -22.471 -17.755  0.00  0.00    +0.209 C 
ENDROOT
BRANCH   1   2
ATOM      2  O   UNL     1      33.607 -22.638 -18.776  0.00  0.00    -0.476 OA
BRANCH   2   4
ATOM      3  C   UNL     1      35.276 -21.126 -19.601  0.00  0.00    +0.045 C 
ATOM      4  C   UNL     1      33.947 -21.523 -19.495  0.00  0.00    +0.137 C 
ATOM      5  C   UNL     1      35.602 -19.987 -20.336  0.00  0.00    +0.135 C 
ATOM      6  C   UNL     1      34.597 -19.249 -20.961  0.00  0.00    +0.068 C 
ATOM      7  C   UNL     1      32.940 -20.791 -20.117  0.00  0.00    +0.037 C 
ATOM      8  C   UNL     1      33.266 -19.652 -20.852  0.00  0.00    +0.009 C 
BRANCH   6  10
ATOM      9  O   UNL     1      35.202 -16.980 -21.179  0.00  0.00    -0.291 OA
ATOM     10  C   UNL     1      34.914 -18.056 -21.736  0.00  0.00    +0.176 C 
ATOM     11  C   UNL     1      34.895 -18.104 -23.258  0.00  0.00    +0.077 C 
ENDBRANCH   6  10
BRANCH   5  12
ATOM     12  O   UNL     1      36.905 -19.595 -20.443  0.00  0.00    -0.506 OA
ATOM     13  H   UNL     1      37.524 -19.841 -19.784  0.00  0.00    +0.292 HD
ENDBRANCH   5  12
BRANCH   3  14
ATOM     14  C   UNL     1      36.353 -21.919 -18.929  0.00  0.00    +0.033 C 
BRANCH  14  15
ATOM     15  C   UNL     1      36.804 -21.279 -17.611  0.00  0.00    +0.005 C 
ATOM     16  C   UNL     1      37.079 -22.323 -16.541  0.00  0.00    +0.000 C 
ENDBRANCH  14  15
ENDBRANCH   3  14
ENDBRANCH   2   4
ENDBRANCH   1   2
BRANCH   1  17
ATOM     17  C   UNL     1      32.773 -23.579 -16.722  0.00  0.00    +0.095 C 
BRANCH  17  18
ATOM     18  C   UNL     1      33.563 -23.128 -15.506  0.00  0.00    +0.209 C 
BRANCH  18  19
ATOM     19  O   UNL     1      33.621 -24.198 -14.572  0.00  0.00    -0.475 OA
BRANCH  19  20
ATOM     20  C   UNL     1      34.868 -24.657 -14.235  0.00  0.00    +0.139 C 
ATOM     21  C   UNL     1      35.612 -25.374 -15.165  0.00  0.00    +0.040 C 
ATOM     22  C   UNL     1      35.375 -24.401 -12.966  0.00  0.00    +0.040 C 
ATOM     23  C   UNL     1      37.395 -25.589 -13.550  0.00  0.00    +0.140 C 
ATOM     24  C   UNL     1      36.880 -25.842 -14.821  0.00  0.00    +0.040 C 
ATOM     25  C   UNL     1      36.643 -24.868 -12.622  0.00  0.00    +0.040 C 
BRANCH  23  26
ATOM     26  O   UNL     1      38.633 -26.045 -13.215  0.00  0.00    -0.464 OA
BRANCH  26  27
ATOM     27  C   UNL     1      39.752 -25.296 -13.688  0.00  0.00    +0.314 C 
BRANCH  27  29
ATOM     28  O   UNL     1      41.431 -26.984 -14.175  0.00  0.00    -0.246 OA
ATOM     29  C   UNL     1      40.612 -26.165 -14.564  0.00  0.00    +0.359 C 
BRANCH  29  30
ATOM     30  O   UNL     1      40.353 -25.914 -15.872  0.00  0.00    -0.478 OA
ATOM     31  H   UNL     1      40.276 -26.624 -16.478  0.00  0.00    +0.295 HD
ENDBRANCH  29  30
ENDBRANCH  27  29
ENDBRANCH  26  27
ENDBRANCH  23  26
ENDBRANCH  19  20
ENDBRANCH  18  19
ENDBRANCH  17  18
ENDBRANCH   1  17
TORSDOF 14
ENDMDL
MODEL 3
REMARK VINA RESULT:      -9.3      2.781      9.015
REMARK  Name = 6603901
REMARK  14 active torsions:
REMARK  status: ('A' for Active; 'I' for Inactive)
REMARK    1  A    between atoms: C_1  and  O_2
REMARK    2  A    between atoms: C_1  and  C_17
REMARK    3  A    between atoms: O_2  and  C_4
REMARK    4  A    between atoms: C_3  and  C_14
REMARK    5  A    between atoms: C_5  and  O_12
REMARK    6  A    between atoms: C_6  and  C_10
REMARK    7  A    between atoms: C_14  and  C_15
REMARK    8  A    between atoms: C_17  and  C_18
REMARK    9  A    between atoms: C_18  and  O_19
REMARK   10  A    between atoms: O_19  and  C_20
REMARK   11  A    between atoms: C_23  and  O_26
REMARK   12  A    between atoms: O_26  and  C_27
REMARK   13  A    between atoms: C_27  and  C_29
REMARK   14  A    between atoms: C_29  and  O_30
REMARK                            x       y       z     vdW  Elec       q    Type
REMARK                         _______ _______ _______ _____ _____    ______ ____
ROOT
ATOM      1  C   UNL     1      34.895 -22.364 -18.462  0.00  0.00    +0.209 C 
ENDROOT
BRANCH   1   2
ATOM      2  O   UNL     1      35.184 -23.033 -17.241  0.00  0.00    -0.476 OA
BRANCH   2   4
ATOM      3  C   UNL     1      34.316 -23.872 -15.169  0.00  0.00    +0.045 C 
ATOM      4  C   UNL     1      34.117 -23.358 -16.446  0.00  0.00    +0.137 C 
ATOM      5  C   UNL     1      33.218 -24.199 -14.375  0.00  0.00    +0.135 C 
ATOM      6  C   UNL     1      31.925 -24.011 -14.862  0.00  0.00    +0.068 C 
ATOM      7  C   UNL     1      32.830 -23.168 -16.938  0.00  0.00    +0.037 C 
ATOM      8  C   UNL     1      31.731 -23.495 -16.144  0.00  0.00    +0.009 C 
BRANCH   6  10
ATOM      9  O   UNL     1      30.740 -24.118 -12.826  0.00  0.00    -0.291 OA
ATOM     10  C   UNL     1      30.761 -24.344 -14.051  0.00  0.00    +0.176 C 
ATOM     11  C   UNL     1      29.538 -24.985 -14.693  0.00  0.00    +0.077 C 
ENDBRANCH   6  10
BRANCH   5  12
ATOM     12  O   UNL     1      33.409 -24.703 -13.121  0.00  0.00    -0.506 OA
ATOM     13  H   UNL     1      33.578 -24.124 -12.404  0.00  0.00    +0.292 HD
ENDBRANCH   5  12
BRANCH   3  14
ATOM     14  C   UNL     1      35.704 -24.073 -14.648  0.00  0.00    +0.033 C 
BRANCH  14  15
ATOM     15  C   UNL     1      36.254 -25.463 -14.988  0.00  0.00    +0.005 C 
ATOM     16  C   UNL     1      37.078 -26.041 -13.849  0.00  0.00    +0.000 C 
ENDBRANCH  14  15
ENDBRANCH   3  14
ENDBRANCH   2   4
ENDBRANCH   1   2
BRANCH   1  17
ATOM     17  C   UNL     1      36.068 -21.480 -18.856  0.00  0.00    +0.095 C 
BRANCH  17  18
ATOM     18  C   UNL     1      35.912 -20.918 -20.258  0.00  0.00    +0.209 C 
BRANCH  18  19
ATOM     19  O   UNL     1      34.913 -19.908 -20.241  0.00  0.00    -0.475 OA
BRANCH  19  20
ATOM     20  C   UNL     1      34.930 -19.003 -21.271  0.00  0.00    +0.139 C 
ATOM     21  C   UNL     1      34.806 -19.450 -22.581  0.00  0.00    +0.040 C 
ATOM     22  C   UNL     1      35.072 -17.648 -20.994  0.00  0.00    +0.040 C 
ATOM     23  C   UNL     1      34.966 -17.169 -23.359  0.00  0.00    +0.140 C 
ATOM     24  C   UNL     1      34.824 -18.529 -23.629  0.00  0.00    +0.040 C 
ATOM     25  C   UNL     1      35.090 -16.728 -22.041  0.00  0.00    +0.040 C 
BRANCH  23  26
ATOM     26  O   UNL     1      34.983 -16.271 -24.381  0.00  0.00    -0.464 OA
BRANCH  26  27
ATOM     27  C   UNL     1      34.079 -16.499 -25.462  0.00  0.00    +0.314 C 
BRANCH  27  29
ATOM     28  O   UNL     1      33.472 -14.777 -27.066  0.00  0.00    -0.246 OA
ATOM     29  C   UNL     1      33.489 -15.194 -25.917  0.00  0.00    +0.359 C 
BRANCH  29  30
ATOM     30  O   UNL     1      32.965 -14.523 -24.860  0.00  0.00    -0.478 OA
ATOM     31  H   UNL     1      33.351 -13.719 -24.577  0.00  0.00    +0.295 HD
ENDBRANCH  29  30
ENDBRANCH  27  29
ENDBRANCH  26  27
ENDBRANCH  23  26
ENDBRANCH  19  20
ENDBRANCH  18  19
ENDBRANCH  17  18
ENDBRANCH   1  17
TORSDOF 14
ENDMDL
MODEL 4
REMARK VINA RESULT:      -9.2      6.235     10.180
REMARK  Name = 6603901
REMARK  14 active torsions:
REMARK  status: ('A' for Active; 'I' for Inactive)
REMARK    1  A    between atoms: C_1  and  O_2
REMARK    2  A    between atoms: C_1  and  C_17
REMARK    3  A    between atoms: O_2  and  C_4
REMARK    4  A    between atoms: C_3  and  C_14
REMARK    5  A    between atoms: C_5  and  O_12
REMARK    6  A    between atoms: C_6  and  C_10
REMARK    7  A    between atoms: C_14  and  C_15
REMARK    8  A    between atoms: C_17  and  C_18
REMARK    9  A    between atoms: C_18  and  O_19
REMARK   10  A    between atoms: O_19  and  C_20
REMARK   11  A    between atoms: C_23  and  O_26
REMARK   12  A    between atoms: O_26  and  C_27
REMARK   13  A    between atoms: C_27  and  C_29
REMARK   14  A    between atoms: C_29  and  O_30
REMARK                            x       y       z     vdW  Elec       q    Type
REMARK                         _______ _______ _______ _____ _____    ______ ____
ROOT
ATOM      1  C   UNL     1      33.962 -14.214 -22.714  0.00  0.00    +0.209 C 
ENDROOT
BRANCH   1   2
ATOM      2  O   UNL     1      32.817 -13.484 -23.133  0.00  0.00    -0.476 OA
BRANCH   2   4
ATOM      3  C   UNL     1      32.201 -11.251 -22.510  0.00  0.00    +0.045 C 
ATOM      4  C   UNL     1      32.964 -12.129 -23.272  0.00  0.00    +0.137 C 
ATOM      5  C   UNL     1      32.364  -9.875 -22.668  0.00  0.00    +0.135 C 
ATOM      6  C   UNL     1      33.289  -9.384 -23.589  0.00  0.00    +0.068 C 
ATOM      7  C   UNL     1      33.889 -11.645 -24.192  0.00  0.00    +0.037 C 
ATOM      8  C   UNL     1      34.052 -10.269 -24.350  0.00  0.00    +0.009 C 
BRANCH   6  10
ATOM      9  O   UNL     1      32.523  -7.202 -24.049  0.00  0.00    -0.291 OA
ATOM     10  C   UNL     1      33.478  -7.951 -23.770  0.00  0.00    +0.176 C 
ATOM     11  C   UNL     1      34.864  -7.336 -23.623  0.00  0.00    +0.077 C 
ENDBRANCH   6  10
BRANCH   5  12
ATOM     12  O   UNL     1      31.618  -9.011 -21.921  0.00  0.00    -0.506 OA
ATOM     13  H   UNL     1      30.798  -8.696 -22.248  0.00  0.00    +0.292 HD
ENDBRANCH   5  12
BRANCH   3  14
ATOM     14  C   UNL     1      31.209 -11.780 -21.523  0.00  0.00    +0.033 C 
BRANCH  14  15
ATOM     15  C   UNL     1      31.832 -12.001 -20.139  0.00  0.00    +0.005 C 
ATOM     16  C   UNL     1      31.386 -10.944 -19.143  0.00  0.00    +0.000 C 
ENDBRANCH  14  15
ENDBRANCH   3  14
ENDBRANCH   2   4
ENDBRANCH   1   2
BRANCH   1  17
ATOM     17  C   UNL     1      33.591 -15.142 -21.567  0.00  0.00    +0.095 C 
BRANCH  17  18
ATOM     18  C   UNL     1      34.767 -15.992 -21.118  0.00  0.00    +0.209 C 
BRANCH  18  19
ATOM     19  O   UNL     1      34.861 -17.131 -21.963  0.00  0.00    -0.475 OA
BRANCH  19  20
ATOM     20  C   UNL     1      34.958 -18.352 -21.348  0.00  0.00    +0.139 C 
ATOM     21  C   UNL     1      33.803 -19.055 -21.028  0.00  0.00    +0.040 C 
ATOM     22  C   UNL     1      36.211 -18.874 -21.049  0.00  0.00    +0.040 C 
ATOM     23  C   UNL     1      35.156 -20.826 -20.098  0.00  0.00    +0.140 C 
ATOM     24  C   UNL     1      33.902 -20.297 -20.400  0.00  0.00    +0.040 C 
ATOM     25  C   UNL     1      36.311 -20.115 -20.423  0.00  0.00    +0.040 C 
BRANCH  23  26
ATOM     26  O   UNL     1      35.253 -22.039 -19.486  0.00  0.00    -0.464 OA
BRANCH  26  27
ATOM     27  C   UNL     1      34.074 -22.842 -19.446  0.00  0.00    +0.314 C 
BRANCH  27  29
ATOM     28  O   UNL     1      34.267 -23.365 -17.081  0.00  0.00    -0.246 OA
ATOM     29  C   UNL     1      33.597 -22.976 -18.027  0.00  0.00    +0.359 C 
BRANCH  29  30
ATOM     30  O   UNL     1      32.298 -22.598 -17.932  0.00  0.00    -0.478 OA
ATOM     31  H   UNL     1      32.071 -21.690 -17.957  0.00  0.00    +0.295 HD
ENDBRANCH  29  30
ENDBRANCH  27  29
ENDBRANCH  26  27
ENDBRANCH  23  26
ENDBRANCH  19  20
ENDBRANCH  18  19
ENDBRANCH  17  18
ENDBRANCH   1  17
TORSDOF 14
ENDMDL
MODEL 5
REMARK VINA RESULT:      -9.2      6.215     11.531
REMARK  Name = 6603901
REMARK  14 active torsions:
REMARK  status: ('A' for Active; 'I' for Inactive)
REMARK    1  A    between atoms: C_1  and  O_2
REMARK    2  A    between atoms: C_1  and  C_17
REMARK    3  A    between atoms: O_2  and  C_4
REMARK    4  A    between atoms: C_3  and  C_14
REMARK    5  A    between atoms: C_5  and  O_12
REMARK    6  A    between atoms: C_6  and  C_10
REMARK    7  A    between atoms: C_14  and  C_15
REMARK    8  A    between atoms: C_17  and  C_18
REMARK    9  A    between atoms: C_18  and  O_19
REMARK   10  A    between atoms: O_19  and  C_20
REMARK   11  A    between atoms: C_23  and  O_26
REMARK   12  A    between atoms: O_26  and  C_27
REMARK   13  A    between atoms: C_27  and  C_29
REMARK   14  A    between atoms: C_29  and  O_30
REMARK                            x       y       z     vdW  Elec       q    Type
REMARK                         _______ _______ _______ _____ _____    ______ ____
ROOT
ATOM      1  C   UNL     1      33.648 -12.478 -26.209  0.00  0.00    +0.209 C 
ENDROOT
BRANCH   1   2
ATOM      2  O   UNL     1      33.818 -12.641 -24.808  0.00  0.00    -0.476 OA
BRANCH   2   4
ATOM      3  C   UNL     1      32.592 -11.805 -22.923  0.00  0.00    +0.045 C 
ATOM      4  C   UNL     1      33.432 -11.595 -24.012  0.00  0.00    +0.137 C 
ATOM      5  C   UNL     1      32.209 -10.726 -22.126  0.00  0.00    +0.135 C 
ATOM      6  C   UNL     1      32.667  -9.443 -22.422  0.00  0.00    +0.068 C 
ATOM      7  C   UNL     1      33.893 -10.316 -24.312  0.00  0.00    +0.037 C 
ATOM      8  C   UNL     1      33.510  -9.238 -23.515  0.00  0.00    +0.009 C 
BRANCH   6  10
ATOM      9  O   UNL     1      32.577  -8.241 -20.395  0.00  0.00    -0.291 OA
ATOM     10  C   UNL     1      32.281  -8.302 -21.603  0.00  0.00    +0.176 C 
ATOM     11  C   UNL     1      31.496  -7.149 -22.217  0.00  0.00    +0.077 C 
ENDBRANCH   6  10
BRANCH   5  12
ATOM     12  O   UNL     1      31.385 -10.929 -21.057  0.00  0.00    -0.506 OA
ATOM     13  H   UNL     1      31.117 -10.204 -20.528  0.00  0.00    +0.292 HD
ENDBRANCH   5  12
BRANCH   3  14
ATOM     14  C   UNL     1      32.101 -13.182 -22.608  0.00  0.00    +0.033 C 
BRANCH  14  15
ATOM     15  C   UNL     1      33.037 -13.923 -21.645  0.00  0.00    +0.005 C 
ATOM     16  C   UNL     1      32.409 -15.203 -21.119  0.00  0.00    +0.000 C 
ENDBRANCH  14  15
ENDBRANCH   3  14
ENDBRANCH   2   4
ENDBRANCH   1   2
BRANCH   1  17
ATOM     17  C   UNL     1      33.357 -13.825 -26.853  0.00  0.00    +0.095 C 
BRANCH  17  18
ATOM     18  C   UNL     1      33.111 -14.910 -25.820  0.00  0.00    +0.209 C 
BRANCH  18  19
ATOM     19  O   UNL     1      33.939 -16.026 -26.117  0.00  0.00    -0.475 OA
BRANCH  19  20
ATOM     20  C   UNL     1      34.386 -16.765 -25.053  0.00  0.00    +0.139 C 
ATOM     21  C   UNL     1      34.818 -16.120 -23.900  0.00  0.00    +0.040 C 
ATOM     22  C   UNL     1      34.404 -18.153 -25.139  0.00  0.00    +0.040 C 
ATOM     23  C   UNL     1      35.293 -18.266 -22.897  0.00  0.00    +0.140 C 
ATOM     24  C   UNL     1      35.273 -16.874 -22.817  0.00  0.00    +0.040 C 
ATOM     25  C   UNL     1      34.858 -18.906 -24.057  0.00  0.00    +0.040 C 
BRANCH  23  26
ATOM     26  O   UNL     1      35.737 -19.000 -21.840  0.00  0.00    -0.464 OA
BRANCH  26  27
ATOM     27  C   UNL     1      34.763 -19.743 -21.109  0.00  0.00    +0.314 C 
BRANCH  27  29
ATOM     28  O   UNL     1      34.996 -21.672 -19.649  0.00  0.00    -0.246 OA
ATOM     29  C   UNL     1      35.446 -20.632 -20.108  0.00  0.00    +0.359 C 
BRANCH  29  30
ATOM     30  O   UNL     1      36.657 -20.118 -19.775  0.00  0.00    -0.478 OA
ATOM     31  H   UNL     1      36.784 -19.728 -18.933  0.00  0.00    +0.295 HD
ENDBRANCH  29  30
ENDBRANCH  27  29
ENDBRANCH  26  27
ENDBRANCH  23  26
ENDBRANCH  19  20
ENDBRANCH  18  19
ENDBRANCH  17  18
ENDBRANCH   1  17
TORSDOF 14
ENDMDL
MODEL 6
REMARK VINA RESULT:      -9.2      4.367      8.830
REMARK  Name = 6603901
REMARK  14 active torsions:
REMARK  status: ('A' for Active; 'I' for Inactive)
REMARK    1  A    between atoms: C_1  and  O_2
REMARK    2  A    between atoms: C_1  and  C_17
REMARK    3  A    between atoms: O_2  and  C_4
REMARK    4  A    between atoms: C_3  and  C_14
REMARK    5  A    between atoms: C_5  and  O_12
REMARK    6  A    between atoms: C_6  and  C_10
REMARK    7  A    between atoms: C_14  and  C_15
REMARK    8  A    between atoms: C_17  and  C_18
REMARK    9  A    between atoms: C_18  and  O_19
REMARK   10  A    between atoms: O_19  and  C_20
REMARK   11  A    between atoms: C_23  and  O_26
REMARK   12  A    between atoms: O_26  and  C_27
REMARK   13  A    between atoms: C_27  and  C_29
REMARK   14  A    between atoms: C_29  and  O_30
REMARK                            x       y       z     vdW  Elec       q    Type
REMARK                         _______ _______ _______ _____ _____    ______ ____
ROOT
ATOM      1  C   UNL     1      35.009 -16.628 -22.774  0.00  0.00    +0.209 C 
ENDROOT
BRANCH   1   2
ATOM      2  O   UNL     1      34.132 -15.836 -23.565  0.00  0.00    -0.476 OA
BRANCH   2   4
ATOM      3  C   UNL     1      33.308 -13.584 -23.526  0.00  0.00    +0.045 C 
ATOM      4  C   UNL     1      33.462 -14.827 -22.923  0.00  0.00    +0.137 C 
ATOM      5  C   UNL     1      32.624 -12.569 -22.856  0.00  0.00    +0.135 C 
ATOM      6  C   UNL     1      32.098 -12.804 -21.586  0.00  0.00    +0.068 C 
ATOM      7  C   UNL     1      32.939 -15.068 -21.656  0.00  0.00    +0.037 C 
ATOM      8  C   UNL     1      32.255 -14.054 -20.986  0.00  0.00    +0.009 C 
BRANCH   6  10
ATOM      9  O   UNL     1      30.512 -11.065 -21.431  0.00  0.00    -0.291 OA
ATOM     10  C   UNL     1      31.379 -11.760 -20.868  0.00  0.00    +0.176 C 
ATOM     11  C   UNL     1      31.680 -11.495 -19.398  0.00  0.00    +0.077 C 
ENDBRANCH   6  10
BRANCH   5  12
ATOM     12  O   UNL     1      32.471 -11.348 -23.445  0.00  0.00    -0.506 OA
ATOM     13  H   UNL     1      32.800 -11.200 -24.309  0.00  0.00    +0.292 HD
ENDBRANCH   5  12
BRANCH   3  14
ATOM     14  C   UNL     1      33.873 -13.334 -24.888  0.00  0.00    +0.033 C 
BRANCH  14  15
ATOM     15  C   UNL     1      32.956 -13.858 -26.000  0.00  0.00    +0.005 C 
ATOM     16  C   UNL     1      33.386 -13.360 -27.370  0.00  0.00    +0.000 C 
ENDBRANCH  14  15
ENDBRANCH   3  14
ENDBRANCH   2   4
ENDBRANCH   1   2
BRANCH   1  17
ATOM     17  C   UNL     1      35.346 -17.914 -23.512  0.00  0.00    +0.095 C 
BRANCH  17  18
ATOM     18  C   UNL     1      34.579 -19.104 -22.963  0.00  0.00    +0.209 C 
BRANCH  18  19
ATOM     19  O   UNL     1      34.270 -18.863 -21.597  0.00  0.00    -0.475 OA
BRANCH  19  20
ATOM     20  C   UNL     1      34.355 -19.933 -20.745  0.00  0.00    +0.139 C 
ATOM     21  C   UNL     1      33.194 -20.492 -20.223  0.00  0.00    +0.040 C 
ATOM     22  C   UNL     1      35.602 -20.448 -20.410  0.00  0.00    +0.040 C 
ATOM     23  C   UNL     1      34.530 -22.102 -19.016  0.00  0.00    +0.140 C 
ATOM     24  C   UNL     1      33.282 -21.580 -19.355  0.00  0.00    +0.040 C 
ATOM     25  C   UNL     1      35.690 -21.537 -19.543  0.00  0.00    +0.040 C 
BRANCH  23  26
ATOM     26  O   UNL     1      34.614 -23.165 -18.169  0.00  0.00    -0.464 OA
BRANCH  26  27
ATOM     27  C   UNL     1      33.770 -23.148 -17.019  0.00  0.00    +0.314 C 
BRANCH  27  29
ATOM     28  O   UNL     1      35.440 -24.379 -15.751  0.00  0.00    -0.246 OA
ATOM     29  C   UNL     1      34.565 -23.526 -15.800  0.00  0.00    +0.359 C 
BRANCH  29  30
ATOM     30  O   UNL     1      34.176 -22.778 -14.737  0.00  0.00    -0.478 OA
ATOM     31  H   UNL     1      33.305 -22.857 -14.402  0.00  0.00    +0.295 HD
ENDBRANCH  29  30
ENDBRANCH  27  29
ENDBRANCH  26  27
ENDBRANCH  23  26
ENDBRANCH  19  20
ENDBRANCH  18  19
ENDBRANCH  17  18
ENDBRANCH   1  17
TORSDOF 14
ENDMDL
MODEL 7
REMARK VINA RESULT:      -9.1      6.610     11.149
REMARK  Name = 6603901
REMARK  14 active torsions:
REMARK  status: ('A' for Active; 'I' for Inactive)
REMARK    1  A    between atoms: C_1  and  O_2
REMARK    2  A    between atoms: C_1  and  C_17
REMARK    3  A    between atoms: O_2  and  C_4
REMARK    4  A    between atoms: C_3  and  C_14
REMARK    5  A    between atoms: C_5  and  O_12
REMARK    6  A    between atoms: C_6  and  C_10
REMARK    7  A    between atoms: C_14  and  C_15
REMARK    8  A    between atoms: C_17  and  C_18
REMARK    9  A    between atoms: C_18  and  O_19
REMARK   10  A    between atoms: O_19  and  C_20
REMARK   11  A    between atoms: C_23  and  O_26
REMARK   12  A    between atoms: O_26  and  C_27
REMARK   13  A    between atoms: C_27  and  C_29
REMARK   14  A    between atoms: C_29  and  O_30
REMARK                            x       y       z     vdW  Elec       q    Type
REMARK                         _______ _______ _______ _____ _____    ______ ____
ROOT
ATOM      1  C   UNL     1      33.787 -13.769 -23.869  0.00  0.00    +0.209 C 
ENDROOT
BRANCH   1   2
ATOM      2  O   UNL     1      32.768 -12.971 -23.283  0.00  0.00    -0.476 OA
BRANCH   2   4
ATOM      3  C   UNL     1      32.148 -10.775 -22.545  0.00  0.00    +0.045 C 
ATOM      4  C   UNL     1      32.954 -11.614 -23.307  0.00  0.00    +0.137 C 
ATOM      5  C   UNL     1      32.352  -9.396 -22.584  0.00  0.00    +0.135 C 
ATOM      6  C   UNL     1      33.362  -8.863 -23.385  0.00  0.00    +0.068 C 
ATOM      7  C   UNL     1      33.964 -11.088 -24.107  0.00  0.00    +0.037 C 
ATOM      8  C   UNL     1      34.168  -9.709 -24.146  0.00  0.00    +0.009 C 
BRANCH   6  10
ATOM      9  O   UNL     1      33.205  -6.671 -22.530  0.00  0.00    -0.291 OA
ATOM     10  C   UNL     1      33.594  -7.426 -23.440  0.00  0.00    +0.176 C 
ATOM     11  C   UNL     1      34.325  -6.814 -24.629  0.00  0.00    +0.077 C 
ENDBRANCH   6  10
BRANCH   5  12
ATOM     12  O   UNL     1      31.563  -8.570 -21.838  0.00  0.00    -0.506 OA
ATOM     13  H   UNL     1      30.773  -8.222 -22.201  0.00  0.00    +0.292 HD
ENDBRANCH   5  12
BRANCH   3  14
ATOM     14  C   UNL     1      31.065 -11.349 -21.687  0.00  0.00    +0.033 C 
BRANCH  14  15
ATOM     15  C   UNL     1      31.584 -11.771 -20.307  0.00  0.00    +0.005 C 
ATOM     16  C   UNL     1      31.209 -10.767 -19.230  0.00  0.00    +0.000 C 
ENDBRANCH  14  15
ENDBRANCH   3  14
ENDBRANCH   2   4
ENDBRANCH   1   2
BRANCH   1  17
ATOM     17  C   UNL     1      33.215 -14.564 -25.033  0.00  0.00    +0.095 C 
BRANCH  17  18
ATOM     18  C   UNL     1      33.861 -15.932 -25.163  0.00  0.00    +0.209 C 
BRANCH  18  19
ATOM     19  O   UNL     1      34.950 -16.015 -24.253  0.00  0.00    -0.475 OA
BRANCH  19  20
ATOM     20  C   UNL     1      34.964 -17.089 -23.401  0.00  0.00    +0.139 C 
ATOM     21  C   UNL     1      35.075 -16.880 -22.032  0.00  0.00    +0.040 C 
ATOM     22  C   UNL     1      34.867 -18.376 -23.916  0.00  0.00    +0.040 C 
ATOM     23  C   UNL     1      34.993 -19.268 -21.676  0.00  0.00    +0.140 C 
ATOM     24  C   UNL     1      35.091 -17.973 -21.166  0.00  0.00    +0.040 C 
ATOM     25  C   UNL     1      34.881 -19.470 -23.051  0.00  0.00    +0.040 C 
BRANCH  23  26
ATOM     26  O   UNL     1      35.008 -20.334 -20.830  0.00  0.00    -0.464 OA
BRANCH  26  27
ATOM     27  C   UNL     1      33.814 -20.596 -20.093  0.00  0.00    +0.314 C 
BRANCH  27  29
ATOM     28  O   UNL     1      34.968 -22.555 -19.238  0.00  0.00    -0.246 OA
ATOM     29  C   UNL     1      33.942 -21.904 -19.365  0.00  0.00    +0.359 C 
BRANCH  29  30
ATOM     30  O   UNL     1      32.741 -22.275 -18.854  0.00  0.00    -0.478 OA
ATOM     31  H   UNL     1      32.698 -22.929 -18.184  0.00  0.00    +0.295 HD
ENDBRANCH  29  30
ENDBRANCH  27  29
ENDBRANCH  26  27
ENDBRANCH  23  26
ENDBRANCH  19  20
ENDBRANCH  18  19
ENDBRANCH  17  18
ENDBRANCH   1  17
TORSDOF 14
ENDMDL
MODEL 8
REMARK VINA RESULT:      -9.1      5.295      9.469
REMARK  Name = 6603901
REMARK  14 active torsions:
REMARK  status: ('A' for Active; 'I' for Inactive)
REMARK    1  A    between atoms: C_1  and  O_2
REMARK    2  A    between atoms: C_1  and  C_17
REMARK    3  A    between atoms: O_2  and  C_4
REMARK    4  A    between atoms: C_3  and  C_14
REMARK    5  A    between atoms: C_5  and  O_12
REMARK    6  A    between atoms: C_6  and  C_10
REMARK    7  A    between atoms: C_14  and  C_15
REMARK    8  A    between atoms: C_17  and  C_18
REMARK    9  A    between atoms: C_18  and  O_19
REMARK   10  A    between atoms: O_19  and  C_20
REMARK   11  A    between atoms: C_23  and  O_26
REMARK   12  A    between atoms: O_26  and  C_27
REMARK   13  A    between atoms: C_27  and  C_29
REMARK   14  A    between atoms: C_29  and  O_30
REMARK                            x       y       z     vdW  Elec       q    Type
REMARK                         _______ _______ _______ _____ _____    ______ ____
ROOT
ATOM      1  C   UNL     1      33.193 -15.114 -20.692  0.00  0.00    +0.209 C 
ENDROOT
BRANCH   1   2
ATOM      2  O   UNL     1      32.481 -14.679 -21.843  0.00  0.00    -0.476 OA
BRANCH   2   4
ATOM      3  C   UNL     1      33.018 -12.694 -23.077  0.00  0.00    +0.045 C 
ATOM      4  C   UNL     1      32.366 -13.325 -22.024  0.00  0.00    +0.137 C 
ATOM      5  C   UNL     1      32.890 -11.315 -23.244  0.00  0.00    +0.135 C 
ATOM      6  C   UNL     1      32.111 -10.575 -22.355  0.00  0.00    +0.068 C 
ATOM      7  C   UNL     1      31.588 -12.592 -21.133  0.00  0.00    +0.037 C 
ATOM      8  C   UNL     1      31.460 -11.214 -21.300  0.00  0.00    +0.009 C 
BRANCH   6  10
ATOM      9  O   UNL     1      31.444  -8.642 -23.529  0.00  0.00    -0.291 OA
ATOM     10  C   UNL     1      31.962  -9.134 -22.509  0.00  0.00    +0.176 C 
ATOM     11  C   UNL     1      32.445  -8.192 -21.414  0.00  0.00    +0.077 C 
ENDBRANCH   6  10
BRANCH   5  12
ATOM     12  O   UNL     1      33.527 -10.692 -24.277  0.00  0.00    -0.506 OA
ATOM     13  H   UNL     1      34.229 -10.097 -24.105  0.00  0.00    +0.292 HD
ENDBRANCH   5  12
BRANCH   3  14
ATOM     14  C   UNL     1      33.852 -13.489 -24.030  0.00  0.00    +0.033 C 
BRANCH  14  15
ATOM     15  C   UNL     1      33.023 -14.064 -25.185  0.00  0.00    +0.005 C 
ATOM     16  C   UNL     1      33.423 -15.493 -25.512  0.00  0.00    +0.000 C 
ENDBRANCH  14  15
ENDBRANCH   3  14
ENDBRANCH   2   4
ENDBRANCH   1   2
BRANCH   1  17
ATOM     17  C   UNL     1      34.569 -15.621 -21.098  0.00  0.00    +0.095 C 
BRANCH  17  18
ATOM     18  C   UNL     1      34.483 -16.844 -21.995  0.00  0.00    +0.209 C 
BRANCH  18  19
ATOM     19  O   UNL     1      35.642 -17.642 -21.797  0.00  0.00    -0.475 OA
BRANCH  19  20
ATOM     20  C   UNL     1      35.469 -18.831 -21.136  0.00  0.00    +0.139 C 
ATOM     21  C   UNL     1      34.186 -19.327 -20.939  0.00  0.00    +0.040 C 
ATOM     22  C   UNL     1      36.578 -19.527 -20.671  0.00  0.00    +0.040 C 
ATOM     23  C   UNL     1      35.118 -21.240 -19.796  0.00  0.00    +0.140 C 
ATOM     24  C   UNL     1      34.010 -20.536 -20.266  0.00  0.00    +0.040 C 
ATOM     25  C   UNL     1      36.403 -20.736 -19.999  0.00  0.00    +0.040 C 
BRANCH  23  26
ATOM     26  O   UNL     1      34.946 -22.420 -19.140  0.00  0.00    -0.464 OA
BRANCH  26  27
ATOM     27  C   UNL     1      33.693 -22.624 -18.487  0.00  0.00    +0.314 C 
BRANCH  27  29
ATOM     28  O   UNL     1      33.056 -23.482 -16.304  0.00  0.00    -0.246 OA
ATOM     29  C   UNL     1      33.924 -23.136 -17.093  0.00  0.00    +0.359 C 
BRANCH  29  30
ATOM     30  O   UNL     1      35.252 -23.167 -16.819  0.00  0.00    -0.478 OA
ATOM     31  H   UNL     1      35.874 -23.190 -17.518  0.00  0.00    +0.295 HD
ENDBRANCH  29  30
ENDBRANCH  27  29
ENDBRANCH  26  27
ENDBRANCH  23  26
ENDBRANCH  19  20
ENDBRANCH  18  19
ENDBRANCH  17  18
ENDBRANCH   1  17
TORSDOF 14
ENDMDL
MODEL 9
REMARK VINA RESULT:      -9.1      6.595     12.291
REMARK  Name = 6603901
REMARK  14 active torsions:
REMARK  status: ('A' for Active; 'I' for Inactive)
REMARK    1  A    between atoms: C_1  and  O_2
REMARK    2  A    between atoms: C_1  and  C_17
REMARK    3  A    between atoms: O_2  and  C_4
REMARK    4  A    between atoms: C_3  and  C_14
REMARK    5  A    between atoms: C_5  and  O_12
REMARK    6  A    between atoms: C_6  and  C_10
REMARK    7  A    between atoms: C_14  and  C_15
REMARK    8  A    between atoms: C_17  and  C_18
REMARK    9  A    between atoms: C_18  and  O_19
REMARK   10  A    between atoms: O_19  and  C_20
REMARK   11  A    between atoms: C_23  and  O_26
REMARK   12  A    between atoms: O_26  and  C_27
REMARK   13  A    between atoms: C_27  and  C_29
REMARK   14  A    between atoms: C_29  and  O_30
REMARK                            x       y       z     vdW  Elec       q    Type
REMARK                         _______ _______ _______ _____ _____    ______ ____
ROOT
ATOM      1  C   UNL     1      33.425 -15.730 -25.624  0.00  0.00    +0.209 C 
ENDROOT
BRANCH   1   2
ATOM      2  O   UNL     1      34.676 -15.726 -24.950  0.00  0.00    -0.476 OA
BRANCH   2   4
ATOM      3  C   UNL     1      34.832 -16.210 -22.607  0.00  0.00    +0.045 C 
ATOM      4  C   UNL     1      34.834 -16.629 -23.932  0.00  0.00    +0.137 C 
ATOM      5  C   UNL     1      34.996 -17.144 -21.584  0.00  0.00    +0.135 C 
ATOM      6  C   UNL     1      35.163 -18.493 -21.893  0.00  0.00    +0.068 C 
ATOM      7  C   UNL     1      35.000 -17.974 -24.248  0.00  0.00    +0.037 C 
ATOM      8  C   UNL     1      35.164 -18.909 -23.225  0.00  0.00    +0.009 C 
BRANCH   6  10
ATOM      9  O   UNL     1      36.422 -19.623 -20.250  0.00  0.00    -0.291 OA
ATOM     10  C   UNL     1      35.335 -19.488 -20.843  0.00  0.00    +0.176 C 
ATOM     11  C   UNL     1      34.175 -20.392 -20.447  0.00  0.00    +0.077 C 
ENDBRANCH   6  10
BRANCH   5  12
ATOM     12  O   UNL     1      34.993 -16.736 -20.282  0.00  0.00    -0.506 OA
ATOM     13  H   UNL     1      35.287 -17.317 -19.608  0.00  0.00    +0.292 HD
ENDBRANCH   5  12
BRANCH   3  14
ATOM     14  C   UNL     1      34.653 -14.761 -22.277  0.00  0.00    +0.033 C 
BRANCH  14  15
ATOM     15  C   UNL     1      33.178 -14.390 -22.082  0.00  0.00    +0.005 C 
ATOM     16  C   UNL     1      32.859 -14.079 -20.629  0.00  0.00    +0.000 C 
ENDBRANCH  14  15
ENDBRANCH   3  14
ENDBRANCH   2   4
ENDBRANCH   1   2
BRANCH   1  17
ATOM     17  C   UNL     1      33.158 -14.358 -26.224  0.00  0.00    +0.095 C 
BRANCH  17  18
ATOM     18  C   UNL     1      32.946 -13.300 -25.156  0.00  0.00    +0.209 C 
BRANCH  18  19
ATOM     19  O   UNL     1      33.969 -12.320 -25.270  0.00  0.00    -0.475 OA
BRANCH  19  20
ATOM     20  C   UNL     1      33.811 -11.172 -24.537  0.00  0.00    +0.139 C 
ATOM     21  C   UNL     1      32.778 -11.084 -23.610  0.00  0.00    +0.040 C 
ATOM     22  C   UNL     1      34.684 -10.108 -24.728  0.00  0.00    +0.040 C 
ATOM     23  C   UNL     1      33.490  -8.845 -23.052  0.00  0.00    +0.140 C 
ATOM     24  C   UNL     1      32.617  -9.916 -22.866  0.00  0.00    +0.040 C 
ATOM     25  C   UNL     1      34.524  -8.940 -23.983  0.00  0.00    +0.040 C 
BRANCH  23  26
ATOM     26  O   UNL     1      33.332  -7.705 -22.325  0.00  0.00    -0.464 OA
BRANCH  26  27
ATOM     27  C   UNL     1      32.130  -7.579 -21.566  0.00  0.00    +0.314 C 
BRANCH  27  29
ATOM     28  O   UNL     1      33.148  -6.902 -19.466  0.00  0.00    -0.246 OA
ATOM     29  C   UNL     1      32.442  -7.673 -20.099  0.00  0.00    +0.359 C 
BRANCH  29  30
ATOM     30  O   UNL     1      31.820  -8.750 -19.556  0.00  0.00    -0.478 OA
ATOM     31  H   UNL     1      31.911  -8.932 -18.641  0.00  0.00    +0.295 HD
ENDBRANCH  29  30
ENDBRANCH  27  29
ENDBRANCH  26  27
ENDBRANCH  23  26
ENDBRANCH  19  20
ENDBRANCH  18  19
ENDBRANCH  17  18
ENDBRANCH   1  17
TORSDOF 14
ENDMDL
