MODEL 1
REMARK VINA RESULT:      -8.6      0.000      0.000
REMARK  Name = 27400
REMARK  0 active torsions:
REMARK  status: ('A' for Active; 'I' for Inactive)
REMARK                            x       y       z     vdW  Elec       q    Type
REMARK                         _______ _______ _______ _____ _____    ______ ____
ROOT
ATOM      1  S   UNL     1      34.422 -11.496 -25.052  0.00  0.00    -0.091 S 
ATOM      2  N   UNL     1      31.622  -4.922 -23.842  0.00  0.00    +0.386 N 
ATOM      3  C   UNL     1      32.830  -7.353 -22.857  0.00  0.00    -0.048 C 
ATOM      4  C   UNL     1      33.402  -6.642 -24.053  0.00  0.00    -0.001 C 
ATOM      5  C   UNL     1      32.031  -6.467 -21.940  0.00  0.00    -0.001 C 
ATOM      6  C   UNL     1      32.989  -8.666 -22.645  0.00  0.00    -0.008 C 
ATOM      7  C   UNL     1      32.312  -5.835 -24.769  0.00  0.00    -0.073 C 
ATOM      8  C   UNL     1      30.994  -5.668 -22.737  0.00  0.00    -0.073 C 
ATOM      9  C   UNL     1      32.354  -9.203 -21.409  0.00  0.00    -0.005 C 
ATOM     10  C   UNL     1      33.698  -9.500 -23.593  0.00  0.00    +0.002 C 
ATOM     11  C   UNL     1      31.420 -10.257 -21.476  0.00  0.00    -0.022 C 
ATOM     12  C   UNL     1      31.040 -10.881 -22.798  0.00  0.00    +0.032 C 
ATOM     13  C   UNL     1      32.203 -11.662 -23.413  0.00  0.00    +0.038 C 
ATOM     14  C   UNL     1      33.338 -10.802 -23.907  0.00  0.00    +0.008 C 
ATOM     15  C   UNL     1      30.622  -4.128 -24.556  0.00  0.00    -0.101 C 
ATOM     16  C   UNL     1      34.866  -9.087 -24.317  0.00  0.00    +0.007 C 
ATOM     17  C   UNL     1      32.704  -8.679 -20.152  0.00  0.00    -0.000 C 
ATOM     18  C   UNL     1      30.845 -10.745 -20.292  0.00  0.00    -0.004 C 
ATOM     19  C   UNL     1      35.354 -10.073 -25.143  0.00  0.00    +0.035 C 
ATOM     20  C   UNL     1      32.125  -9.175 -18.984  0.00  0.00    -0.000 C 
ATOM     21  C   UNL     1      31.193 -10.204 -19.055  0.00  0.00    -0.000 C 
ATOM     22  H   UNL     1      32.317  -4.292 -23.443  0.00  0.00    -0.080 HD
ENDROOT
TORSDOF 0
ENDMDL
MODEL 2
REMARK VINA RESULT:      -6.9      4.051      6.754
REMARK  Name = 27400
REMARK  0 active torsions:
REMARK  status: ('A' for Active; 'I' for Inactive)
REMARK                            x       y       z     vdW  Elec       q    Type
REMARK                         _______ _______ _______ _____ _____    ______ ____
ROOT
ATOM      1  S   UNL     1      33.824 -12.703 -27.505  0.00  0.00    -0.091 S 
ATOM      2  N   UNL     1      34.318 -16.301 -21.234  0.00  0.00    +0.386 N 
ATOM      3  C   UNL     1      32.995 -14.360 -22.913  0.00  0.00    -0.048 C 
ATOM      4  C   UNL     1      33.384 -15.707 -23.458  0.00  0.00    -0.001 C 
ATOM      5  C   UNL     1      32.819 -14.328 -21.419  0.00  0.00    -0.001 C 
ATOM      6  C   UNL     1      32.852 -13.275 -23.686  0.00  0.00    -0.008 C 
ATOM      7  C   UNL     1      34.580 -16.274 -22.683  0.00  0.00    -0.073 C 
ATOM      8  C   UNL     1      34.036 -14.948 -20.723  0.00  0.00    -0.073 C 
ATOM      9  C   UNL     1      32.464 -12.023 -22.978  0.00  0.00    -0.005 C 
ATOM     10  C   UNL     1      33.109 -13.327 -25.110  0.00  0.00    +0.002 C 
ATOM     11  C   UNL     1      33.257 -10.863 -23.075  0.00  0.00    -0.022 C 
ATOM     12  C   UNL     1      34.519 -10.846 -23.904  0.00  0.00    +0.032 C 
ATOM     13  C   UNL     1      34.218 -10.955 -25.400  0.00  0.00    +0.038 C 
ATOM     14  C   UNL     1      33.701 -12.302 -25.834  0.00  0.00    +0.008 C 
ATOM     15  C   UNL     1      35.451 -16.891 -20.521  0.00  0.00    -0.101 C 
ATOM     16  C   UNL     1      32.774 -14.441 -25.951  0.00  0.00    +0.007 C 
ATOM     17  C   UNL     1      31.278 -11.980 -22.224  0.00  0.00    -0.000 C 
ATOM     18  C   UNL     1      32.859  -9.697 -22.401  0.00  0.00    -0.004 C 
ATOM     19  C   UNL     1      33.111 -14.231 -27.268  0.00  0.00    +0.035 C 
ATOM     20  C   UNL     1      30.895 -10.814 -21.560  0.00  0.00    -0.000 C 
ATOM     21  C   UNL     1      31.688  -9.675 -21.646  0.00  0.00    -0.000 C 
ATOM     22  H   UNL     1      33.493 -16.878 -21.073  0.00  0.00    -0.080 HD
ENDROOT
TORSDOF 0
ENDMDL
MODEL 3
REMARK VINA RESULT:      -6.7      3.049      5.778
REMARK  Name = 27400
REMARK  0 active torsions:
REMARK  status: ('A' for Active; 'I' for Inactive)
REMARK                            x       y       z     vdW  Elec       q    Type
REMARK                         _______ _______ _______ _____ _____    ______ ____
ROOT
ATOM      1  S   UNL     1      35.119 -11.943 -27.489  0.00  0.00    -0.091 S 
ATOM      2  N   UNL     1      32.446 -14.306 -21.181  0.00  0.00    +0.386 N 
ATOM      3  C   UNL     1      32.467 -12.377 -23.330  0.00  0.00    -0.048 C 
ATOM      4  C   UNL     1      32.471 -13.852 -23.623  0.00  0.00    -0.001 C 
ATOM      5  C   UNL     1      31.897 -12.020 -21.984  0.00  0.00    -0.001 C 
ATOM      6  C   UNL     1      32.960 -11.464 -24.177  0.00  0.00    -0.008 C 
ATOM      7  C   UNL     1      33.100 -14.629 -22.461  0.00  0.00    -0.073 C 
ATOM      8  C   UNL     1      32.548 -12.867 -20.884  0.00  0.00    -0.073 C 
ATOM      9  C   UNL     1      32.874 -10.048 -23.723  0.00  0.00    -0.005 C 
ATOM     10  C   UNL     1      33.573 -11.855 -25.430  0.00  0.00    +0.002 C 
ATOM     11  C   UNL     1      34.031  -9.248 -23.630  0.00  0.00    -0.022 C 
ATOM     12  C   UNL     1      35.391  -9.796 -23.994  0.00  0.00    +0.032 C 
ATOM     13  C   UNL     1      35.510 -10.069 -25.494  0.00  0.00    +0.038 C 
ATOM     14  C   UNL     1      34.681 -11.229 -25.983  0.00  0.00    +0.008 C 
ATOM     15  C   UNL     1      33.028 -15.095 -20.096  0.00  0.00    -0.101 C 
ATOM     16  C   UNL     1      33.107 -12.930 -26.257  0.00  0.00    +0.007 C 
ATOM     17  C   UNL     1      31.625  -9.483 -23.409  0.00  0.00    -0.000 C 
ATOM     18  C   UNL     1      33.916  -7.915 -23.206  0.00  0.00    -0.004 C 
ATOM     19  C   UNL     1      33.857 -13.084 -27.399  0.00  0.00    +0.035 C 
ATOM     20  C   UNL     1      31.526  -8.157 -22.989  0.00  0.00    -0.000 C 
ATOM     21  C   UNL     1      32.672  -7.375 -22.884  0.00  0.00    -0.000 C 
ATOM     22  H   UNL     1      31.457 -14.543 -21.263  0.00  0.00    -0.080 HD
ENDROOT
TORSDOF 0
ENDMDL
MODEL 4
REMARK VINA RESULT:      -6.5     14.748     17.247
REMARK  Name = 27400
REMARK  0 active torsions:
REMARK  status: ('A' for Active; 'I' for Inactive)
REMARK                            x       y       z     vdW  Elec       q    Type
REMARK                         _______ _______ _______ _____ _____    ______ ____
ROOT
ATOM      1  S   UNL     1      38.496 -25.075 -14.612  0.00  0.00    -0.091 S 
ATOM      2  N   UNL     1      31.520 -23.370 -13.641  0.00  0.00    +0.386 N 
ATOM      3  C   UNL     1      33.712 -24.061 -15.389  0.00  0.00    -0.048 C 
ATOM      4  C   UNL     1      33.466 -24.837 -14.124  0.00  0.00    -0.001 C 
ATOM      5  C   UNL     1      32.494 -23.360 -15.926  0.00  0.00    -0.001 C 
ATOM      6  C   UNL     1      34.917 -23.974 -15.967  0.00  0.00    -0.008 C 
ATOM      7  C   UNL     1      32.751 -23.961 -13.088  0.00  0.00    -0.073 C 
ATOM      8  C   UNL     1      31.817 -22.541 -14.822  0.00  0.00    -0.073 C 
ATOM      9  C   UNL     1      34.978 -23.163 -17.215  0.00  0.00    -0.005 C 
ATOM     10  C   UNL     1      36.082 -24.599 -15.375  0.00  0.00    +0.002 C 
ATOM     11  C   UNL     1      35.860 -22.069 -17.323  0.00  0.00    -0.022 C 
ATOM     12  C   UNL     1      36.776 -21.689 -16.185  0.00  0.00    +0.032 C 
ATOM     13  C   UNL     1      37.861 -22.742 -15.952  0.00  0.00    +0.038 C 
ATOM     14  C   UNL     1      37.353 -24.043 -15.385  0.00  0.00    +0.008 C 
ATOM     15  C   UNL     1      30.830 -22.581 -12.621  0.00  0.00    -0.101 C 
ATOM     16  C   UNL     1      36.068 -25.872 -14.714  0.00  0.00    +0.007 C 
ATOM     17  C   UNL     1      34.171 -23.502 -18.316  0.00  0.00    -0.000 C 
ATOM     18  C   UNL     1      35.899 -21.329 -18.516  0.00  0.00    -0.004 C 
ATOM     19  C   UNL     1      37.309 -26.243 -14.253  0.00  0.00    +0.035 C 
ATOM     20  C   UNL     1      34.220 -22.758 -19.494  0.00  0.00    -0.000 C 
ATOM     21  C   UNL     1      35.081 -21.670 -19.593  0.00  0.00    -0.000 C 
ATOM     22  H   UNL     1      30.908 -24.131 -13.935  0.00  0.00    -0.080 HD
ENDROOT
TORSDOF 0
ENDMDL
MODEL 5
REMARK VINA RESULT:      -6.3      3.022      5.876
REMARK  Name = 27400
REMARK  0 active torsions:
REMARK  status: ('A' for Active; 'I' for Inactive)
REMARK                            x       y       z     vdW  Elec       q    Type
REMARK                         _______ _______ _______ _____ _____    ______ ____
ROOT
ATOM      1  S   UNL     1      30.711 -10.928 -20.098  0.00  0.00    -0.091 S 
ATOM      2  N   UNL     1      33.563 -13.534 -26.230  0.00  0.00    +0.386 N 
ATOM      3  C   UNL     1      33.615 -11.647 -24.044  0.00  0.00    -0.048 C 
ATOM      4  C   UNL     1      33.397 -13.114 -23.787  0.00  0.00    -0.001 C 
ATOM      5  C   UNL     1      34.334 -11.349 -25.332  0.00  0.00    -0.001 C 
ATOM      6  C   UNL     1      33.176 -10.690 -23.217  0.00  0.00    -0.008 C 
ATOM      7  C   UNL     1      32.770 -13.786 -25.014  0.00  0.00    -0.073 C 
ATOM      8  C   UNL     1      33.671 -12.090 -26.499  0.00  0.00    -0.073 C 
ATOM      9  C   UNL     1      33.479  -9.290 -23.629  0.00  0.00    -0.005 C 
ATOM     10  C   UNL     1      32.417 -11.014 -22.026  0.00  0.00    +0.002 C 
ATOM     11  C   UNL     1      32.446  -8.346 -23.794  0.00  0.00    -0.022 C 
ATOM     12  C   UNL     1      31.002  -8.717 -23.551  0.00  0.00    +0.032 C 
ATOM     13  C   UNL     1      30.727  -8.993 -22.072  0.00  0.00    +0.038 C 
ATOM     14  C   UNL     1      31.358 -10.257 -21.547  0.00  0.00    +0.008 C 
ATOM     15  C   UNL     1      32.974 -14.226 -27.376  0.00  0.00    -0.101 C 
ATOM     16  C   UNL     1      32.673 -12.152 -21.190  0.00  0.00    +0.007 C 
ATOM     17  C   UNL     1      34.812  -8.889 -23.830  0.00  0.00    -0.000 C 
ATOM     18  C   UNL     1      32.766  -7.033 -24.176  0.00  0.00    -0.004 C 
ATOM     19  C   UNL     1      31.818 -12.222 -20.115  0.00  0.00    +0.035 C 
ATOM     20  C   UNL     1      35.115  -7.581 -24.209  0.00  0.00    -0.000 C 
ATOM     21  C   UNL     1      34.092  -6.655 -24.385  0.00  0.00    -0.000 C 
ATOM     22  H   UNL     1      34.503 -13.898 -26.075  0.00  0.00    -0.080 HD
ENDROOT
TORSDOF 0
ENDMDL
MODEL 6
REMARK VINA RESULT:      -6.1      2.888      6.246
REMARK  Name = 27400
REMARK  0 active torsions:
REMARK  status: ('A' for Active; 'I' for Inactive)
REMARK                            x       y       z     vdW  Elec       q    Type
REMARK                         _______ _______ _______ _____ _____    ______ ____
ROOT
ATOM      1  S   UNL     1      31.083  -5.916 -20.991  0.00  0.00    -0.091 S 
ATOM      2  N   UNL     1      34.042 -11.511 -24.519  0.00  0.00    +0.386 N 
ATOM      3  C   UNL     1      34.016  -8.704 -23.844  0.00  0.00    -0.048 C 
ATOM      4  C   UNL     1      33.858  -9.752 -22.776  0.00  0.00    -0.001 C 
ATOM      5  C   UNL     1      34.724  -9.189 -25.080  0.00  0.00    -0.001 C 
ATOM      6  C   UNL     1      33.538  -7.459 -23.720  0.00  0.00    -0.008 C 
ATOM      7  C   UNL     1      33.259 -11.034 -23.366  0.00  0.00    -0.073 C 
ATOM      8  C   UNL     1      34.092 -10.493 -25.582  0.00  0.00    -0.073 C 
ATOM      9  C   UNL     1      33.785  -6.553 -24.877  0.00  0.00    -0.005 C 
ATOM     10  C   UNL     1      32.792  -7.053 -22.546  0.00  0.00    +0.002 C 
ATOM     11  C   UNL     1      32.715  -5.918 -25.537  0.00  0.00    -0.022 C 
ATOM     12  C   UNL     1      31.287  -6.125 -25.091  0.00  0.00    +0.032 C 
ATOM     13  C   UNL     1      31.022  -5.496 -23.722  0.00  0.00    +0.038 C 
ATOM     14  C   UNL     1      31.703  -6.195 -22.574  0.00  0.00    +0.008 C 
ATOM     15  C   UNL     1      33.483 -12.761 -25.034  0.00  0.00    -0.101 C 
ATOM     16  C   UNL     1      33.093  -7.481 -21.210  0.00  0.00    +0.007 C 
ATOM     17  C   UNL     1      35.100  -6.300 -25.305  0.00  0.00    -0.000 C 
ATOM     18  C   UNL     1      32.982  -5.064 -26.620  0.00  0.00    -0.004 C 
ATOM     19  C   UNL     1      32.241  -6.940 -20.276  0.00  0.00    +0.035 C 
ATOM     20  C   UNL     1      35.350  -5.449 -26.381  0.00  0.00    -0.000 C 
ATOM     21  C   UNL     1      34.291  -4.835 -27.041  0.00  0.00    -0.000 C 
ATOM     22  H   UNL     1      34.996 -11.686 -24.203  0.00  0.00    -0.080 HD
ENDROOT
TORSDOF 0
ENDMDL
MODEL 7
REMARK VINA RESULT:      -6.0      2.467      4.612
REMARK  Name = 27400
REMARK  0 active torsions:
REMARK  status: ('A' for Active; 'I' for Inactive)
REMARK                            x       y       z     vdW  Elec       q    Type
REMARK                         _______ _______ _______ _____ _____    ______ ____
ROOT
ATOM      1  S   UNL     1      31.067  -4.785 -22.233  0.00  0.00    -0.091 S 
ATOM      2  N   UNL     1      34.840 -10.139 -25.332  0.00  0.00    +0.386 N 
ATOM      3  C   UNL     1      32.618  -9.245 -23.719  0.00  0.00    -0.048 C 
ATOM      4  C   UNL     1      32.943  -8.566 -25.022  0.00  0.00    -0.001 C 
ATOM      5  C   UNL     1      33.113 -10.664 -23.626  0.00  0.00    -0.001 C 
ATOM      6  C   UNL     1      31.976  -8.631 -22.717  0.00  0.00    -0.008 C 
ATOM      7  C   UNL     1      34.431  -8.724 -25.353  0.00  0.00    -0.073 C 
ATOM      8  C   UNL     1      34.595 -10.741 -24.010  0.00  0.00    -0.073 C 
ATOM      9  C   UNL     1      31.739  -9.455 -21.499  0.00  0.00    -0.005 C 
ATOM     10  C   UNL     1      31.587  -7.239 -22.815  0.00  0.00    +0.002 C 
ATOM     11  C   UNL     1      32.209  -9.033 -20.239  0.00  0.00    -0.022 C 
ATOM     12  C   UNL     1      32.958  -7.732 -20.080  0.00  0.00    +0.032 C 
ATOM     13  C   UNL     1      32.053  -6.522 -20.323  0.00  0.00    +0.038 C 
ATOM     14  C   UNL     1      31.626  -6.343 -21.757  0.00  0.00    +0.008 C 
ATOM     15  C   UNL     1      36.250 -10.269 -25.700  0.00  0.00    -0.101 C 
ATOM     16  C   UNL     1      31.103  -6.619 -24.015  0.00  0.00    +0.007 C 
ATOM     17  C   UNL     1      31.015 -10.657 -21.592  0.00  0.00    -0.000 C 
ATOM     18  C   UNL     1      31.963  -9.830 -19.109  0.00  0.00    -0.004 C 
ATOM     19  C   UNL     1      30.789  -5.292 -23.835  0.00  0.00    +0.035 C 
ATOM     20  C   UNL     1      30.777 -11.437 -20.461  0.00  0.00    -0.000 C 
ATOM     21  C   UNL     1      31.255 -11.026 -19.221  0.00  0.00    -0.000 C 
ATOM     22  H   UNL     1      34.276 -10.641 -26.018  0.00  0.00    -0.080 HD
ENDROOT
TORSDOF 0
ENDMDL
MODEL 8
REMARK VINA RESULT:      -5.9      2.079      4.997
REMARK  Name = 27400
REMARK  0 active torsions:
REMARK  status: ('A' for Active; 'I' for Inactive)
REMARK                            x       y       z     vdW  Elec       q    Type
REMARK                         _______ _______ _______ _____ _____    ______ ____
ROOT
ATOM      1  S   UNL     1      34.221 -12.930 -25.397  0.00  0.00    -0.091 S 
ATOM      2  N   UNL     1      31.345 -10.598 -19.168  0.00  0.00    +0.386 N 
ATOM      3  C   UNL     1      31.681 -10.344 -22.024  0.00  0.00    -0.048 C 
ATOM      4  C   UNL     1      31.377 -11.680 -21.404  0.00  0.00    -0.001 C 
ATOM      5  C   UNL     1      31.241  -9.167 -21.196  0.00  0.00    -0.001 C 
ATOM      6  C   UNL     1      32.318 -10.212 -23.195  0.00  0.00    -0.008 C 
ATOM      7  C   UNL     1      31.876 -11.724 -19.955  0.00  0.00    -0.073 C 
ATOM      8  C   UNL     1      31.746  -9.308 -19.755  0.00  0.00    -0.073 C 
ATOM      9  C   UNL     1      32.536  -8.813 -23.659  0.00  0.00    -0.005 C 
ATOM     10  C   UNL     1      32.797 -11.368 -23.925  0.00  0.00    +0.002 C 
ATOM     11  C   UNL     1      33.833  -8.341 -23.943  0.00  0.00    -0.022 C 
ATOM     12  C   UNL     1      35.041  -9.235 -23.795  0.00  0.00    +0.032 C 
ATOM     13  C   UNL     1      35.051 -10.354 -24.838  0.00  0.00    +0.038 C 
ATOM     14  C   UNL     1      33.988 -11.403 -24.635  0.00  0.00    +0.008 C 
ATOM     15  C   UNL     1      31.793 -10.689 -17.779  0.00  0.00    -0.101 C 
ATOM     16  C   UNL     1      32.094 -12.616 -24.011  0.00  0.00    +0.007 C 
ATOM     17  C   UNL     1      31.439  -7.955 -23.848  0.00  0.00    -0.000 C 
ATOM     18  C   UNL     1      34.004  -7.019 -24.385  0.00  0.00    -0.004 C 
ATOM     19  C   UNL     1      32.759 -13.546 -24.776  0.00  0.00    +0.035 C 
ATOM     20  C   UNL     1      31.624  -6.644 -24.288  0.00  0.00    -0.000 C 
ATOM     21  C   UNL     1      32.907  -6.176 -24.553  0.00  0.00    -0.000 C 
ATOM     22  H   UNL     1      30.327 -10.651 -19.187  0.00  0.00    -0.080 HD
ENDROOT
TORSDOF 0
ENDMDL
MODEL 9
REMARK VINA RESULT:      -5.9     14.810     17.438
REMARK  Name = 27400
REMARK  0 active torsions:
REMARK  status: ('A' for Active; 'I' for Inactive)
REMARK                            x       y       z     vdW  Elec       q    Type
REMARK                         _______ _______ _______ _____ _____    ______ ____
ROOT
ATOM      1  S   UNL     1      31.087 -23.112 -15.295  0.00  0.00    -0.091 S 
ATOM      2  N   UNL     1      37.694 -25.812 -14.047  0.00  0.00    +0.386 N 
ATOM      3  C   UNL     1      35.995 -23.653 -14.935  0.00  0.00    -0.048 C 
ATOM      4  C   UNL     1      35.700 -24.385 -13.654  0.00  0.00    -0.001 C 
ATOM      5  C   UNL     1      37.436 -23.721 -15.363  0.00  0.00    -0.001 C 
ATOM      6  C   UNL     1      35.052 -23.025 -15.649  0.00  0.00    -0.008 C 
ATOM      7  C   UNL     1      36.261 -25.811 -13.709  0.00  0.00    -0.073 C 
ATOM      8  C   UNL     1      37.930 -25.172 -15.353  0.00  0.00    -0.073 C 
ATOM      9  C   UNL     1      35.523 -22.353 -16.892  0.00  0.00    -0.005 C 
ATOM     10  C   UNL     1      33.661 -23.050 -15.245  0.00  0.00    +0.002 C 
ATOM     11  C   UNL     1      34.963 -22.676 -18.145  0.00  0.00    -0.022 C 
ATOM     12  C   UNL     1      33.864 -23.704 -18.267  0.00  0.00    +0.032 C 
ATOM     13  C   UNL     1      32.559 -23.220 -17.632  0.00  0.00    +0.038 C 
ATOM     14  C   UNL     1      32.595 -23.132 -16.128  0.00  0.00    +0.008 C 
ATOM     15  C   UNL     1      38.218 -27.178 -14.045  0.00  0.00    -0.101 C 
ATOM     16  C   UNL     1      33.215 -22.984 -13.883  0.00  0.00    +0.007 C 
ATOM     17  C   UNL     1      36.518 -21.362 -16.823  0.00  0.00    -0.000 C 
ATOM     18  C   UNL     1      35.424 -22.019 -19.297  0.00  0.00    -0.004 C 
ATOM     19  C   UNL     1      31.844 -23.011 -13.773  0.00  0.00    +0.035 C 
ATOM     20  C   UNL     1      36.966 -20.717 -17.976  0.00  0.00    -0.000 C 
ATOM     21  C   UNL     1      36.421 -21.049 -19.212  0.00  0.00    -0.000 C 
ATOM     22  H   UNL     1      38.187 -25.272 -13.336  0.00  0.00    -0.080 HD
ENDROOT
TORSDOF 0
ENDMDL
