MODEL 1
REMARK VINA RESULT:     -11.3      0.000      0.000
REMARK  Name = 2448
REMARK  7 active torsions:
REMARK  status: ('A' for Active; 'I' for Inactive)
REMARK    1  A    between atoms: N_1  and  C_17
REMARK    2  A    between atoms: C_2  and  C_9
REMARK    3  A    between atoms: C_2  and  O_15
REMARK    4  A    between atoms: C_17  and  C_18
REMARK    5  A    between atoms: C_18  and  C_19
REMARK    6  A    between atoms: C_19  and  C_21
REMARK    7  A    between atoms: C_21  and  C_23
REMARK                            x       y       z     vdW  Elec       q    Type
REMARK                         _______ _______ _______ _____ _____    ______ ____
ROOT
ATOM      1  N   UNL     1      34.238 -16.467 -23.659  0.00  0.00    +0.387 N 
ATOM      2  C   UNL     1      35.084 -18.659 -21.841  0.00  0.00    +0.103 C 
ATOM      3  C   UNL     1      34.620 -18.880 -23.298  0.00  0.00    +0.008 C 
ATOM      4  C   UNL     1      34.515 -17.310 -21.342  0.00  0.00    +0.008 C 
ATOM      5  C   UNL     1      34.881 -17.670 -24.202  0.00  0.00    -0.075 C 
ATOM      6  C   UNL     1      34.750 -16.154 -22.321  0.00  0.00    -0.075 C 
ATOM      7  H   UNL     1      33.239 -16.652 -23.579  0.00  0.00    -0.080 HD
ENDROOT
BRANCH   2   9
ATOM      8 BR   UNL     1      33.624 -23.226 -17.898  0.00  0.00    -0.049 Br
ATOM      9  C   UNL     1      34.724 -19.785 -20.871  0.00  0.00    +0.002 C 
ATOM     10  C   UNL     1      33.390 -20.029 -20.551  0.00  0.00    -0.002 C 
ATOM     11  C   UNL     1      35.733 -20.566 -20.307  0.00  0.00    -0.002 C 
ATOM     12  C   UNL     1      33.061 -21.055 -19.666  0.00  0.00    +0.006 C 
ATOM     13  C   UNL     1      35.405 -21.592 -19.420  0.00  0.00    +0.006 C 
ATOM     14  C   UNL     1      34.068 -21.836 -19.100  0.00  0.00    +0.035 C 
ENDBRANCH   2   9
BRANCH   2  15
ATOM     15  O   UNL     1      36.518 -18.600 -21.841  0.00  0.00    -0.383 OA
ATOM     16  H   UNL     1      36.837 -18.474 -20.933  0.00  0.00    +0.211 HD
ENDBRANCH   2  15
BRANCH   1  17
ATOM     17  C   UNL     1      34.431 -15.333 -24.561  0.00  0.00    -0.077 C 
BRANCH  17  18
ATOM     18  C   UNL     1      33.315 -14.305 -24.366  0.00  0.00    -0.015 C 
BRANCH  18  19
ATOM     19  C   UNL     1      33.816 -13.022 -23.696  0.00  0.00    +0.067 C 
BRANCH  19  21
ATOM     20  O   UNL     1      33.957 -11.956 -25.856  0.00  0.00    -0.291 OA
ATOM     21  C   UNL     1      33.863 -11.827 -24.638  0.00  0.00    +0.173 C 
BRANCH  21  23
ATOM     22  F   UNL     1      33.510  -6.695 -22.468  0.00  0.00    -0.204 F 
ATOM     23  C   UNL     1      33.769 -10.457 -24.058  0.00  0.00    +0.035 C 
ATOM     24  C   UNL     1      32.677 -10.142 -23.281  0.00  0.00    +0.005 C 
ATOM     25  C   UNL     1      34.777  -9.557 -24.323  0.00  0.00    +0.005 C 
ATOM     26  C   UNL     1      32.589  -8.860 -22.739  0.00  0.00    +0.030 C 
ATOM     27  C   UNL     1      34.689  -8.276 -23.780  0.00  0.00    +0.030 C 
ATOM     28  C   UNL     1      33.596  -7.926 -22.988  0.00  0.00    +0.140 C 
ENDBRANCH  21  23
ENDBRANCH  19  21
ENDBRANCH  18  19
ENDBRANCH  17  18
ENDBRANCH   1  17
TORSDOF 7
ENDMDL
MODEL 2
REMARK VINA RESULT:     -11.2      1.232      1.909
REMARK  Name = 2448
REMARK  7 active torsions:
REMARK  status: ('A' for Active; 'I' for Inactive)
REMARK    1  A    between atoms: N_1  and  C_17
REMARK    2  A    between atoms: C_2  and  C_9
REMARK    3  A    between atoms: C_2  and  O_15
REMARK    4  A    between atoms: C_17  and  C_18
REMARK    5  A    between atoms: C_18  and  C_19
REMARK    6  A    between atoms: C_19  and  C_21
REMARK    7  A    between atoms: C_21  and  C_23
REMARK                            x       y       z     vdW  Elec       q    Type
REMARK                         _______ _______ _______ _____ _____    ______ ____
ROOT
ATOM      1  N   UNL     1      34.260 -16.546 -23.511  0.00  0.00    +0.387 N 
ATOM      2  C   UNL     1      35.103 -18.739 -21.693  0.00  0.00    +0.103 C 
ATOM      3  C   UNL     1      34.657 -18.957 -23.156  0.00  0.00    +0.008 C 
ATOM      4  C   UNL     1      34.518 -17.397 -21.195  0.00  0.00    +0.008 C 
ATOM      5  C   UNL     1      34.918 -17.741 -24.051  0.00  0.00    -0.075 C 
ATOM      6  C   UNL     1      34.755 -16.235 -22.166  0.00  0.00    -0.075 C 
ATOM      7  H   UNL     1      33.261 -16.739 -23.442  0.00  0.00    -0.080 HD
ENDROOT
BRANCH   2   9
ATOM      8 BR   UNL     1      33.635 -23.344 -17.798  0.00  0.00    -0.049 Br
ATOM      9  C   UNL     1      34.741 -19.872 -20.732  0.00  0.00    +0.002 C 
ATOM     10  C   UNL     1      35.748 -20.644 -20.156  0.00  0.00    -0.002 C 
ATOM     11  C   UNL     1      33.404 -20.133 -20.436  0.00  0.00    -0.002 C 
ATOM     12  C   UNL     1      35.420 -21.679 -19.280  0.00  0.00    +0.006 C 
ATOM     13  C   UNL     1      33.074 -21.168 -19.560  0.00  0.00    +0.006 C 
ATOM     14  C   UNL     1      34.082 -21.941 -18.983  0.00  0.00    +0.035 C 
ENDBRANCH   2   9
BRANCH   2  15
ATOM     15  O   UNL     1      36.537 -18.669 -21.677  0.00  0.00    -0.383 OA
ATOM     16  H   UNL     1      36.814 -17.810 -21.320  0.00  0.00    +0.211 HD
ENDBRANCH   2  15
BRANCH   1  17
ATOM     17  C   UNL     1      34.454 -15.406 -24.406  0.00  0.00    -0.077 C 
BRANCH  17  18
ATOM     18  C   UNL     1      33.550 -15.536 -25.633  0.00  0.00    -0.015 C 
BRANCH  18  19
ATOM     19  C   UNL     1      32.771 -14.249 -25.921  0.00  0.00    +0.067 C 
BRANCH  19  21
ATOM     20  O   UNL     1      33.877 -13.288 -27.839  0.00  0.00    -0.291 OA
ATOM     21  C   UNL     1      33.595 -13.194 -26.647  0.00  0.00    +0.173 C 
BRANCH  21  23
ATOM     22  F   UNL     1      35.312  -8.713 -23.794  0.00  0.00    -0.204 F 
ATOM     23  C   UNL     1      34.054 -11.998 -25.885  0.00  0.00    +0.035 C 
ATOM     24  C   UNL     1      33.490 -11.741 -24.656  0.00  0.00    +0.005 C 
ATOM     25  C   UNL     1      35.024 -11.193 -26.440  0.00  0.00    +0.005 C 
ATOM     26  C   UNL     1      33.919 -10.622 -23.943  0.00  0.00    +0.030 C 
ATOM     27  C   UNL     1      35.453 -10.075 -25.727  0.00  0.00    +0.030 C 
ATOM     28  C   UNL     1      34.901  -9.788 -24.479  0.00  0.00    +0.140 C 
ENDBRANCH  21  23
ENDBRANCH  19  21
ENDBRANCH  18  19
ENDBRANCH  17  18
ENDBRANCH   1  17
TORSDOF 7
ENDMDL
MODEL 3
REMARK VINA RESULT:     -11.2      4.879     10.100
REMARK  Name = 2448
REMARK  7 active torsions:
REMARK  status: ('A' for Active; 'I' for Inactive)
REMARK    1  A    between atoms: N_1  and  C_17
REMARK    2  A    between atoms: C_2  and  C_9
REMARK    3  A    between atoms: C_2  and  O_15
REMARK    4  A    between atoms: C_17  and  C_18
REMARK    5  A    between atoms: C_18  and  C_19
REMARK    6  A    between atoms: C_19  and  C_21
REMARK    7  A    between atoms: C_21  and  C_23
REMARK                            x       y       z     vdW  Elec       q    Type
REMARK                         _______ _______ _______ _____ _____    ______ ____
ROOT
ATOM      1  N   UNL     1      34.400 -16.087 -24.663  0.00  0.00    +0.387 N 
ATOM      2  C   UNL     1      33.311 -13.406 -23.993  0.00  0.00    +0.103 C 
ATOM      3  C   UNL     1      33.363 -13.979 -25.426  0.00  0.00    +0.008 C 
ATOM      4  C   UNL     1      34.368 -14.135 -23.131  0.00  0.00    +0.008 C 
ATOM      5  C   UNL     1      33.312 -15.511 -25.462  0.00  0.00    -0.075 C 
ATOM      6  C   UNL     1      34.308 -15.662 -23.263  0.00  0.00    -0.075 C 
ATOM      7  H   UNL     1      35.283 -15.744 -25.039  0.00  0.00    -0.080 HD
ENDROOT
BRANCH   2   9
ATOM      8 BR   UNL     1      34.050  -7.254 -23.611  0.00  0.00    -0.049 Br
ATOM      9  C   UNL     1      33.494 -11.890 -23.897  0.00  0.00    +0.002 C 
ATOM     10  C   UNL     1      32.684 -11.143 -23.045  0.00  0.00    -0.002 C 
ATOM     11  C   UNL     1      34.472 -11.258 -24.666  0.00  0.00    -0.002 C 
ATOM     12  C   UNL     1      32.849  -9.761 -22.958  0.00  0.00    +0.006 C 
ATOM     13  C   UNL     1      34.638  -9.875 -24.580  0.00  0.00    +0.006 C 
ATOM     14  C   UNL     1      33.826  -9.127 -23.726  0.00  0.00    +0.035 C 
ENDBRANCH   2   9
BRANCH   2  15
ATOM     15  O   UNL     1      32.003 -13.665 -23.463  0.00  0.00    -0.383 OA
ATOM     16  H   UNL     1      32.083 -14.045 -22.573  0.00  0.00    +0.211 HD
ENDBRANCH   2  15
BRANCH   1  17
ATOM     17  C   UNL     1      34.388 -17.546 -24.758  0.00  0.00    -0.077 C 
BRANCH  17  18
ATOM     18  C   UNL     1      35.329 -18.153 -23.716  0.00  0.00    -0.015 C 
BRANCH  18  19
ATOM     19  C   UNL     1      34.621 -19.166 -22.813  0.00  0.00    +0.067 C 
BRANCH  19  21
ATOM     20  O   UNL     1      35.604 -18.076 -20.897  0.00  0.00    -0.291 OA
ATOM     21  C   UNL     1      35.037 -19.067 -21.351  0.00  0.00    +0.173 C 
BRANCH  21  23
ATOM     22  F   UNL     1      33.859 -23.327 -17.941  0.00  0.00    -0.204 F 
ATOM     23  C   UNL     1      34.722 -20.205 -20.441  0.00  0.00    +0.035 C 
ATOM     24  C   UNL     1      33.402 -20.515 -20.202  0.00  0.00    +0.005 C 
ATOM     25  C   UNL     1      35.764 -20.903 -19.871  0.00  0.00    +0.005 C 
ATOM     26  C   UNL     1      33.108 -21.579 -19.351  0.00  0.00    +0.030 C 
ATOM     27  C   UNL     1      35.470 -21.967 -19.020  0.00  0.00    +0.030 C 
ATOM     28  C   UNL     1      34.142 -22.306 -18.759  0.00  0.00    +0.140 C 
ENDBRANCH  21  23
ENDBRANCH  19  21
ENDBRANCH  18  19
ENDBRANCH  17  18
ENDBRANCH   1  17
TORSDOF 7
ENDMDL
MODEL 4
REMARK VINA RESULT:     -11.2      1.993      2.557
REMARK  Name = 2448
REMARK  7 active torsions:
REMARK  status: ('A' for Active; 'I' for Inactive)
REMARK    1  A    between atoms: N_1  and  C_17
REMARK    2  A    between atoms: C_2  and  C_9
REMARK    3  A    between atoms: C_2  and  O_15
REMARK    4  A    between atoms: C_17  and  C_18
REMARK    5  A    between atoms: C_18  and  C_19
REMARK    6  A    between atoms: C_19  and  C_21
REMARK    7  A    between atoms: C_21  and  C_23
REMARK                            x       y       z     vdW  Elec       q    Type
REMARK                         _______ _______ _______ _____ _____    ______ ____
ROOT
ATOM      1  N   UNL     1      34.329 -16.444 -23.454  0.00  0.00    +0.387 N 
ATOM      2  C   UNL     1      35.139 -18.707 -21.707  0.00  0.00    +0.103 C 
ATOM      3  C   UNL     1      34.623 -18.878 -23.153  0.00  0.00    +0.008 C 
ATOM      4  C   UNL     1      34.640 -17.347 -21.164  0.00  0.00    +0.008 C 
ATOM      5  C   UNL     1      34.905 -17.660 -24.040  0.00  0.00    -0.075 C 
ATOM      6  C   UNL     1      34.893 -16.181 -22.126  0.00  0.00    -0.075 C 
ATOM      7  H   UNL     1      33.326 -16.591 -23.346  0.00  0.00    -0.080 HD
ENDROOT
BRANCH   2   9
ATOM      8 BR   UNL     1      33.611 -23.305 -17.826  0.00  0.00    -0.049 Br
ATOM      9  C   UNL     1      34.762 -19.838 -20.749  0.00  0.00    +0.002 C 
ATOM     10  C   UNL     1      35.760 -20.600 -20.146  0.00  0.00    -0.002 C 
ATOM     11  C   UNL     1      33.420 -20.107 -20.484  0.00  0.00    -0.002 C 
ATOM     12  C   UNL     1      35.418 -21.633 -19.273  0.00  0.00    +0.006 C 
ATOM     13  C   UNL     1      33.076 -21.141 -19.612  0.00  0.00    +0.006 C 
ATOM     14  C   UNL     1      34.076 -21.903 -19.006  0.00  0.00    +0.035 C 
ENDBRANCH   2   9
BRANCH   2  15
ATOM     15  O   UNL     1      36.573 -18.706 -21.750  0.00  0.00    -0.383 OA
ATOM     16  H   UNL     1      36.876 -19.327 -22.432  0.00  0.00    +0.211 HD
ENDBRANCH   2  15
BRANCH   1  17
ATOM     17  C   UNL     1      34.541 -15.299 -24.338  0.00  0.00    -0.077 C 
BRANCH  17  18
ATOM     18  C   UNL     1      33.223 -14.557 -24.569  0.00  0.00    -0.015 C 
BRANCH  18  19
ATOM     19  C   UNL     1      33.130 -13.268 -23.748  0.00  0.00    +0.067 C 
BRANCH  19  21
ATOM     20  O   UNL     1      32.007 -14.539 -22.031  0.00  0.00    -0.291 OA
ATOM     21  C   UNL     1      32.372 -13.439 -22.439  0.00  0.00    +0.173 C 
BRANCH  21  23
ATOM     22  F   UNL     1      31.294  -8.907 -19.362  0.00  0.00    -0.204 F 
ATOM     23  C   UNL     1      32.085 -12.229 -21.617  0.00  0.00    +0.035 C 
ATOM     24  C   UNL     1      31.925 -12.375 -20.257  0.00  0.00    +0.005 C 
ATOM     25  C   UNL     1      31.988 -11.009 -22.249  0.00  0.00    +0.005 C 
ATOM     26  C   UNL     1      31.657 -11.243 -19.489  0.00  0.00    +0.030 C 
ATOM     27  C   UNL     1      31.719  -9.877 -21.481  0.00  0.00    +0.030 C 
ATOM     28  C   UNL     1      31.553  -9.993 -20.100  0.00  0.00    +0.140 C 
ENDBRANCH  21  23
ENDBRANCH  19  21
ENDBRANCH  18  19
ENDBRANCH  17  18
ENDBRANCH   1  17
TORSDOF 7
ENDMDL
MODEL 5
REMARK VINA RESULT:     -11.0      3.296      5.294
REMARK  Name = 2448
REMARK  7 active torsions:
REMARK  status: ('A' for Active; 'I' for Inactive)
REMARK    1  A    between atoms: N_1  and  C_17
REMARK    2  A    between atoms: C_2  and  C_9
REMARK    3  A    between atoms: C_2  and  O_15
REMARK    4  A    between atoms: C_17  and  C_18
REMARK    5  A    between atoms: C_18  and  C_19
REMARK    6  A    between atoms: C_19  and  C_21
REMARK    7  A    between atoms: C_21  and  C_23
REMARK                            x       y       z     vdW  Elec       q    Type
REMARK                         _______ _______ _______ _____ _____    ______ ____
ROOT
ATOM      1  N   UNL     1      35.378 -20.122 -20.201  0.00  0.00    +0.387 N 
ATOM      2  C   UNL     1      34.049 -22.337 -18.733  0.00  0.00    +0.103 C 
ATOM      3  C   UNL     1      33.288 -21.182 -19.420  0.00  0.00    +0.008 C 
ATOM      4  C   UNL     1      35.496 -21.871 -18.445  0.00  0.00    +0.008 C 
ATOM      5  C   UNL     1      34.048 -20.587 -20.611  0.00  0.00    -0.075 C 
ATOM      6  C   UNL     1      36.177 -21.225 -19.657  0.00  0.00    -0.075 C 
ATOM      7  H   UNL     1      35.256 -19.429 -19.464  0.00  0.00    -0.080 HD
ENDROOT
BRANCH   2   9
ATOM      8 BR   UNL     1      31.391 -24.506 -13.559  0.00  0.00    -0.049 Br
ATOM      9  C   UNL     1      33.394 -22.873 -17.458  0.00  0.00    +0.002 C 
ATOM     10  C   UNL     1      32.008 -22.843 -17.323  0.00  0.00    -0.002 C 
ATOM     11  C   UNL     1      34.187 -23.389 -16.434  0.00  0.00    -0.002 C 
ATOM     12  C   UNL     1      31.410 -23.331 -16.161  0.00  0.00    +0.006 C 
ATOM     13  C   UNL     1      33.589 -23.877 -15.271  0.00  0.00    +0.006 C 
ATOM     14  C   UNL     1      32.201 -23.848 -15.135  0.00  0.00    +0.035 C 
ENDBRANCH   2   9
BRANCH   2  15
ATOM     15  O   UNL     1      34.078 -23.446 -19.643  0.00  0.00    -0.383 OA
ATOM     16  H   UNL     1      34.234 -23.122 -20.544  0.00  0.00    +0.211 HD
ENDBRANCH   2  15
BRANCH   1  17
ATOM     17  C   UNL     1      36.070 -19.493 -21.325  0.00  0.00    -0.077 C 
BRANCH  17  18
ATOM     18  C   UNL     1      35.057 -18.880 -22.294  0.00  0.00    -0.015 C 
BRANCH  18  19
ATOM     19  C   UNL     1      35.333 -17.398 -22.564  0.00  0.00    +0.067 C 
BRANCH  19  21
ATOM     20  O   UNL     1      35.218 -16.691 -20.260  0.00  0.00    -0.291 OA
ATOM     21  C   UNL     1      34.896 -16.485 -21.427  0.00  0.00    +0.173 C 
BRANCH  21  23
ATOM     22  F   UNL     1      31.786 -12.010 -22.640  0.00  0.00    -0.204 F 
ATOM     23  C   UNL     1      34.066 -15.290 -21.751  0.00  0.00    +0.035 C 
ATOM     24  C   UNL     1      33.196 -14.811 -20.797  0.00  0.00    +0.005 C 
ATOM     25  C   UNL     1      34.198 -14.710 -22.993  0.00  0.00    +0.005 C 
ATOM     26  C   UNL     1      32.420 -13.693 -21.100  0.00  0.00    +0.030 C 
ATOM     27  C   UNL     1      33.422 -13.592 -23.296  0.00  0.00    +0.030 C 
ATOM     28  C   UNL     1      32.533 -13.083 -22.350  0.00  0.00    +0.140 C 
ENDBRANCH  21  23
ENDBRANCH  19  21
ENDBRANCH  18  19
ENDBRANCH  17  18
ENDBRANCH   1  17
TORSDOF 7
ENDMDL
MODEL 6
REMARK VINA RESULT:     -10.9      3.304      5.479
REMARK  Name = 2448
REMARK  7 active torsions:
REMARK  status: ('A' for Active; 'I' for Inactive)
REMARK    1  A    between atoms: N_1  and  C_17
REMARK    2  A    between atoms: C_2  and  C_9
REMARK    3  A    between atoms: C_2  and  O_15
REMARK    4  A    between atoms: C_17  and  C_18
REMARK    5  A    between atoms: C_18  and  C_19
REMARK    6  A    between atoms: C_19  and  C_21
REMARK    7  A    between atoms: C_21  and  C_23
REMARK                            x       y       z     vdW  Elec       q    Type
REMARK                         _______ _______ _______ _____ _____    ______ ____
ROOT
ATOM      1  N   UNL     1      35.293 -20.086 -20.205  0.00  0.00    +0.387 N 
ATOM      2  C   UNL     1      33.973 -22.310 -18.745  0.00  0.00    +0.103 C 
ATOM      3  C   UNL     1      33.207 -21.157 -19.430  0.00  0.00    +0.008 C 
ATOM      4  C   UNL     1      35.417 -21.839 -18.454  0.00  0.00    +0.008 C 
ATOM      5  C   UNL     1      33.966 -20.555 -20.619  0.00  0.00    -0.075 C 
ATOM      6  C   UNL     1      36.097 -21.186 -19.663  0.00  0.00    -0.075 C 
ATOM      7  H   UNL     1      35.168 -19.394 -19.466  0.00  0.00    -0.080 HD
ENDROOT
BRANCH   2   9
ATOM      8 BR   UNL     1      31.317 -24.521 -13.588  0.00  0.00    -0.049 Br
ATOM      9  C   UNL     1      33.319 -22.853 -17.474  0.00  0.00    +0.002 C 
ATOM     10  C   UNL     1      34.108 -23.399 -16.463  0.00  0.00    -0.002 C 
ATOM     11  C   UNL     1      31.932 -22.802 -17.329  0.00  0.00    -0.002 C 
ATOM     12  C   UNL     1      33.512 -23.896 -15.305  0.00  0.00    +0.006 C 
ATOM     13  C   UNL     1      31.335 -23.299 -16.170  0.00  0.00    +0.006 C 
ATOM     14  C   UNL     1      32.126 -23.846 -15.158  0.00  0.00    +0.035 C 
ENDBRANCH   2   9
BRANCH   2  15
ATOM     15  O   UNL     1      34.008 -23.417 -19.658  0.00  0.00    -0.383 OA
ATOM     16  H   UNL     1      34.922 -23.572 -19.944  0.00  0.00    +0.211 HD
ENDBRANCH   2  15
BRANCH   1  17
ATOM     17  C   UNL     1      35.984 -19.449 -21.326  0.00  0.00    -0.077 C 
BRANCH  17  18
ATOM     18  C   UNL     1      34.975 -19.008 -22.388  0.00  0.00    -0.015 C 
BRANCH  18  19
ATOM     19  C   UNL     1      35.632 -18.209 -23.517  0.00  0.00    +0.067 C 
BRANCH  19  21
ATOM     20  O   UNL     1      34.113 -18.251 -25.392  0.00  0.00    -0.291 OA
ATOM     21  C   UNL     1      34.630 -17.599 -24.488  0.00  0.00    +0.173 C 
BRANCH  21  23
ATOM     22  F   UNL     1      33.213 -12.237 -23.849  0.00  0.00    -0.204 F 
ATOM     23  C   UNL     1      34.252 -16.167 -24.318  0.00  0.00    +0.035 C 
ATOM     24  C   UNL     1      34.597 -15.527 -23.148  0.00  0.00    +0.005 C 
ATOM     25  C   UNL     1      33.571 -15.537 -25.336  0.00  0.00    +0.005 C 
ATOM     26  C   UNL     1      34.243 -14.188 -22.989  0.00  0.00    +0.030 C 
ATOM     27  C   UNL     1      33.218 -14.198 -25.176  0.00  0.00    +0.030 C 
ATOM     28  C   UNL     1      33.553 -13.522 -24.003  0.00  0.00    +0.140 C 
ENDBRANCH  21  23
ENDBRANCH  19  21
ENDBRANCH  18  19
ENDBRANCH  17  18
ENDBRANCH   1  17
TORSDOF 7
ENDMDL
MODEL 7
REMARK VINA RESULT:     -10.8      3.369      5.502
REMARK  Name = 2448
REMARK  7 active torsions:
REMARK  status: ('A' for Active; 'I' for Inactive)
REMARK    1  A    between atoms: N_1  and  C_17
REMARK    2  A    between atoms: C_2  and  C_9
REMARK    3  A    between atoms: C_2  and  O_15
REMARK    4  A    between atoms: C_17  and  C_18
REMARK    5  A    between atoms: C_18  and  C_19
REMARK    6  A    between atoms: C_19  and  C_21
REMARK    7  A    between atoms: C_21  and  C_23
REMARK                            x       y       z     vdW  Elec       q    Type
REMARK                         _______ _______ _______ _____ _____    ______ ____
ROOT
ATOM      1  N   UNL     1      35.255 -20.182 -20.145  0.00  0.00    +0.387 N 
ATOM      2  C   UNL     1      33.915 -22.381 -18.664  0.00  0.00    +0.103 C 
ATOM      3  C   UNL     1      33.159 -21.236 -19.373  0.00  0.00    +0.008 C 
ATOM      4  C   UNL     1      35.357 -21.910 -18.367  0.00  0.00    +0.008 C 
ATOM      5  C   UNL     1      33.930 -20.654 -20.564  0.00  0.00    -0.075 C 
ATOM      6  C   UNL     1      36.050 -21.277 -19.579  0.00  0.00    -0.075 C 
ATOM      7  H   UNL     1      35.125 -19.480 -19.417  0.00  0.00    -0.080 HD
ENDROOT
BRANCH   2   9
ATOM      8 BR   UNL     1      31.206 -24.493 -13.493  0.00  0.00    -0.049 Br
ATOM      9  C   UNL     1      33.247 -22.903 -17.391  0.00  0.00    +0.002 C 
ATOM     10  C   UNL     1      31.861 -22.850 -17.259  0.00  0.00    -0.002 C 
ATOM     11  C   UNL     1      34.028 -23.430 -16.362  0.00  0.00    -0.002 C 
ATOM     12  C   UNL     1      31.251 -23.324 -16.098  0.00  0.00    +0.006 C 
ATOM     13  C   UNL     1      33.419 -23.905 -15.200  0.00  0.00    +0.006 C 
ATOM     14  C   UNL     1      32.030 -23.851 -15.069  0.00  0.00    +0.035 C 
ENDBRANCH   2   9
BRANCH   2  15
ATOM     15  O   UNL     1      33.954 -23.501 -19.560  0.00  0.00    -0.383 OA
ATOM     16  H   UNL     1      33.294 -24.158 -19.286  0.00  0.00    +0.211 HD
ENDBRANCH   2  15
BRANCH   1  17
ATOM     17  C   UNL     1      35.958 -19.565 -21.269  0.00  0.00    -0.077 C 
BRANCH  17  18
ATOM     18  C   UNL     1      34.955 -18.989 -22.269  0.00  0.00    -0.015 C 
BRANCH  18  19
ATOM     19  C   UNL     1      35.640 -18.234 -23.412  0.00  0.00    +0.067 C 
BRANCH  19  21
ATOM     20  O   UNL     1      34.193 -18.378 -25.338  0.00  0.00    -0.291 OA
ATOM     21  C   UNL     1      34.665 -17.681 -24.442  0.00  0.00    +0.173 C 
BRANCH  21  23
ATOM     22  F   UNL     1      33.135 -12.325 -24.070  0.00  0.00    -0.204 F 
ATOM     23  C   UNL     1      34.256 -16.252 -24.343  0.00  0.00    +0.035 C 
ATOM     24  C   UNL     1      33.546 -15.693 -25.381  0.00  0.00    +0.005 C 
ATOM     25  C   UNL     1      34.605 -15.541 -23.216  0.00  0.00    +0.005 C 
ATOM     26  C   UNL     1      33.163 -14.356 -25.288  0.00  0.00    +0.030 C 
ATOM     27  C   UNL     1      34.223 -14.204 -23.122  0.00  0.00    +0.030 C 
ATOM     28  C   UNL     1      33.501 -13.610 -24.158  0.00  0.00    +0.140 C 
ENDBRANCH  21  23
ENDBRANCH  19  21
ENDBRANCH  18  19
ENDBRANCH  17  18
ENDBRANCH   1  17
TORSDOF 7
ENDMDL
MODEL 8
REMARK VINA RESULT:     -10.5      5.825     11.230
REMARK  Name = 2448
REMARK  7 active torsions:
REMARK  status: ('A' for Active; 'I' for Inactive)
REMARK    1  A    between atoms: N_1  and  C_17
REMARK    2  A    between atoms: C_2  and  C_9
REMARK    3  A    between atoms: C_2  and  O_15
REMARK    4  A    between atoms: C_17  and  C_18
REMARK    5  A    between atoms: C_18  and  C_19
REMARK    6  A    between atoms: C_19  and  C_21
REMARK    7  A    between atoms: C_21  and  C_23
REMARK                            x       y       z     vdW  Elec       q    Type
REMARK                         _______ _______ _______ _____ _____    ______ ____
ROOT
ATOM      1  N   UNL     1      35.408 -20.529 -19.663  0.00  0.00    +0.387 N 
ATOM      2  C   UNL     1      34.977 -18.597 -21.878  0.00  0.00    +0.103 C 
ATOM      3  C   UNL     1      36.314 -18.754 -21.121  0.00  0.00    +0.008 C 
ATOM      4  C   UNL     1      33.837 -19.131 -20.980  0.00  0.00    +0.008 C 
ATOM      5  C   UNL     1      36.519 -20.161 -20.548  0.00  0.00    -0.075 C 
ATOM      6  C   UNL     1      34.131 -20.513 -20.385  0.00  0.00    -0.075 C 
ATOM      7  H   UNL     1      35.356 -19.836 -18.916  0.00  0.00    -0.080 HD
ENDROOT
BRANCH   2   9
ATOM      8 BR   UNL     1      33.724 -12.830 -23.802  0.00  0.00    -0.049 Br
ATOM      9  C   UNL     1      34.666 -17.176 -22.352  0.00  0.00    +0.002 C 
ATOM     10  C   UNL     1      34.551 -16.906 -23.714  0.00  0.00    -0.002 C 
ATOM     11  C   UNL     1      34.501 -16.153 -21.419  0.00  0.00    -0.002 C 
ATOM     12  C   UNL     1      34.269 -15.611 -24.147  0.00  0.00    +0.006 C 
ATOM     13  C   UNL     1      34.219 -14.856 -21.852  0.00  0.00    +0.006 C 
ATOM     14  C   UNL     1      34.104 -14.586 -23.216  0.00  0.00    +0.035 C 
ENDBRANCH   2   9
BRANCH   2  15
ATOM     15  O   UNL     1      35.053 -19.389 -23.072  0.00  0.00    -0.383 OA
ATOM     16  H   UNL     1      35.215 -18.810 -23.834  0.00  0.00    +0.211 HD
ENDBRANCH   2  15
BRANCH   1  17
ATOM     17  C   UNL     1      35.643 -21.842 -19.064  0.00  0.00    -0.077 C 
BRANCH  17  18
ATOM     18  C   UNL     1      34.367 -22.684 -19.117  0.00  0.00    -0.015 C 
BRANCH  18  19
ATOM     19  C   UNL     1      33.919 -23.149 -17.728  0.00  0.00    +0.067 C 
BRANCH  19  21
ATOM     20  O   UNL     1      31.800 -22.074 -18.150  0.00  0.00    -0.291 OA
ATOM     21  C   UNL     1      32.491 -22.746 -17.388  0.00  0.00    +0.173 C 
BRANCH  21  23
ATOM     22  F   UNL     1      30.314 -24.456 -12.540  0.00  0.00    -0.204 F 
ATOM     23  C   UNL     1      31.910 -23.203 -16.093  0.00  0.00    +0.035 C 
ATOM     24  C   UNL     1      30.541 -23.303 -15.982  0.00  0.00    +0.005 C 
ATOM     25  C   UNL     1      32.763 -23.507 -15.056  0.00  0.00    +0.005 C 
ATOM     26  C   UNL     1      29.998 -23.730 -14.771  0.00  0.00    +0.030 C 
ATOM     27  C   UNL     1      32.220 -23.935 -13.846  0.00  0.00    +0.030 C 
ATOM     28  C   UNL     1      30.837 -24.047 -13.702  0.00  0.00    +0.140 C 
ENDBRANCH  21  23
ENDBRANCH  19  21
ENDBRANCH  18  19
ENDBRANCH  17  18
ENDBRANCH   1  17
TORSDOF 7
ENDMDL
MODEL 9
REMARK VINA RESULT:     -10.5      4.969     10.346
REMARK  Name = 2448
REMARK  7 active torsions:
REMARK  status: ('A' for Active; 'I' for Inactive)
REMARK    1  A    between atoms: N_1  and  C_17
REMARK    2  A    between atoms: C_2  and  C_9
REMARK    3  A    between atoms: C_2  and  O_15
REMARK    4  A    between atoms: C_17  and  C_18
REMARK    5  A    between atoms: C_18  and  C_19
REMARK    6  A    between atoms: C_19  and  C_21
REMARK    7  A    between atoms: C_21  and  C_23
REMARK                            x       y       z     vdW  Elec       q    Type
REMARK                         _______ _______ _______ _____ _____    ______ ____
ROOT
ATOM      1  N   UNL     1      34.036 -15.477 -21.609  0.00  0.00    +0.387 N 
ATOM      2  C   UNL     1      32.804 -13.070 -22.840  0.00  0.00    +0.103 C 
ATOM      3  C   UNL     1      34.165 -13.657 -23.274  0.00  0.00    +0.008 C 
ATOM      4  C   UNL     1      32.503 -13.537 -21.397  0.00  0.00    +0.008 C 
ATOM      5  C   UNL     1      34.277 -15.165 -23.023  0.00  0.00    -0.075 C 
ATOM      6  C   UNL     1      32.697 -15.044 -21.195  0.00  0.00    -0.075 C 
ATOM      7  H   UNL     1      34.718 -14.964 -21.052  0.00  0.00    -0.080 HD
ENDROOT
BRANCH   2   9
ATOM      8 BR   UNL     1      32.355  -6.894 -23.275  0.00  0.00    -0.049 Br
ATOM      9  C   UNL     1      32.695 -11.548 -22.946  0.00  0.00    +0.002 C 
ATOM     10  C   UNL     1      31.706 -10.870 -22.235  0.00  0.00    -0.002 C 
ATOM     11  C   UNL     1      33.584 -10.841 -23.755  0.00  0.00    -0.002 C 
ATOM     12  C   UNL     1      31.604  -9.483 -22.332  0.00  0.00    +0.006 C 
ATOM     13  C   UNL     1      33.483  -9.453 -23.853  0.00  0.00    +0.006 C 
ATOM     14  C   UNL     1      32.493  -8.774 -23.141  0.00  0.00    +0.035 C 
ENDBRANCH   2   9
BRANCH   2  15
ATOM     15  O   UNL     1      31.801 -13.587 -23.727  0.00  0.00    -0.383 OA
ATOM     16  H   UNL     1      31.064 -13.946 -23.207  0.00  0.00    +0.211 HD
ENDBRANCH   2  15
BRANCH   1  17
ATOM     17  C   UNL     1      34.212 -16.907 -21.363  0.00  0.00    -0.077 C 
BRANCH  17  18
ATOM     18  C   UNL     1      34.960 -17.558 -22.528  0.00  0.00    -0.015 C 
BRANCH  18  19
ATOM     19  C   UNL     1      35.051 -19.080 -22.384  0.00  0.00    +0.067 C 
BRANCH  19  21
ATOM     20  O   UNL     1      36.763 -19.093 -20.683  0.00  0.00    -0.291 OA
ATOM     21  C   UNL     1      35.681 -19.525 -21.071  0.00  0.00    +0.173 C 
BRANCH  21  23
ATOM     22  F   UNL     1      32.920 -23.191 -17.892  0.00  0.00    -0.204 F 
ATOM     23  C   UNL     1      34.944 -20.504 -20.222  0.00  0.00    +0.035 C 
ATOM     24  C   UNL     1      35.666 -21.401 -19.468  0.00  0.00    +0.005 C 
ATOM     25  C   UNL     1      33.567 -20.475 -20.224  0.00  0.00    +0.005 C 
ATOM     26  C   UNL     1      34.977 -22.316 -18.674  0.00  0.00    +0.030 C 
ATOM     27  C   UNL     1      32.877 -21.390 -19.430  0.00  0.00    +0.030 C 
ATOM     28  C   UNL     1      33.582 -22.312 -18.655  0.00  0.00    +0.140 C 
ENDBRANCH  21  23
ENDBRANCH  19  21
ENDBRANCH  18  19
ENDBRANCH  17  18
ENDBRANCH   1  17
TORSDOF 7
ENDMDL
