MODEL 1
REMARK VINA RESULT:      -8.5      0.000      0.000
REMARK  Name = 60657
REMARK  12 active torsions:
REMARK  status: ('A' for Active; 'I' for Inactive)
REMARK    1  A    between atoms: C_1  and  C_19
REMARK    2  A    between atoms: C_4  and  O_7
REMARK    3  A    between atoms: O_7  and  C_8
REMARK    4  A    between atoms: C_8  and  C_9
REMARK    5  A    between atoms: C_9  and  O_10
REMARK    6  A    between atoms: C_9  and  C_12
REMARK    7  A    between atoms: C_12  and  N_13
REMARK    8  A    between atoms: N_13  and  C_16
REMARK    9  A    between atoms: C_19  and  C_20
REMARK   10  A    between atoms: C_20  and  O_21
REMARK   11  A    between atoms: O_21  and  C_22
REMARK   12  A    between atoms: C_22  and  C_23
REMARK                            x       y       z     vdW  Elec       q    Type
REMARK                         _______ _______ _______ _____ _____    ______ ____
ROOT
ATOM      1  C   UNL     1      34.400 -20.066 -20.561  0.00  0.00    -0.019 C 
ATOM      2  C   UNL     1      35.624 -20.602 -20.162  0.00  0.00    -0.001 C 
ATOM      3  C   UNL     1      33.210 -20.616 -20.084  0.00  0.00    -0.001 C 
ATOM      4  C   UNL     1      34.468 -22.231 -18.817  0.00  0.00    +0.139 C 
ATOM      5  C   UNL     1      35.659 -21.688 -19.287  0.00  0.00    +0.037 C 
ATOM      6  C   UNL     1      33.244 -21.702 -19.209  0.00  0.00    +0.037 C 
ENDROOT
BRANCH   4   7
ATOM      7  O   UNL     1      34.501 -23.297 -17.958  0.00  0.00    -0.473 OA
BRANCH   7   8
ATOM      8  C   UNL     1      33.604 -23.257 -16.852  0.00  0.00    +0.232 C 
BRANCH   8   9
ATOM      9  C   UNL     1      34.369 -23.624 -15.583  0.00  0.00    +0.133 C 
BRANCH   9  10
ATOM     10  O   UNL     1      35.013 -22.450 -15.080  0.00  0.00    -0.383 OA
ATOM     11  H   UNL     1      35.360 -22.627 -14.192  0.00  0.00    +0.210 HD
ENDBRANCH   9  10
BRANCH   9  12
ATOM     12  C   UNL     1      33.473 -24.188 -14.478  0.00  0.00    -0.048 C 
BRANCH  12  13
ATOM     13  N   UNL     1      32.740 -23.139 -13.779  0.00  0.00    +0.387 N 
ATOM     14  H   UNL     1      32.832 -22.267 -14.298  0.00  0.00    -0.084 HD
ATOM     15  H   UNL     1      33.129 -23.040 -12.842  0.00  0.00    -0.084 HD
BRANCH  13  16
ATOM     16  C   UNL     1      31.328 -23.479 -13.664  0.00  0.00    -0.062 C 
ATOM     17  C   UNL     1      30.554 -22.828 -14.806  0.00  0.00    -0.023 C 
ATOM     18  C   UNL     1      31.146 -24.994 -13.671  0.00  0.00    -0.023 C 
ENDBRANCH  13  16
ENDBRANCH  12  13
ENDBRANCH   9  12
ENDBRANCH   8   9
ENDBRANCH   7   8
ENDBRANCH   4   7
BRANCH   1  19
ATOM     19  C   UNL     1      34.363 -18.905 -21.496  0.00  0.00    +0.058 C 
BRANCH  19  20
ATOM     20  C   UNL     1      35.585 -17.991 -21.361  0.00  0.00    +0.147 C 
BRANCH  20  21
ATOM     21  O   UNL     1      35.274 -16.906 -20.496  0.00  0.00    -0.353 OA
BRANCH  21  22
ATOM     22  C   UNL     1      34.812 -15.776 -21.222  0.00  0.00    +0.142 C 
BRANCH  22  23
ATOM     23  C   UNL     1      33.637 -15.181 -20.524  0.00  0.00    +0.030 C 
ATOM     24  C   UNL     1      32.585 -14.488 -21.335  0.00  0.00    +0.003 C 
ATOM     25  C   UNL     1      32.293 -15.816 -20.698  0.00  0.00    +0.003 C 
ENDBRANCH  22  23
ENDBRANCH  21  22
ENDBRANCH  20  21
ENDBRANCH  19  20
ENDBRANCH   1  19
TORSDOF 12
ENDMDL
MODEL 2
REMARK VINA RESULT:      -8.4      1.432      2.563
REMARK  Name = 60657
REMARK  12 active torsions:
REMARK  status: ('A' for Active; 'I' for Inactive)
REMARK    1  A    between atoms: C_1  and  C_19
REMARK    2  A    between atoms: C_4  and  O_7
REMARK    3  A    between atoms: O_7  and  C_8
REMARK    4  A    between atoms: C_8  and  C_9
REMARK    5  A    between atoms: C_9  and  O_10
REMARK    6  A    between atoms: C_9  and  C_12
REMARK    7  A    between atoms: C_12  and  N_13
REMARK    8  A    between atoms: N_13  and  C_16
REMARK    9  A    between atoms: C_19  and  C_20
REMARK   10  A    between atoms: C_20  and  O_21
REMARK   11  A    between atoms: O_21  and  C_22
REMARK   12  A    between atoms: C_22  and  C_23
REMARK                            x       y       z     vdW  Elec       q    Type
REMARK                         _______ _______ _______ _____ _____    ______ ____
ROOT
ATOM      1  C   UNL     1      34.556 -20.152 -20.696  0.00  0.00    -0.019 C 
ATOM      2  C   UNL     1      35.749 -20.676 -20.198  0.00  0.00    -0.001 C 
ATOM      3  C   UNL     1      33.334 -20.621 -20.214  0.00  0.00    -0.001 C 
ATOM      4  C   UNL     1      34.497 -22.132 -18.744  0.00  0.00    +0.139 C 
ATOM      5  C   UNL     1      35.720 -21.669 -19.218  0.00  0.00    +0.037 C 
ATOM      6  C   UNL     1      33.305 -21.614 -19.235  0.00  0.00    +0.037 C 
ENDROOT
BRANCH   4   7
ATOM      7  O   UNL     1      34.468 -23.108 -17.783  0.00  0.00    -0.473 OA
BRANCH   7   8
ATOM      8  C   UNL     1      33.183 -23.516 -17.325  0.00  0.00    +0.232 C 
BRANCH   8   9
ATOM      9  C   UNL     1      33.084 -23.243 -15.826  0.00  0.00    +0.133 C 
BRANCH   9  10
ATOM     10  O   UNL     1      31.942 -23.932 -15.309  0.00  0.00    -0.383 OA
ATOM     11  H   UNL     1      31.536 -23.404 -14.604  0.00  0.00    +0.210 HD
ENDBRANCH   9  10
BRANCH   9  12
ATOM     12  C   UNL     1      34.315 -23.706 -15.044  0.00  0.00    -0.048 C 
BRANCH  12  13
ATOM     13  N   UNL     1      35.255 -22.617 -14.808  0.00  0.00    +0.387 N 
ATOM     14  H   UNL     1      35.093 -22.235 -13.877  0.00  0.00    -0.084 HD
ATOM     15  H   UNL     1      35.108 -21.902 -15.519  0.00  0.00    -0.084 HD
BRANCH  13  16
ATOM     16  C   UNL     1      36.630 -23.088 -14.898  0.00  0.00    -0.062 C 
ATOM     17  C   UNL     1      36.637 -24.599 -15.109  0.00  0.00    -0.023 C 
ATOM     18  C   UNL     1      37.361 -22.373 -16.030  0.00  0.00    -0.023 C 
ENDBRANCH  13  16
ENDBRANCH  12  13
ENDBRANCH   9  12
ENDBRANCH   8   9
ENDBRANCH   7   8
ENDBRANCH   4   7
BRANCH   1  19
ATOM     19  C   UNL     1      34.589 -19.090 -21.742  0.00  0.00    +0.058 C 
BRANCH  19  20
ATOM     20  C   UNL     1      35.696 -18.057 -21.511  0.00  0.00    +0.147 C 
BRANCH  20  21
ATOM     21  O   UNL     1      35.224 -17.041 -20.636  0.00  0.00    -0.353 OA
BRANCH  21  22
ATOM     22  C   UNL     1      34.753 -15.910 -21.356  0.00  0.00    +0.142 C 
BRANCH  22  23
ATOM     23  C   UNL     1      33.700 -15.217 -20.561  0.00  0.00    +0.030 C 
ATOM     24  C   UNL     1      32.651 -14.425 -21.280  0.00  0.00    +0.003 C 
ATOM     25  C   UNL     1      32.293 -15.725 -20.621  0.00  0.00    +0.003 C 
ENDBRANCH  22  23
ENDBRANCH  21  22
ENDBRANCH  20  21
ENDBRANCH  19  20
ENDBRANCH   1  19
TORSDOF 12
ENDMDL
MODEL 3
REMARK VINA RESULT:      -8.4      2.620      3.738
REMARK  Name = 60657
REMARK  12 active torsions:
REMARK  status: ('A' for Active; 'I' for Inactive)
REMARK    1  A    between atoms: C_1  and  C_19
REMARK    2  A    between atoms: C_4  and  O_7
REMARK    3  A    between atoms: O_7  and  C_8
REMARK    4  A    between atoms: C_8  and  C_9
REMARK    5  A    between atoms: C_9  and  O_10
REMARK    6  A    between atoms: C_9  and  C_12
REMARK    7  A    between atoms: C_12  and  N_13
REMARK    8  A    between atoms: N_13  and  C_16
REMARK    9  A    between atoms: C_19  and  C_20
REMARK   10  A    between atoms: C_20  and  O_21
REMARK   11  A    between atoms: O_21  and  C_22
REMARK   12  A    between atoms: C_22  and  C_23
REMARK                            x       y       z     vdW  Elec       q    Type
REMARK                         _______ _______ _______ _____ _____    ______ ____
ROOT
ATOM      1  C   UNL     1      34.575 -20.298 -20.511  0.00  0.00    -0.019 C 
ATOM      2  C   UNL     1      33.463 -20.930 -19.953  0.00  0.00    -0.001 C 
ATOM      3  C   UNL     1      35.853 -20.590 -20.037  0.00  0.00    -0.001 C 
ATOM      4  C   UNL     1      34.909 -22.137 -18.451  0.00  0.00    +0.139 C 
ATOM      5  C   UNL     1      33.631 -21.853 -18.920  0.00  0.00    +0.037 C 
ATOM      6  C   UNL     1      36.021 -21.512 -19.003  0.00  0.00    +0.037 C 
ENDROOT
BRANCH   4   7
ATOM      7  O   UNL     1      35.074 -23.042 -17.437  0.00  0.00    -0.473 OA
BRANCH   7   8
ATOM      8  C   UNL     1      36.024 -22.708 -16.429  0.00  0.00    +0.232 C 
BRANCH   8   9
ATOM      9  C   UNL     1      35.887 -23.698 -15.275  0.00  0.00    +0.133 C 
BRANCH   9  10
ATOM     10  O   UNL     1      35.530 -24.977 -15.808  0.00  0.00    -0.383 OA
ATOM     11  H   UNL     1      34.772 -24.879 -16.405  0.00  0.00    +0.210 HD
ENDBRANCH   9  10
BRANCH   9  12
ATOM     12  C   UNL     1      37.173 -23.862 -14.462  0.00  0.00    -0.048 C 
BRANCH  12  13
ATOM     13  N   UNL     1      38.248 -24.453 -15.250  0.00  0.00    +0.387 N 
ATOM     14  H   UNL     1      38.980 -23.757 -15.388  0.00  0.00    -0.084 HD
ATOM     15  H   UNL     1      37.866 -24.752 -16.147  0.00  0.00    -0.084 HD
BRANCH  13  16
ATOM     16  C   UNL     1      38.812 -25.613 -14.574  0.00  0.00    -0.062 C 
ATOM     17  C   UNL     1      40.331 -25.592 -14.712  0.00  0.00    -0.023 C 
ATOM     18  C   UNL     1      38.394 -25.626 -13.107  0.00  0.00    -0.023 C 
ENDBRANCH  13  16
ENDBRANCH  12  13
ENDBRANCH   9  12
ENDBRANCH   8   9
ENDBRANCH   7   8
ENDBRANCH   4   7
BRANCH   1  19
ATOM     19  C   UNL     1      34.395 -19.314 -21.616  0.00  0.00    +0.058 C 
BRANCH  19  20
ATOM     20  C   UNL     1      35.492 -18.245 -21.649  0.00  0.00    +0.147 C 
BRANCH  20  21
ATOM     21  O   UNL     1      35.167 -17.202 -20.738  0.00  0.00    -0.353 OA
BRANCH  21  22
ATOM     22  C   UNL     1      34.785 -16.015 -21.419  0.00  0.00    +0.142 C 
BRANCH  22  23
ATOM     23  C   UNL     1      33.760 -15.289 -20.618  0.00  0.00    +0.030 C 
ATOM     24  C   UNL     1      32.685 -14.528 -21.332  0.00  0.00    +0.003 C 
ATOM     25  C   UNL     1      32.353 -15.800 -20.606  0.00  0.00    +0.003 C 
ENDBRANCH  22  23
ENDBRANCH  21  22
ENDBRANCH  20  21
ENDBRANCH  19  20
ENDBRANCH   1  19
TORSDOF 12
ENDMDL
MODEL 4
REMARK VINA RESULT:      -8.4      3.218      8.905
REMARK  Name = 60657
REMARK  12 active torsions:
REMARK  status: ('A' for Active; 'I' for Inactive)
REMARK    1  A    between atoms: C_1  and  C_19
REMARK    2  A    between atoms: C_4  and  O_7
REMARK    3  A    between atoms: O_7  and  C_8
REMARK    4  A    between atoms: C_8  and  C_9
REMARK    5  A    between atoms: C_9  and  O_10
REMARK    6  A    between atoms: C_9  and  C_12
REMARK    7  A    between atoms: C_12  and  N_13
REMARK    8  A    between atoms: N_13  and  C_16
REMARK    9  A    between atoms: C_19  and  C_20
REMARK   10  A    between atoms: C_20  and  O_21
REMARK   11  A    between atoms: O_21  and  C_22
REMARK   12  A    between atoms: C_22  and  C_23
REMARK                            x       y       z     vdW  Elec       q    Type
REMARK                         _______ _______ _______ _____ _____    ______ ____
ROOT
ATOM      1  C   UNL     1      34.209 -21.656 -19.543  0.00  0.00    -0.019 C 
ATOM      2  C   UNL     1      33.006 -21.006 -19.817  0.00  0.00    -0.001 C 
ATOM      3  C   UNL     1      35.413 -21.109 -19.985  0.00  0.00    -0.001 C 
ATOM      4  C   UNL     1      34.211 -19.270 -20.972  0.00  0.00    +0.139 C 
ATOM      5  C   UNL     1      33.007 -19.809 -20.533  0.00  0.00    +0.037 C 
ATOM      6  C   UNL     1      35.414 -19.912 -20.702  0.00  0.00    +0.037 C 
ENDROOT
BRANCH   4   7
ATOM      7  O   UNL     1      34.212 -18.095 -21.676  0.00  0.00    -0.473 OA
BRANCH   7   8
ATOM      8  C   UNL     1      35.025 -17.043 -21.165  0.00  0.00    +0.232 C 
BRANCH   8   9
ATOM      9  C   UNL     1      34.388 -15.705 -21.530  0.00  0.00    +0.133 C 
BRANCH   9  10
ATOM     10  O   UNL     1      34.987 -14.679 -20.733  0.00  0.00    -0.383 OA
ATOM     11  H   UNL     1      35.725 -14.281 -21.221  0.00  0.00    +0.210 HD
ENDBRANCH   9  10
BRANCH   9  12
ATOM     12  C   UNL     1      34.566 -15.331 -23.003  0.00  0.00    -0.048 C 
BRANCH  12  13
ATOM     13  N   UNL     1      35.389 -16.298 -23.717  0.00  0.00    +0.387 N 
ATOM     14  H   UNL     1      35.440 -17.158 -23.173  0.00  0.00    -0.084 HD
ATOM     15  H   UNL     1      36.319 -15.901 -23.846  0.00  0.00    -0.084 HD
BRANCH  13  16
ATOM     16  C   UNL     1      34.825 -16.595 -25.027  0.00  0.00    -0.062 C 
ATOM     17  C   UNL     1      34.399 -18.060 -25.076  0.00  0.00    -0.023 C 
ATOM     18  C   UNL     1      33.647 -15.671 -25.318  0.00  0.00    -0.023 C 
ENDBRANCH  13  16
ENDBRANCH  12  13
ENDBRANCH   9  12
ENDBRANCH   8   9
ENDBRANCH   7   8
ENDBRANCH   4   7
BRANCH   1  19
ATOM     19  C   UNL     1      34.208 -22.935 -18.776  0.00  0.00    +0.058 C 
BRANCH  19  20
ATOM     20  C   UNL     1      33.141 -22.973 -17.679  0.00  0.00    +0.147 C 
BRANCH  20  21
ATOM     21  O   UNL     1      33.693 -23.542 -16.498  0.00  0.00    -0.353 OA
BRANCH  21  22
ATOM     22  C   UNL     1      32.812 -23.404 -15.392  0.00  0.00    +0.142 C 
BRANCH  22  23
ATOM     23  C   UNL     1      31.422 -23.192 -15.885  0.00  0.00    +0.030 C 
ATOM     24  C   UNL     1      30.367 -24.198 -15.539  0.00  0.00    +0.003 C 
ATOM     25  C   UNL     1      30.349 -22.838 -14.903  0.00  0.00    +0.003 C 
ENDBRANCH  22  23
ENDBRANCH  21  22
ENDBRANCH  20  21
ENDBRANCH  19  20
ENDBRANCH   1  19
TORSDOF 12
ENDMDL
MODEL 5
REMARK VINA RESULT:      -8.4      1.846      2.813
REMARK  Name = 60657
REMARK  12 active torsions:
REMARK  status: ('A' for Active; 'I' for Inactive)
REMARK    1  A    between atoms: C_1  and  C_19
REMARK    2  A    between atoms: C_4  and  O_7
REMARK    3  A    between atoms: O_7  and  C_8
REMARK    4  A    between atoms: C_8  and  C_9
REMARK    5  A    between atoms: C_9  and  O_10
REMARK    6  A    between atoms: C_9  and  C_12
REMARK    7  A    between atoms: C_12  and  N_13
REMARK    8  A    between atoms: N_13  and  C_16
REMARK    9  A    between atoms: C_19  and  C_20
REMARK   10  A    between atoms: C_20  and  O_21
REMARK   11  A    between atoms: O_21  and  C_22
REMARK   12  A    between atoms: C_22  and  C_23
REMARK                            x       y       z     vdW  Elec       q    Type
REMARK                         _______ _______ _______ _____ _____    ______ ____
ROOT
ATOM      1  C   UNL     1      35.179 -19.555 -20.970  0.00  0.00    -0.019 C 
ATOM      2  C   UNL     1      35.767 -20.591 -20.244  0.00  0.00    -0.001 C 
ATOM      3  C   UNL     1      33.792 -19.415 -20.985  0.00  0.00    -0.001 C 
ATOM      4  C   UNL     1      33.585 -21.341 -19.554  0.00  0.00    +0.139 C 
ATOM      5  C   UNL     1      34.968 -21.486 -19.533  0.00  0.00    +0.037 C 
ATOM      6  C   UNL     1      32.992 -20.311 -20.275  0.00  0.00    +0.037 C 
ENDROOT
BRANCH   4   7
ATOM      7  O   UNL     1      32.799 -22.220 -18.857  0.00  0.00    -0.473 OA
BRANCH   7   8
ATOM      8  C   UNL     1      33.473 -23.170 -18.037  0.00  0.00    +0.232 C 
BRANCH   8   9
ATOM      9  C   UNL     1      32.993 -23.008 -16.597  0.00  0.00    +0.133 C 
BRANCH   9  10
ATOM     10  O   UNL     1      31.707 -23.622 -16.472  0.00  0.00    -0.383 OA
ATOM     11  H   UNL     1      31.522 -24.151 -17.263  0.00  0.00    +0.210 HD
ENDBRANCH   9  10
BRANCH   9  12
ATOM     12  C   UNL     1      33.929 -23.647 -15.570  0.00  0.00    -0.048 C 
BRANCH  12  13
ATOM     13  N   UNL     1      34.922 -22.704 -15.073  0.00  0.00    +0.387 N 
ATOM     14  H   UNL     1      34.853 -22.653 -14.057  0.00  0.00    -0.084 HD
ATOM     15  H   UNL     1      34.741 -21.791 -15.489  0.00  0.00    -0.084 HD
BRANCH  13  16
ATOM     16  C   UNL     1      36.269 -23.123 -15.439  0.00  0.00    -0.062 C 
ATOM     17  C   UNL     1      36.885 -22.089 -16.376  0.00  0.00    -0.023 C 
ATOM     18  C   UNL     1      37.123 -23.308 -14.189  0.00  0.00    -0.023 C 
ENDBRANCH  13  16
ENDBRANCH  12  13
ENDBRANCH   9  12
ENDBRANCH   8   9
ENDBRANCH   7   8
ENDBRANCH   4   7
BRANCH   1  19
ATOM     19  C   UNL     1      36.034 -18.598 -21.729  0.00  0.00    +0.058 C 
BRANCH  19  20
ATOM     20  C   UNL     1      35.315 -17.974 -22.928  0.00  0.00    +0.147 C 
BRANCH  20  21
ATOM     21  O   UNL     1      35.438 -16.558 -22.873  0.00  0.00    -0.353 OA
BRANCH  21  22
ATOM     22  C   UNL     1      34.174 -15.920 -22.995  0.00  0.00    +0.142 C 
BRANCH  22  23
ATOM     23  C   UNL     1      33.969 -14.997 -21.844  0.00  0.00    +0.030 C 
ATOM     24  C   UNL     1      32.983 -15.372 -20.780  0.00  0.00    +0.003 C 
ATOM     25  C   UNL     1      34.455 -15.408 -20.489  0.00  0.00    +0.003 C 
ENDBRANCH  22  23
ENDBRANCH  21  22
ENDBRANCH  20  21
ENDBRANCH  19  20
ENDBRANCH   1  19
TORSDOF 12
ENDMDL
MODEL 6
REMARK VINA RESULT:      -8.3      3.204      8.802
REMARK  Name = 60657
REMARK  12 active torsions:
REMARK  status: ('A' for Active; 'I' for Inactive)
REMARK    1  A    between atoms: C_1  and  C_19
REMARK    2  A    between atoms: C_4  and  O_7
REMARK    3  A    between atoms: O_7  and  C_8
REMARK    4  A    between atoms: C_8  and  C_9
REMARK    5  A    between atoms: C_9  and  O_10
REMARK    6  A    between atoms: C_9  and  C_12
REMARK    7  A    between atoms: C_12  and  N_13
REMARK    8  A    between atoms: N_13  and  C_16
REMARK    9  A    between atoms: C_19  and  C_20
REMARK   10  A    between atoms: C_20  and  O_21
REMARK   11  A    between atoms: O_21  and  C_22
REMARK   12  A    between atoms: C_22  and  C_23
REMARK                            x       y       z     vdW  Elec       q    Type
REMARK                         _______ _______ _______ _____ _____    ______ ____
ROOT
ATOM      1  C   UNL     1      34.885 -20.986 -19.884  0.00  0.00    -0.019 C 
ATOM      2  C   UNL     1      36.093 -20.378 -20.228  0.00  0.00    -0.001 C 
ATOM      3  C   UNL     1      33.681 -20.454 -20.346  0.00  0.00    -0.001 C 
ATOM      4  C   UNL     1      34.892 -18.713 -21.487  0.00  0.00    +0.139 C 
ATOM      5  C   UNL     1      36.097 -19.238 -21.032  0.00  0.00    +0.037 C 
ATOM      6  C   UNL     1      33.685 -19.314 -21.150  0.00  0.00    +0.037 C 
ENDROOT
BRANCH   4   7
ATOM      7  O   UNL     1      34.895 -17.593 -22.277  0.00  0.00    -0.473 OA
BRANCH   7   8
ATOM      8  C   UNL     1      34.612 -17.784 -23.659  0.00  0.00    +0.232 C 
BRANCH   8   9
ATOM      9  C   UNL     1      34.828 -16.463 -24.394  0.00  0.00    +0.133 C 
BRANCH   9  10
ATOM     10  O   UNL     1      34.795 -16.711 -25.802  0.00  0.00    -0.383 OA
ATOM     11  H   UNL     1      34.385 -17.574 -25.969  0.00  0.00    +0.210 HD
ENDBRANCH   9  10
BRANCH   9  12
ATOM     12  C   UNL     1      33.766 -15.410 -24.070  0.00  0.00    -0.048 C 
BRANCH  12  13
ATOM     13  N   UNL     1      33.950 -14.838 -22.742  0.00  0.00    +0.387 N 
ATOM     14  H   UNL     1      34.365 -13.912 -22.833  0.00  0.00    -0.084 HD
ATOM     15  H   UNL     1      34.560 -15.453 -22.205  0.00  0.00    -0.084 HD
BRANCH  13  16
ATOM     16  C   UNL     1      32.676 -14.722 -22.044  0.00  0.00    -0.062 C 
ATOM     17  C   UNL     1      32.807 -15.316 -20.645  0.00  0.00    -0.023 C 
ATOM     18  C   UNL     1      32.238 -13.262 -21.982  0.00  0.00    -0.023 C 
ENDBRANCH  13  16
ENDBRANCH  12  13
ENDBRANCH   9  12
ENDBRANCH   8   9
ENDBRANCH   7   8
ENDBRANCH   4   7
BRANCH   1  19
ATOM     19  C   UNL     1      34.882 -22.205 -19.026  0.00  0.00    +0.058 C 
BRANCH  19  20
ATOM     20  C   UNL     1      33.507 -22.508 -18.423  0.00  0.00    +0.147 C 
BRANCH  20  21
ATOM     21  O   UNL     1      33.602 -23.639 -17.567  0.00  0.00    -0.353 OA
BRANCH  21  22
ATOM     22  C   UNL     1      33.079 -23.361 -16.275  0.00  0.00    +0.142 C 
BRANCH  22  23
ATOM     23  C   UNL     1      31.611 -23.124 -16.372  0.00  0.00    +0.030 C 
ATOM     24  C   UNL     1      30.672 -24.134 -15.788  0.00  0.00    +0.003 C 
ATOM     25  C   UNL     1      30.845 -22.796 -15.129  0.00  0.00    +0.003 C 
ENDBRANCH  22  23
ENDBRANCH  21  22
ENDBRANCH  20  21
ENDBRANCH  19  20
ENDBRANCH   1  19
TORSDOF 12
ENDMDL
MODEL 7
REMARK VINA RESULT:      -8.3      1.518      1.895
REMARK  Name = 60657
REMARK  12 active torsions:
REMARK  status: ('A' for Active; 'I' for Inactive)
REMARK    1  A    between atoms: C_1  and  C_19
REMARK    2  A    between atoms: C_4  and  O_7
REMARK    3  A    between atoms: O_7  and  C_8
REMARK    4  A    between atoms: C_8  and  C_9
REMARK    5  A    between atoms: C_9  and  O_10
REMARK    6  A    between atoms: C_9  and  C_12
REMARK    7  A    between atoms: C_12  and  N_13
REMARK    8  A    between atoms: N_13  and  C_16
REMARK    9  A    between atoms: C_19  and  C_20
REMARK   10  A    between atoms: C_20  and  O_21
REMARK   11  A    between atoms: O_21  and  C_22
REMARK   12  A    between atoms: C_22  and  C_23
REMARK                            x       y       z     vdW  Elec       q    Type
REMARK                         _______ _______ _______ _____ _____    ______ ____
ROOT
ATOM      1  C   UNL     1      35.172 -19.501 -21.042  0.00  0.00    -0.019 C 
ATOM      2  C   UNL     1      35.779 -20.515 -20.301  0.00  0.00    -0.001 C 
ATOM      3  C   UNL     1      33.783 -19.377 -21.046  0.00  0.00    -0.001 C 
ATOM      4  C   UNL     1      33.612 -21.276 -19.575  0.00  0.00    +0.139 C 
ATOM      5  C   UNL     1      34.997 -21.405 -19.565  0.00  0.00    +0.037 C 
ATOM      6  C   UNL     1      33.000 -20.268 -20.311  0.00  0.00    +0.037 C 
ENDROOT
BRANCH   4   7
ATOM      7  O   UNL     1      32.843 -22.150 -18.853  0.00  0.00    -0.473 OA
BRANCH   7   8
ATOM      8  C   UNL     1      33.528 -23.210 -18.193  0.00  0.00    +0.232 C 
BRANCH   8   9
ATOM      9  C   UNL     1      32.849 -23.476 -16.851  0.00  0.00    +0.133 C 
BRANCH   9  10
ATOM     10  O   UNL     1      33.718 -23.036 -15.803  0.00  0.00    -0.383 OA
ATOM     11  H   UNL     1      33.277 -23.152 -14.947  0.00  0.00    +0.210 HD
ENDBRANCH   9  10
BRANCH   9  12
ATOM     12  C   UNL     1      31.510 -22.752 -16.696  0.00  0.00    -0.048 C 
BRANCH  12  13
ATOM     13  N   UNL     1      31.022 -22.791 -15.323  0.00  0.00    +0.387 N 
ATOM     14  H   UNL     1      31.138 -21.869 -14.904  0.00  0.00    -0.084 HD
ATOM     15  H   UNL     1      31.558 -23.488 -14.808  0.00  0.00    -0.084 HD
BRANCH  13  16
ATOM     16  C   UNL     1      29.614 -23.161 -15.281  0.00  0.00    -0.062 C 
ATOM     17  C   UNL     1      28.923 -22.677 -16.552  0.00  0.00    -0.023 C 
ATOM     18  C   UNL     1      29.469 -24.671 -15.120  0.00  0.00    -0.023 C 
ENDBRANCH  13  16
ENDBRANCH  12  13
ENDBRANCH   9  12
ENDBRANCH   8   9
ENDBRANCH   7   8
ENDBRANCH   4   7
BRANCH   1  19
ATOM     19  C   UNL     1      36.008 -18.550 -21.828  0.00  0.00    +0.058 C 
BRANCH  19  20
ATOM     20  C   UNL     1      35.229 -17.850 -22.945  0.00  0.00    +0.147 C 
BRANCH  20  21
ATOM     21  O   UNL     1      35.502 -16.455 -22.914  0.00  0.00    -0.353 OA
BRANCH  21  22
ATOM     22  C   UNL     1      34.308 -15.688 -22.979  0.00  0.00    +0.142 C 
BRANCH  22  23
ATOM     23  C   UNL     1      34.208 -14.818 -21.772  0.00  0.00    +0.030 C 
ATOM     24  C   UNL     1      33.088 -15.046 -20.804  0.00  0.00    +0.003 C 
ATOM     25  C   UNL     1      34.496 -15.408 -20.427  0.00  0.00    +0.003 C 
ENDBRANCH  22  23
ENDBRANCH  21  22
ENDBRANCH  20  21
ENDBRANCH  19  20
ENDBRANCH   1  19
TORSDOF 12
ENDMDL
MODEL 8
REMARK VINA RESULT:      -8.2      3.343      9.232
REMARK  Name = 60657
REMARK  12 active torsions:
REMARK  status: ('A' for Active; 'I' for Inactive)
REMARK    1  A    between atoms: C_1  and  C_19
REMARK    2  A    between atoms: C_4  and  O_7
REMARK    3  A    between atoms: O_7  and  C_8
REMARK    4  A    between atoms: C_8  and  C_9
REMARK    5  A    between atoms: C_9  and  O_10
REMARK    6  A    between atoms: C_9  and  C_12
REMARK    7  A    between atoms: C_12  and  N_13
REMARK    8  A    between atoms: N_13  and  C_16
REMARK    9  A    between atoms: C_19  and  C_20
REMARK   10  A    between atoms: C_20  and  O_21
REMARK   11  A    between atoms: O_21  and  C_22
REMARK   12  A    between atoms: C_22  and  C_23
REMARK                            x       y       z     vdW  Elec       q    Type
REMARK                         _______ _______ _______ _____ _____    ______ ____
ROOT
ATOM      1  C   UNL     1      34.097 -22.087 -19.056  0.00  0.00    -0.019 C 
ATOM      2  C   UNL     1      33.042 -21.324 -19.555  0.00  0.00    -0.001 C 
ATOM      3  C   UNL     1      35.409 -21.786 -19.421  0.00  0.00    -0.001 C 
ATOM      4  C   UNL     1      34.609 -19.966 -20.780  0.00  0.00    +0.139 C 
ATOM      5  C   UNL     1      33.299 -20.260 -20.420  0.00  0.00    +0.037 C 
ATOM      6  C   UNL     1      35.666 -20.722 -20.286  0.00  0.00    +0.037 C 
ENDROOT
BRANCH   4   7
ATOM      7  O   UNL     1      34.862 -18.922 -21.630  0.00  0.00    -0.473 OA
BRANCH   7   8
ATOM      8  C   UNL     1      35.454 -17.760 -21.057  0.00  0.00    +0.232 C 
BRANCH   8   9
ATOM      9  C   UNL     1      34.487 -16.588 -21.208  0.00  0.00    +0.133 C 
BRANCH   9  10
ATOM     10  O   UNL     1      34.978 -15.487 -20.438  0.00  0.00    -0.383 OA
ATOM     11  H   UNL     1      35.774 -15.128 -20.859  0.00  0.00    +0.210 HD
ENDBRANCH   9  10
BRANCH   9  12
ATOM     12  C   UNL     1      34.321 -16.122 -22.656  0.00  0.00    -0.048 C 
BRANCH  12  13
ATOM     13  N   UNL     1      35.405 -16.591 -23.509  0.00  0.00    +0.387 N 
ATOM     14  H   UNL     1      35.786 -17.453 -23.120  0.00  0.00    -0.084 HD
ATOM     15  H   UNL     1      36.123 -15.869 -23.549  0.00  0.00    -0.084 HD
BRANCH  13  16
ATOM     16  C   UNL     1      34.929 -16.849 -24.862  0.00  0.00    -0.062 C 
ATOM     17  C   UNL     1      34.418 -18.284 -24.956  0.00  0.00    -0.023 C 
ATOM     18  C   UNL     1      33.837 -15.852 -25.237  0.00  0.00    -0.023 C 
ENDBRANCH  13  16
ENDBRANCH  12  13
ENDBRANCH   9  12
ENDBRANCH   8   9
ENDBRANCH   7   8
ENDBRANCH   4   7
BRANCH   1  19
ATOM     19  C   UNL     1      33.823 -23.224 -18.131  0.00  0.00    +0.058 C 
BRANCH  19  20
ATOM     20  C   UNL     1      34.281 -22.951 -16.695  0.00  0.00    +0.147 C 
BRANCH  20  21
ATOM     21  O   UNL     1      35.508 -23.627 -16.451  0.00  0.00    -0.353 OA
BRANCH  21  22
ATOM     22  C   UNL     1      35.424 -24.464 -15.306  0.00  0.00    +0.142 C 
BRANCH  22  23
ATOM     23  C   UNL     1      36.737 -25.131 -15.080  0.00  0.00    +0.030 C 
ATOM     24  C   UNL     1      36.939 -25.931 -13.829  0.00  0.00    +0.003 C 
ATOM     25  C   UNL     1      36.815 -26.624 -15.155  0.00  0.00    +0.003 C 
ENDBRANCH  22  23
ENDBRANCH  21  22
ENDBRANCH  20  21
ENDBRANCH  19  20
ENDBRANCH   1  19
TORSDOF 12
ENDMDL
MODEL 9
REMARK VINA RESULT:      -8.1      2.972      4.104
REMARK  Name = 60657
REMARK  12 active torsions:
REMARK  status: ('A' for Active; 'I' for Inactive)
REMARK    1  A    between atoms: C_1  and  C_19
REMARK    2  A    between atoms: C_4  and  O_7
REMARK    3  A    between atoms: O_7  and  C_8
REMARK    4  A    between atoms: C_8  and  C_9
REMARK    5  A    between atoms: C_9  and  O_10
REMARK    6  A    between atoms: C_9  and  C_12
REMARK    7  A    between atoms: C_12  and  N_13
REMARK    8  A    between atoms: N_13  and  C_16
REMARK    9  A    between atoms: C_19  and  C_20
REMARK   10  A    between atoms: C_20  and  O_21
REMARK   11  A    between atoms: O_21  and  C_22
REMARK   12  A    between atoms: C_22  and  C_23
REMARK                            x       y       z     vdW  Elec       q    Type
REMARK                         _______ _______ _______ _____ _____    ______ ____
ROOT
ATOM      1  C   UNL     1      34.702 -20.349 -20.535  0.00  0.00    -0.019 C 
ATOM      2  C   UNL     1      33.556 -20.922 -19.985  0.00  0.00    -0.001 C 
ATOM      3  C   UNL     1      35.959 -20.683 -20.032  0.00  0.00    -0.001 C 
ATOM      4  C   UNL     1      34.923 -22.157 -18.434  0.00  0.00    +0.139 C 
ATOM      5  C   UNL     1      33.667 -21.830 -18.932  0.00  0.00    +0.037 C 
ATOM      6  C   UNL     1      36.070 -21.590 -18.978  0.00  0.00    +0.037 C 
ENDROOT
BRANCH   4   7
ATOM      7  O   UNL     1      35.033 -23.048 -17.399  0.00  0.00    -0.473 OA
BRANCH   7   8
ATOM      8  C   UNL     1      35.487 -22.528 -16.153  0.00  0.00    +0.232 C 
BRANCH   8   9
ATOM      9  C   UNL     1      36.100 -23.665 -15.339  0.00  0.00    +0.133 C 
BRANCH   9  10
ATOM     10  O   UNL     1      35.588 -24.908 -15.830  0.00  0.00    -0.383 OA
ATOM     11  H   UNL     1      36.310 -25.422 -16.224  0.00  0.00    +0.210 HD
ENDBRANCH   9  10
BRANCH   9  12
ATOM     12  C   UNL     1      37.627 -23.713 -15.419  0.00  0.00    -0.048 C 
BRANCH  12  13
ATOM     13  N   UNL     1      38.148 -25.048 -15.152  0.00  0.00    +0.387 N 
ATOM     14  H   UNL     1      38.736 -25.338 -15.932  0.00  0.00    -0.084 HD
ATOM     15  H   UNL     1      37.361 -25.687 -15.040  0.00  0.00    -0.084 HD
BRANCH  13  16
ATOM     16  C   UNL     1      38.938 -25.064 -13.928  0.00  0.00    -0.062 C 
ATOM     17  C   UNL     1      38.148 -25.757 -12.822  0.00  0.00    -0.023 C 
ATOM     18  C   UNL     1      40.272 -25.762 -14.169  0.00  0.00    -0.023 C 
ENDBRANCH  13  16
ENDBRANCH  12  13
ENDBRANCH   9  12
ENDBRANCH   8   9
ENDBRANCH   7   8
ENDBRANCH   4   7
BRANCH   1  19
ATOM     19  C   UNL     1      34.583 -19.380 -21.663  0.00  0.00    +0.058 C 
BRANCH  19  20
ATOM     20  C   UNL     1      35.846 -18.538 -21.864  0.00  0.00    +0.147 C 
BRANCH  20  21
ATOM     21  O   UNL     1      35.537 -17.163 -21.675  0.00  0.00    -0.353 OA
BRANCH  21  22
ATOM     22  C   UNL     1      34.437 -16.761 -22.478  0.00  0.00    +0.142 C 
BRANCH  22  23
ATOM     23  C   UNL     1      34.937 -16.232 -23.779  0.00  0.00    +0.030 C 
ATOM     24  C   UNL     1      34.718 -17.039 -25.022  0.00  0.00    +0.003 C 
ATOM     25  C   UNL     1      33.947 -15.770 -24.803  0.00  0.00    +0.003 C 
ENDBRANCH  22  23
ENDBRANCH  21  22
ENDBRANCH  20  21
ENDBRANCH  19  20
ENDBRANCH   1  19
TORSDOF 12
ENDMDL
