MODEL 1
REMARK VINA RESULT:     -10.2      0.000      0.000
REMARK  Name = 2353
REMARK  2 active torsions:
REMARK  status: ('A' for Active; 'I' for Inactive)
REMARK    1  A    between atoms: C_17  and  O_22
REMARK    2  A    between atoms: C_19  and  O_24
REMARK                            x       y       z     vdW  Elec       q    Type
REMARK                         _______ _______ _______ _____ _____    ______ ____
ROOT
ATOM      1  O   UNL     1      34.759 -22.157 -19.844  0.00  0.00    -0.435 OA
ATOM      2  O   UNL     1      32.699 -21.061 -19.248  0.00  0.00    -0.435 OA
ATOM      3  N   UNL     1      34.626 -16.521 -22.815  0.00  0.00    -0.300 N 
ATOM      4  C   UNL     1      35.550 -17.445 -23.521  0.00  0.00    +0.096 C 
ATOM      5  C   UNL     1      36.311 -18.280 -22.509  0.00  0.00    +0.048 C 
ATOM      6  C   UNL     1      33.897 -16.936 -21.739  0.00  0.00    +0.118 C 
ATOM      7  C   UNL     1      35.322 -18.997 -21.633  0.00  0.00    -0.019 C 
ATOM      8  C   UNL     1      34.124 -18.318 -21.273  0.00  0.00    -0.001 C 
ATOM      9  C   UNL     1      34.492 -15.268 -23.308  0.00  0.00    +0.065 C 
ATOM     10  C   UNL     1      33.014 -16.030 -21.127  0.00  0.00    -0.002 C 
ATOM     11  C   UNL     1      33.624 -14.341 -22.735  0.00  0.00    +0.051 C 
ATOM     12  C   UNL     1      32.868 -14.728 -21.618  0.00  0.00    +0.002 C 
ATOM     13  C   UNL     1      35.603 -20.292 -21.170  0.00  0.00    +0.036 C 
ATOM     14  C   UNL     1      33.196 -19.001 -20.462  0.00  0.00    +0.038 C 
ATOM     15  C   UNL     1      34.665 -20.907 -20.374  0.00  0.00    +0.176 C 
ATOM     16  C   UNL     1      33.492 -20.281 -20.034  0.00  0.00    +0.176 C 
ATOM     17  C   UNL     1      33.490 -13.039 -23.246  0.00  0.00    +0.174 C 
ATOM     18  C   UNL     1      31.992 -13.803 -21.026  0.00  0.00    +0.003 C 
ATOM     19  C   UNL     1      32.615 -12.131 -22.649  0.00  0.00    +0.172 C 
ATOM     20  C   UNL     1      33.508 -22.248 -19.133  0.00  0.00    +0.429 C 
ATOM     21  C   UNL     1      31.866 -12.512 -21.540  0.00  0.00    +0.040 C 
ENDROOT
BRANCH  17  22
ATOM     22  O   UNL     1      34.213 -12.636 -24.333  0.00  0.00    -0.468 OA
ATOM     23  C   UNL     1      33.569 -12.718 -25.601  0.00  0.00    +0.253 C 
ENDBRANCH  17  22
BRANCH  19  24
ATOM     24  O   UNL     1      32.483 -10.867 -23.141  0.00  0.00    -0.468 OA
ATOM     25  C   UNL     1      31.610  -9.985 -22.438  0.00  0.00    +0.253 C 
ENDBRANCH  19  24
TORSDOF 2
ENDMDL
MODEL 2
REMARK VINA RESULT:      -9.7      4.679     10.236
REMARK  Name = 2353
REMARK  2 active torsions:
REMARK  status: ('A' for Active; 'I' for Inactive)
REMARK    1  A    between atoms: C_17  and  O_22
REMARK    2  A    between atoms: C_19  and  O_24
REMARK                            x       y       z     vdW  Elec       q    Type
REMARK                         _______ _______ _______ _____ _____    ______ ____
ROOT
ATOM      1  O   UNL     1      34.610 -18.110 -23.080  0.00  0.00    -0.435 OA
ATOM      2  O   UNL     1      36.871 -18.655 -22.451  0.00  0.00    -0.435 OA
ATOM      3  N   UNL     1      34.336 -22.331 -18.314  0.00  0.00    -0.300 N 
ATOM      4  C   UNL     1      33.069 -22.357 -19.088  0.00  0.00    +0.096 C 
ATOM      5  C   UNL     1      32.692 -20.947 -19.500  0.00  0.00    +0.048 C 
ATOM      6  C   UNL     1      35.380 -21.538 -18.693  0.00  0.00    +0.118 C 
ATOM      7  C   UNL     1      33.836 -20.347 -20.269  0.00  0.00    -0.019 C 
ATOM      8  C   UNL     1      35.162 -20.663 -19.861  0.00  0.00    -0.001 C 
ATOM      9  C   UNL     1      34.440 -23.160 -17.250  0.00  0.00    +0.065 C 
ATOM     10  C   UNL     1      36.568 -21.575 -17.943  0.00  0.00    -0.002 C 
ATOM     11  C   UNL     1      35.601 -23.232 -16.483  0.00  0.00    +0.051 C 
ATOM     12  C   UNL     1      36.690 -22.420 -16.835  0.00  0.00    +0.002 C 
ATOM     13  C   UNL     1      33.581 -19.477 -21.341  0.00  0.00    +0.036 C 
ATOM     14  C   UNL     1      36.229 -20.106 -20.594  0.00  0.00    +0.038 C 
ATOM     15  C   UNL     1      34.662 -18.956 -22.016  0.00  0.00    +0.176 C 
ATOM     16  C   UNL     1      35.949 -19.266 -21.655  0.00  0.00    +0.176 C 
ATOM     17  C   UNL     1      35.705 -24.090 -15.375  0.00  0.00    +0.174 C 
ATOM     18  C   UNL     1      37.867 -22.477 -16.069  0.00  0.00    +0.003 C 
ATOM     19  C   UNL     1      36.880 -24.138 -14.624  0.00  0.00    +0.172 C 
ATOM     20  C   UNL     1      36.014 -17.924 -23.351  0.00  0.00    +0.429 C 
ATOM     21  C   UNL     1      37.960 -23.332 -14.970  0.00  0.00    +0.040 C 
ENDROOT
BRANCH  17  22
ATOM     22  O   UNL     1      34.660 -24.892 -15.011  0.00  0.00    -0.468 OA
ATOM     23  C   UNL     1      33.720 -24.346 -14.091  0.00  0.00    +0.253 C 
ENDBRANCH  17  22
BRANCH  19  24
ATOM     24  O   UNL     1      36.983 -24.968 -13.549  0.00  0.00    -0.468 OA
ATOM     25  C   UNL     1      38.269 -25.525 -13.281  0.00  0.00    +0.253 C 
ENDBRANCH  19  24
TORSDOF 2
ENDMDL
MODEL 3
REMARK VINA RESULT:      -9.7      9.522     12.025
REMARK  Name = 2353
REMARK  2 active torsions:
REMARK  status: ('A' for Active; 'I' for Inactive)
REMARK    1  A    between atoms: C_17  and  O_22
REMARK    2  A    between atoms: C_19  and  O_24
REMARK                            x       y       z     vdW  Elec       q    Type
REMARK                         _______ _______ _______ _____ _____    ______ ____
ROOT
ATOM      1  O   UNL     1      27.018 -22.777 -15.865  0.00  0.00    -0.435 OA
ATOM      2  O   UNL     1      28.493 -22.231 -17.690  0.00  0.00    -0.435 OA
ATOM      3  N   UNL     1      32.913 -24.525 -14.189  0.00  0.00    -0.300 N 
ATOM      4  C   UNL     1      31.913 -25.283 -13.394  0.00  0.00    +0.096 C 
ATOM      5  C   UNL     1      30.753 -24.376 -13.031  0.00  0.00    +0.048 C 
ATOM      6  C   UNL     1      32.526 -23.657 -15.168  0.00  0.00    +0.118 C 
ATOM      7  C   UNL     1      30.180 -23.797 -14.294  0.00  0.00    -0.019 C 
ATOM      8  C   UNL     1      31.074 -23.459 -15.347  0.00  0.00    -0.001 C 
ATOM      9  C   UNL     1      34.222 -24.765 -13.946  0.00  0.00    +0.065 C 
ATOM     10  C   UNL     1      33.513 -22.988 -15.912  0.00  0.00    -0.002 C 
ATOM     11  C   UNL     1      35.232 -24.128 -14.663  0.00  0.00    +0.051 C 
ATOM     12  C   UNL     1      34.872 -23.217 -15.668  0.00  0.00    +0.002 C 
ATOM     13  C   UNL     1      28.797 -23.576 -14.400  0.00  0.00    +0.036 C 
ATOM     14  C   UNL     1      30.528 -22.927 -16.533  0.00  0.00    +0.038 C 
ATOM     15  C   UNL     1      28.321 -23.047 -15.578  0.00  0.00    +0.176 C 
ATOM     16  C   UNL     1      29.162 -22.736 -16.616  0.00  0.00    +0.176 C 
ATOM     17  C   UNL     1      36.591 -24.374 -14.405  0.00  0.00    +0.174 C 
ATOM     18  C   UNL     1      35.879 -22.563 -16.397  0.00  0.00    +0.003 C 
ATOM     19  C   UNL     1      37.581 -23.718 -15.138  0.00  0.00    +0.172 C 
ATOM     20  C   UNL     1      27.135 -22.261 -17.206  0.00  0.00    +0.429 C 
ATOM     21  C   UNL     1      37.226 -22.813 -16.133  0.00  0.00    +0.040 C 
ENDROOT
BRANCH  17  22
ATOM     22  O   UNL     1      36.970 -25.256 -13.433  0.00  0.00    -0.468 OA
ATOM     23  C   UNL     1      37.255 -24.715 -12.147  0.00  0.00    +0.253 C 
ENDBRANCH  17  22
BRANCH  19  24
ATOM     24  O   UNL     1      38.900 -23.955 -14.889  0.00  0.00    -0.468 OA
ATOM     25  C   UNL     1      39.415 -25.227 -15.278  0.00  0.00    +0.253 C 
ENDBRANCH  19  24
TORSDOF 2
ENDMDL
MODEL 4
REMARK VINA RESULT:      -9.5      1.215      1.583
REMARK  Name = 2353
REMARK  2 active torsions:
REMARK  status: ('A' for Active; 'I' for Inactive)
REMARK    1  A    between atoms: C_17  and  O_22
REMARK    2  A    between atoms: C_19  and  O_24
REMARK                            x       y       z     vdW  Elec       q    Type
REMARK                         _______ _______ _______ _____ _____    ______ ____
ROOT
ATOM      1  O   UNL     1      34.648 -21.006 -20.869  0.00  0.00    -0.435 OA
ATOM      2  O   UNL     1      32.694 -20.029 -19.853  0.00  0.00    -0.435 OA
ATOM      3  N   UNL     1      33.965 -15.124 -23.227  0.00  0.00    -0.300 N 
ATOM      4  C   UNL     1      34.778 -15.952 -24.154  0.00  0.00    +0.096 C 
ATOM      5  C   UNL     1      35.702 -16.855 -23.359  0.00  0.00    +0.048 C 
ATOM      6  C   UNL     1      33.423 -15.659 -22.095  0.00  0.00    +0.118 C 
ATOM      7  C   UNL     1      34.874 -17.678 -22.412  0.00  0.00    -0.019 C 
ATOM      8  C   UNL     1      33.740 -17.071 -21.805  0.00  0.00    -0.001 C 
ATOM      9  C   UNL     1      33.737 -13.836 -23.570  0.00  0.00    +0.065 C 
ATOM     10  C   UNL     1      32.635 -14.840 -21.267  0.00  0.00    -0.002 C 
ATOM     11  C   UNL     1      32.958 -12.991 -22.782  0.00  0.00    +0.051 C 
ATOM     12  C   UNL     1      32.396 -13.502 -21.602  0.00  0.00    +0.002 C 
ATOM     13  C   UNL     1      35.244 -19.002 -22.126  0.00  0.00    +0.036 C 
ATOM     14  C   UNL     1      32.962 -17.852 -20.927  0.00  0.00    +0.038 C 
ATOM     15  C   UNL     1      34.453 -19.715 -21.255  0.00  0.00    +0.176 C 
ATOM     16  C   UNL     1      33.341 -19.157 -20.676  0.00  0.00    +0.176 C 
ATOM     17  C   UNL     1      32.726 -11.652 -23.137  0.00  0.00    +0.174 C 
ATOM     18  C   UNL     1      31.612 -12.662 -20.794  0.00  0.00    +0.003 C 
ATOM     19  C   UNL     1      31.945 -10.829 -22.326  0.00  0.00    +0.172 C 
ATOM     20  C   UNL     1      33.528 -21.198 -19.982  0.00  0.00    +0.429 C 
ATOM     21  C   UNL     1      31.388 -11.333 -21.155  0.00  0.00    +0.040 C 
ENDROOT
BRANCH  17  22
ATOM     22  O   UNL     1      33.261 -11.129 -24.281  0.00  0.00    -0.468 OA
ATOM     23  C   UNL     1      34.461 -10.373 -24.144  0.00  0.00    +0.253 C 
ENDBRANCH  17  22
BRANCH  19  24
ATOM     24  O   UNL     1      31.719  -9.530 -22.668  0.00  0.00    -0.468 OA
ATOM     25  C   UNL     1      32.050  -8.537 -21.698  0.00  0.00    +0.253 C 
ENDBRANCH  19  24
TORSDOF 2
ENDMDL
MODEL 5
REMARK VINA RESULT:      -9.5      3.697      9.768
REMARK  Name = 2353
REMARK  2 active torsions:
REMARK  status: ('A' for Active; 'I' for Inactive)
REMARK    1  A    between atoms: C_17  and  O_22
REMARK    2  A    between atoms: C_19  and  O_24
REMARK                            x       y       z     vdW  Elec       q    Type
REMARK                         _______ _______ _______ _____ _____    ______ ____
ROOT
ATOM      1  O   UNL     1      31.300  -4.928 -22.136  0.00  0.00    -0.435 OA
ATOM      2  O   UNL     1      31.440  -5.884 -24.343  0.00  0.00    -0.435 OA
ATOM      3  N   UNL     1      32.012 -11.227 -21.483  0.00  0.00    -0.300 N 
ATOM      4  C   UNL     1      31.399 -10.656 -20.256  0.00  0.00    +0.096 C 
ATOM      5  C   UNL     1      32.030  -9.312 -19.947  0.00  0.00    +0.048 C 
ATOM      6  C   UNL     1      32.277 -10.446 -22.569  0.00  0.00    +0.118 C 
ATOM      7  C   UNL     1      31.879  -8.420 -21.147  0.00  0.00    -0.019 C 
ATOM      8  C   UNL     1      31.992  -9.004 -22.440  0.00  0.00    -0.001 C 
ATOM      9  C   UNL     1      32.248 -12.559 -21.505  0.00  0.00    +0.065 C 
ATOM     10  C   UNL     1      32.829 -11.043 -23.716  0.00  0.00    -0.002 C 
ATOM     11  C   UNL     1      32.790 -13.192 -22.622  0.00  0.00    +0.051 C 
ATOM     12  C   UNL     1      33.089 -12.418 -23.754  0.00  0.00    +0.002 C 
ATOM     13  C   UNL     1      31.660  -7.044 -20.976  0.00  0.00    +0.036 C 
ATOM     14  C   UNL     1      31.837  -8.164 -23.561  0.00  0.00    +0.038 C 
ATOM     15  C   UNL     1      31.525  -6.270 -22.106  0.00  0.00    +0.176 C 
ATOM     16  C   UNL     1      31.606  -6.816 -23.362  0.00  0.00    +0.176 C 
ATOM     17  C   UNL     1      33.040 -14.574 -22.642  0.00  0.00    +0.174 C 
ATOM     18  C   UNL     1      33.639 -13.040 -24.887  0.00  0.00    +0.003 C 
ATOM     19  C   UNL     1      33.585 -15.179 -23.774  0.00  0.00    +0.172 C 
ATOM     20  C   UNL     1      31.246  -4.691 -23.557  0.00  0.00    +0.429 C 
ATOM     21  C   UNL     1      33.885 -14.413 -24.896  0.00  0.00    +0.040 C 
ENDROOT
BRANCH  17  22
ATOM     22  O   UNL     1      32.757 -15.351 -21.554  0.00  0.00    -0.468 OA
ATOM     23  C   UNL     1      33.833 -15.630 -20.664  0.00  0.00    +0.253 C 
ENDBRANCH  17  22
BRANCH  19  24
ATOM     24  O   UNL     1      33.829 -16.519 -23.795  0.00  0.00    -0.468 OA
ATOM     25  C   UNL     1      34.622 -17.017 -24.872  0.00  0.00    +0.253 C 
ENDBRANCH  19  24
TORSDOF 2
ENDMDL
MODEL 6
REMARK VINA RESULT:      -9.0      4.485      8.043
REMARK  Name = 2353
REMARK  2 active torsions:
REMARK  status: ('A' for Active; 'I' for Inactive)
REMARK    1  A    between atoms: C_17  and  O_22
REMARK    2  A    between atoms: C_19  and  O_24
REMARK                            x       y       z     vdW  Elec       q    Type
REMARK                         _______ _______ _______ _____ _____    ______ ____
ROOT
ATOM      1  O   UNL     1      36.823 -25.484 -12.772  0.00  0.00    -0.435 OA
ATOM      2  O   UNL     1      38.334 -23.701 -13.358  0.00  0.00    -0.435 OA
ATOM      3  N   UNL     1      34.357 -22.417 -17.785  0.00  0.00    -0.300 N 
ATOM      4  C   UNL     1      33.285 -23.142 -17.055  0.00  0.00    +0.096 C 
ATOM      5  C   UNL     1      33.810 -24.482 -16.573  0.00  0.00    +0.048 C 
ATOM      6  C   UNL     1      35.642 -22.407 -17.325  0.00  0.00    +0.118 C 
ATOM      7  C   UNL     1      35.034 -24.247 -15.734  0.00  0.00    -0.019 C 
ATOM      8  C   UNL     1      35.924 -23.205 -16.115  0.00  0.00    -0.001 C 
ATOM      9  C   UNL     1      34.006 -21.723 -18.891  0.00  0.00    +0.065 C 
ATOM     10  C   UNL     1      36.612 -21.680 -18.036  0.00  0.00    -0.002 C 
ATOM     11  C   UNL     1      34.934 -20.985 -19.622  0.00  0.00    +0.051 C 
ATOM     12  C   UNL     1      36.268 -20.963 -19.188  0.00  0.00    +0.002 C 
ATOM     13  C   UNL     1      35.289 -25.065 -14.621  0.00  0.00    +0.036 C 
ATOM     14  C   UNL     1      37.063 -22.983 -15.316  0.00  0.00    +0.038 C 
ATOM     15  C   UNL     1      36.421 -24.808 -13.882  0.00  0.00    +0.176 C 
ATOM     16  C   UNL     1      37.281 -23.792 -14.218  0.00  0.00    +0.176 C 
ATOM     17  C   UNL     1      34.568 -20.269 -20.774  0.00  0.00    +0.174 C 
ATOM     18  C   UNL     1      37.217 -20.227 -19.916  0.00  0.00    +0.003 C 
ATOM     19  C   UNL     1      35.520 -19.541 -21.488  0.00  0.00    +0.172 C 
ATOM     20  C   UNL     1      38.036 -24.776 -12.444  0.00  0.00    +0.429 C 
ATOM     21  C   UNL     1      36.844 -19.519 -21.060  0.00  0.00    +0.040 C 
ENDROOT
BRANCH  17  22
ATOM     22  O   UNL     1      33.276 -20.272 -21.219  0.00  0.00    -0.468 OA
ATOM     23  C   UNL     1      32.398 -19.303 -20.655  0.00  0.00    +0.253 C 
ENDBRANCH  17  22
BRANCH  19  24
ATOM     24  O   UNL     1      35.169 -18.846 -22.606  0.00  0.00    -0.468 OA
ATOM     25  C   UNL     1      35.366 -17.433 -22.581  0.00  0.00    +0.253 C 
ENDBRANCH  19  24
TORSDOF 2
ENDMDL
MODEL 7
REMARK VINA RESULT:      -9.0      4.923      7.750
REMARK  Name = 2353
REMARK  2 active torsions:
REMARK  status: ('A' for Active; 'I' for Inactive)
REMARK    1  A    between atoms: C_17  and  O_22
REMARK    2  A    between atoms: C_19  and  O_24
REMARK                            x       y       z     vdW  Elec       q    Type
REMARK                         _______ _______ _______ _____ _____    ______ ____
ROOT
ATOM      1  O   UNL     1      30.309 -25.063 -13.683  0.00  0.00    -0.435 OA
ATOM      2  O   UNL     1      29.116 -24.495 -15.697  0.00  0.00    -0.435 OA
ATOM      3  N   UNL     1      34.490 -22.525 -17.768  0.00  0.00    -0.300 N 
ATOM      4  C   UNL     1      35.201 -23.361 -16.768  0.00  0.00    +0.096 C 
ATOM      5  C   UNL     1      34.558 -23.188 -15.405  0.00  0.00    +0.048 C 
ATOM      6  C   UNL     1      33.129 -22.436 -17.775  0.00  0.00    +0.118 C 
ATOM      7  C   UNL     1      33.097 -23.522 -15.515  0.00  0.00    -0.019 C 
ATOM      8  C   UNL     1      32.408 -23.153 -16.704  0.00  0.00    -0.001 C 
ATOM      9  C   UNL     1      35.235 -21.896 -18.705  0.00  0.00    +0.065 C 
ATOM     10  C   UNL     1      32.503 -21.655 -18.762  0.00  0.00    -0.002 C 
ATOM     11  C   UNL     1      34.657 -21.116 -19.705  0.00  0.00    +0.051 C 
ATOM     12  C   UNL     1      33.259 -20.990 -19.735  0.00  0.00    +0.002 C 
ATOM     13  C   UNL     1      32.441 -24.157 -14.449  0.00  0.00    +0.036 C 
ATOM     14  C   UNL     1      31.041 -23.479 -16.805  0.00  0.00    +0.038 C 
ATOM     15  C   UNL     1      31.103 -24.445 -14.599  0.00  0.00    +0.176 C 
ATOM     16  C   UNL     1      30.424 -24.120 -15.746  0.00  0.00    +0.176 C 
ATOM     17  C   UNL     1      35.432 -20.459 -20.674  0.00  0.00    +0.174 C 
ATOM     18  C   UNL     1      32.660 -20.204 -20.733  0.00  0.00    +0.003 C 
ATOM     19  C   UNL     1      34.825 -19.682 -21.661  0.00  0.00    +0.172 C 
ATOM     20  C   UNL     1      29.051 -25.092 -14.387  0.00  0.00    +0.429 C 
ATOM     21  C   UNL     1      33.440 -19.555 -21.691  0.00  0.00    +0.040 C 
ENDROOT
BRANCH  17  22
ATOM     22  O   UNL     1      36.795 -20.565 -20.669  0.00  0.00    -0.468 OA
ATOM     23  C   UNL     1      37.530 -19.405 -20.289  0.00  0.00    +0.253 C 
ENDBRANCH  17  22
BRANCH  19  24
ATOM     24  O   UNL     1      35.575 -19.043 -22.602  0.00  0.00    -0.468 OA
ATOM     25  C   UNL     1      34.936 -18.730 -23.838  0.00  0.00    +0.253 C 
ENDBRANCH  19  24
TORSDOF 2
ENDMDL
MODEL 8
REMARK VINA RESULT:      -8.5      4.860     11.624
REMARK  Name = 2353
REMARK  2 active torsions:
REMARK  status: ('A' for Active; 'I' for Inactive)
REMARK    1  A    between atoms: C_17  and  O_22
REMARK    2  A    between atoms: C_19  and  O_24
REMARK                            x       y       z     vdW  Elec       q    Type
REMARK                         _______ _______ _______ _____ _____    ______ ____
ROOT
ATOM      1  O   UNL     1      31.006  -1.878 -24.001  0.00  0.00    -0.435 OA
ATOM      2  O   UNL     1      30.054  -3.034 -22.114  0.00  0.00    -0.435 OA
ATOM      3  N   UNL     1      33.212  -7.857 -24.069  0.00  0.00    -0.300 N 
ATOM      4  C   UNL     1      34.126  -6.970 -24.834  0.00  0.00    +0.096 C 
ATOM      5  C   UNL     1      33.316  -5.952 -25.615  0.00  0.00    +0.048 C 
ATOM      6  C   UNL     1      32.124  -7.356 -23.416  0.00  0.00    +0.118 C 
ATOM      7  C   UNL     1      32.434  -5.200 -24.658  0.00  0.00    -0.019 C 
ATOM      8  C   UNL     1      31.863  -5.910 -23.566  0.00  0.00    -0.001 C 
ATOM      9  C   UNL     1      33.526  -9.170 -23.996  0.00  0.00    +0.065 C 
ATOM     10  C   UNL     1      31.309  -8.234 -22.681  0.00  0.00    -0.002 C 
ATOM     11  C   UNL     1      32.750 -10.074 -23.274  0.00  0.00    +0.051 C 
ATOM     12  C   UNL     1      31.614  -9.598 -22.602  0.00  0.00    +0.002 C 
ATOM     13  C   UNL     1      32.171  -3.837 -24.870  0.00  0.00    +0.036 C 
ATOM     14  C   UNL     1      31.047  -5.196 -22.667  0.00  0.00    +0.038 C 
ATOM     15  C   UNL     1      31.361  -3.192 -23.965  0.00  0.00    +0.176 C 
ATOM     16  C   UNL     1      30.818  -3.851 -22.891  0.00  0.00    +0.176 C 
ATOM     17  C   UNL     1      33.074 -11.439 -23.204  0.00  0.00    +0.174 C 
ATOM     18  C   UNL     1      30.818 -10.496 -21.873  0.00  0.00    +0.003 C 
ATOM     19  C   UNL     1      32.276 -12.321 -22.476  0.00  0.00    +0.172 C 
ATOM     20  C   UNL     1      30.179  -1.786 -22.824  0.00  0.00    +0.429 C 
ATOM     21  C   UNL     1      31.148 -11.851 -21.811  0.00  0.00    +0.040 C 
ENDROOT
BRANCH  17  22
ATOM     22  O   UNL     1      34.175 -11.930 -23.849  0.00  0.00    -0.468 OA
ATOM     23  C   UNL     1      33.999 -12.347 -25.199  0.00  0.00    +0.253 C 
ENDBRANCH  17  22
BRANCH  19  24
ATOM     24  O   UNL     1      32.588 -13.646 -22.408  0.00  0.00    -0.468 OA
ATOM     25  C   UNL     1      32.913 -14.170 -21.121  0.00  0.00    +0.253 C 
ENDBRANCH  19  24
TORSDOF 2
ENDMDL
MODEL 9
REMARK VINA RESULT:      -8.4      4.258      7.944
REMARK  Name = 2353
REMARK  2 active torsions:
REMARK  status: ('A' for Active; 'I' for Inactive)
REMARK    1  A    between atoms: C_17  and  O_22
REMARK    2  A    between atoms: C_19  and  O_24
REMARK                            x       y       z     vdW  Elec       q    Type
REMARK                         _______ _______ _______ _____ _____    ______ ____
ROOT
ATOM      1  O   UNL     1      33.014 -15.360 -22.459  0.00  0.00    -0.435 OA
ATOM      2  O   UNL     1      34.178 -14.166 -24.197  0.00  0.00    -0.435 OA
ATOM      3  N   UNL     1      31.955  -9.138 -21.583  0.00  0.00    -0.300 N 
ATOM      4  C   UNL     1      31.742  -9.873 -20.310  0.00  0.00    +0.096 C 
ATOM      5  C   UNL     1      31.071 -11.203 -20.594  0.00  0.00    +0.048 C 
ATOM      6  C   UNL     1      32.389  -9.780 -22.706  0.00  0.00    +0.118 C 
ATOM      7  C   UNL     1      31.910 -11.968 -21.578  0.00  0.00    -0.019 C 
ATOM      8  C   UNL     1      32.567 -11.242 -22.611  0.00  0.00    -0.001 C 
ATOM      9  C   UNL     1      31.756  -7.800 -21.577  0.00  0.00    +0.065 C 
ATOM     10  C   UNL     1      32.605  -9.032 -23.876  0.00  0.00    -0.002 C 
ATOM     11  C   UNL     1      31.962  -7.019 -22.713  0.00  0.00    +0.051 C 
ATOM     12  C   UNL     1      32.395  -7.648 -23.891  0.00  0.00    +0.002 C 
ATOM     13  C   UNL     1      32.009 -13.365 -21.481  0.00  0.00    +0.036 C 
ATOM     14  C   UNL     1      33.362 -11.964 -23.523  0.00  0.00    +0.038 C 
ATOM     15  C   UNL     1      32.792 -14.019 -22.404  0.00  0.00    +0.176 C 
ATOM     16  C   UNL     1      33.454 -13.337 -23.394  0.00  0.00    +0.176 C 
ATOM     17  C   UNL     1      31.750  -5.631 -22.706  0.00  0.00    +0.174 C 
ATOM     18  C   UNL     1      32.604  -6.876 -25.046  0.00  0.00    +0.003 C 
ATOM     19  C   UNL     1      31.962  -4.876 -23.860  0.00  0.00    +0.172 C 
ATOM     20  C   UNL     1      33.894 -15.446 -23.598  0.00  0.00    +0.429 C 
ATOM     21  C   UNL     1      32.389  -5.498 -25.029  0.00  0.00    +0.040 C 
ENDROOT
BRANCH  17  22
ATOM     22  O   UNL     1      31.329  -4.993 -21.573  0.00  0.00    -0.468 OA
ATOM     23  C   UNL     1      29.924  -4.932 -21.351  0.00  0.00    +0.253 C 
ENDBRANCH  17  22
BRANCH  19  24
ATOM     24  O   UNL     1      31.755  -3.529 -23.856  0.00  0.00    -0.468 OA
ATOM     25  C   UNL     1      30.891  -3.003 -24.862  0.00  0.00    +0.253 C 
ENDBRANCH  19  24
TORSDOF 2
ENDMDL
