MODEL 1
REMARK VINA RESULT:      -8.2      0.000      0.000
REMARK  Name = 3137930
REMARK  0 active torsions:
REMARK  status: ('A' for Active; 'I' for Inactive)
REMARK                            x       y       z     vdW  Elec       q    Type
REMARK                         _______ _______ _______ _____ _____    ______ ____
ROOT
ATOM      1  O   UNL     1      32.220 -20.240 -20.818  0.00  0.00    -0.295 OA
ATOM      2  N   UNL     1      36.840 -20.477 -19.776  0.00  0.00    -0.252 NA
ATOM      3  N   UNL     1      35.379 -22.190 -18.916  0.00  0.00    -0.234 NA
ATOM      4  N   UNL     1      33.086 -22.180 -19.375  0.00  0.00    -0.346 N 
ATOM      5  C   UNL     1      35.031 -18.389 -22.285  0.00  0.00    +0.012 C 
ATOM      6  C   UNL     1      36.045 -18.632 -21.148  0.00  0.00    +0.042 C 
ATOM      7  C   UNL     1      33.599 -18.504 -21.732  0.00  0.00    +0.066 C 
ATOM      8  C   UNL     1      35.239 -16.966 -22.839  0.00  0.00    +0.001 C 
ATOM      9  C   UNL     1      35.249 -19.385 -23.442  0.00  0.00    +0.001 C 
ATOM     10  C   UNL     1      35.778 -19.899 -20.384  0.00  0.00    +0.047 C 
ATOM     11  C   UNL     1      33.348 -19.776 -20.947  0.00  0.00    +0.162 C 
ATOM     12  C   UNL     1      34.498 -20.419 -20.281  0.00  0.00    +0.146 C 
ATOM     13  C   UNL     1      34.351 -21.575 -19.534  0.00  0.00    +0.111 C 
ATOM     14  C   UNL     1      36.576 -21.597 -19.075  0.00  0.00    +0.251 C 
ATOM     15  H   UNL     1      32.996 -23.002 -18.841  0.00  0.00    +0.143 HD
ATOM     16  H   UNL     1      32.292 -21.781 -19.800  0.00  0.00    +0.143 HD
ENDROOT
TORSDOF 0
ENDMDL
MODEL 2
REMARK VINA RESULT:      -8.1      3.720      5.434
REMARK  Name = 3137930
REMARK  0 active torsions:
REMARK  status: ('A' for Active; 'I' for Inactive)
REMARK                            x       y       z     vdW  Elec       q    Type
REMARK                         _______ _______ _______ _____ _____    ______ ____
ROOT
ATOM      1  O   UNL     1      34.527 -18.443 -25.029  0.00  0.00    -0.295 OA
ATOM      2  N   UNL     1      34.740 -15.427 -21.376  0.00  0.00    -0.252 NA
ATOM      3  N   UNL     1      34.056 -14.580 -23.526  0.00  0.00    -0.234 NA
ATOM      4  N   UNL     1      33.905 -15.979 -25.395  0.00  0.00    -0.346 N 
ATOM      5  C   UNL     1      34.852 -19.157 -21.442  0.00  0.00    +0.012 C 
ATOM      6  C   UNL     1      35.331 -17.758 -21.003  0.00  0.00    +0.042 C 
ATOM      7  C   UNL     1      35.200 -19.378 -22.925  0.00  0.00    +0.066 C 
ATOM      8  C   UNL     1      35.581 -20.219 -20.596  0.00  0.00    +0.001 C 
ATOM      9  C   UNL     1      33.337 -19.322 -21.208  0.00  0.00    +0.001 C 
ATOM     10  C   UNL     1      34.859 -16.662 -21.917  0.00  0.00    +0.047 C 
ATOM     11  C   UNL     1      34.737 -18.258 -23.835  0.00  0.00    +0.162 C 
ATOM     12  C   UNL     1      34.599 -16.906 -23.257  0.00  0.00    +0.146 C 
ATOM     13  C   UNL     1      34.195 -15.827 -24.022  0.00  0.00    +0.111 C 
ATOM     14  C   UNL     1      34.341 -14.454 -22.218  0.00  0.00    +0.251 C 
ATOM     15  H   UNL     1      33.618 -15.202 -25.927  0.00  0.00    +0.143 HD
ATOM     16  H   UNL     1      33.987 -16.863 -25.821  0.00  0.00    +0.143 HD
ENDROOT
TORSDOF 0
ENDMDL
MODEL 3
REMARK VINA RESULT:      -7.4      5.453      7.628
REMARK  Name = 3137930
REMARK  0 active torsions:
REMARK  status: ('A' for Active; 'I' for Inactive)
REMARK                            x       y       z     vdW  Elec       q    Type
REMARK                         _______ _______ _______ _____ _____    ______ ____
ROOT
ATOM      1  O   UNL     1      32.573 -23.633 -13.201  0.00  0.00    -0.295 OA
ATOM      2  N   UNL     1      32.545 -22.821 -17.873  0.00  0.00    -0.252 NA
ATOM      3  N   UNL     1      34.657 -23.253 -16.795  0.00  0.00    -0.234 NA
ATOM      4  N   UNL     1      34.788 -23.677 -14.499  0.00  0.00    -0.346 N 
ATOM      5  C   UNL     1      29.734 -23.551 -15.529  0.00  0.00    +0.012 C 
ATOM      6  C   UNL     1      30.432 -22.778 -16.667  0.00  0.00    +0.042 C 
ATOM      7  C   UNL     1      30.425 -23.232 -14.191  0.00  0.00    +0.066 C 
ATOM      8  C   UNL     1      28.263 -23.097 -15.451  0.00  0.00    +0.001 C 
ATOM      9  C   UNL     1      29.749 -25.069 -15.800  0.00  0.00    +0.001 C 
ATOM     10  C   UNL     1      31.923 -22.972 -16.681  0.00  0.00    +0.047 C 
ATOM     11  C   UNL     1      31.930 -23.412 -14.222  0.00  0.00    +0.162 C 
ATOM     12  C   UNL     1      32.621 -23.253 -15.517  0.00  0.00    +0.146 C 
ATOM     13  C   UNL     1      33.993 -23.388 -15.629  0.00  0.00    +0.111 C 
ATOM     14  C   UNL     1      33.884 -22.973 -17.860  0.00  0.00    +0.251 C 
ATOM     15  H   UNL     1      35.764 -23.770 -14.593  0.00  0.00    +0.143 HD
ATOM     16  H   UNL     1      34.367 -23.787 -13.615  0.00  0.00    +0.143 HD
ENDROOT
TORSDOF 0
ENDMDL
MODEL 4
REMARK VINA RESULT:      -7.4      4.068      5.740
REMARK  Name = 3137930
REMARK  0 active torsions:
REMARK  status: ('A' for Active; 'I' for Inactive)
REMARK                            x       y       z     vdW  Elec       q    Type
REMARK                         _______ _______ _______ _____ _____    ______ ____
ROOT
ATOM      1  O   UNL     1      35.705 -17.246 -20.711  0.00  0.00    -0.295 OA
ATOM      2  N   UNL     1      33.550 -15.492 -24.554  0.00  0.00    -0.252 NA
ATOM      3  N   UNL     1      34.967 -17.425 -24.813  0.00  0.00    -0.234 NA
ATOM      4  N   UNL     1      36.070 -18.381 -22.986  0.00  0.00    -0.346 N 
ATOM      5  C   UNL     1      32.980 -14.795 -20.932  0.00  0.00    +0.012 C 
ATOM      6  C   UNL     1      33.185 -14.402 -22.410  0.00  0.00    +0.042 C 
ATOM      7  C   UNL     1      34.302 -15.334 -20.355  0.00  0.00    +0.066 C 
ATOM      8  C   UNL     1      32.565 -13.541 -20.139  0.00  0.00    +0.001 C 
ATOM      9  C   UNL     1      31.857 -15.842 -20.789  0.00  0.00    +0.001 C 
ATOM     10  C   UNL     1      33.815 -15.496 -23.227  0.00  0.00    +0.047 C 
ATOM     11  C   UNL     1      34.937 -16.423 -21.198  0.00  0.00    +0.162 C 
ATOM     12  C   UNL     1      34.655 -16.433 -22.646  0.00  0.00    +0.146 C 
ATOM     13  C   UNL     1      35.206 -17.384 -23.487  0.00  0.00    +0.111 C 
ATOM     14  C   UNL     1      34.145 -16.465 -25.273  0.00  0.00    +0.251 C 
ATOM     15  H   UNL     1      36.456 -19.051 -23.596  0.00  0.00    +0.143 HD
ATOM     16  H   UNL     1      36.288 -18.407 -22.026  0.00  0.00    +0.143 HD
ENDROOT
TORSDOF 0
ENDMDL
MODEL 5
REMARK VINA RESULT:      -7.3      1.851      2.883
REMARK  Name = 3137930
REMARK  0 active torsions:
REMARK  status: ('A' for Active; 'I' for Inactive)
REMARK                            x       y       z     vdW  Elec       q    Type
REMARK                         _______ _______ _______ _____ _____    ______ ____
ROOT
ATOM      1  O   UNL     1      37.639 -19.651 -20.590  0.00  0.00    -0.295 OA
ATOM      2  N   UNL     1      32.969 -20.473 -20.594  0.00  0.00    -0.252 NA
ATOM      3  N   UNL     1      34.362 -21.765 -19.110  0.00  0.00    -0.234 NA
ATOM      4  N   UNL     1      36.675 -21.437 -19.016  0.00  0.00    -0.346 N 
ATOM      5  C   UNL     1      34.931 -17.665 -22.076  0.00  0.00    +0.012 C 
ATOM      6  C   UNL     1      33.857 -18.773 -22.090  0.00  0.00    +0.042 C 
ATOM      7  C   UNL     1      36.331 -18.306 -22.084  0.00  0.00    +0.066 C 
ATOM      8  C   UNL     1      34.771 -16.802 -23.342  0.00  0.00    +0.001 C 
ATOM      9  C   UNL     1      34.761 -16.746 -20.849  0.00  0.00    +0.001 C 
ATOM     10  C   UNL     1      34.068 -19.810 -21.022  0.00  0.00    +0.047 C 
ATOM     11  C   UNL     1      36.525 -19.363 -21.016  0.00  0.00    +0.162 C 
ATOM     12  C   UNL     1      35.335 -20.092 -20.536  0.00  0.00    +0.146 C 
ATOM     13  C   UNL     1      35.428 -21.082 -19.573  0.00  0.00    +0.111 C 
ATOM     14  C   UNL     1      33.182 -21.416 -19.655  0.00  0.00    +0.251 C 
ATOM     15  H   UNL     1      36.727 -22.143 -18.332  0.00  0.00    +0.143 HD
ATOM     16  H   UNL     1      37.495 -20.978 -19.311  0.00  0.00    +0.143 HD
ENDROOT
TORSDOF 0
ENDMDL
MODEL 6
REMARK VINA RESULT:      -7.3      3.917      5.697
REMARK  Name = 3137930
REMARK  0 active torsions:
REMARK  status: ('A' for Active; 'I' for Inactive)
REMARK                            x       y       z     vdW  Elec       q    Type
REMARK                         _______ _______ _______ _____ _____    ______ ____
ROOT
ATOM      1  O   UNL     1      34.904 -15.350 -20.809  0.00  0.00    -0.295 OA
ATOM      2  N   UNL     1      34.267 -17.623 -24.922  0.00  0.00    -0.252 NA
ATOM      3  N   UNL     1      34.104 -15.218 -24.901  0.00  0.00    -0.234 NA
ATOM      4  N   UNL     1      34.411 -13.993 -22.933  0.00  0.00    -0.346 N 
ATOM      5  C   UNL     1      35.631 -18.845 -21.670  0.00  0.00    +0.012 C 
ATOM      6  C   UNL     1      34.739 -18.930 -22.926  0.00  0.00    +0.042 C 
ATOM      7  C   UNL     1      35.104 -17.739 -20.738  0.00  0.00    +0.066 C 
ATOM      8  C   UNL     1      35.572 -20.193 -20.927  0.00  0.00    +0.001 C 
ATOM      9  C   UNL     1      37.101 -18.577 -22.054  0.00  0.00    +0.001 C 
ATOM     10  C   UNL     1      34.539 -17.600 -23.597  0.00  0.00    +0.047 C 
ATOM     11  C   UNL     1      34.888 -16.408 -21.430  0.00  0.00    +0.162 C 
ATOM     12  C   UNL     1      34.594 -16.417 -22.877  0.00  0.00    +0.146 C 
ATOM     13  C   UNL     1      34.372 -15.247 -23.580  0.00  0.00    +0.111 C 
ATOM     14  C   UNL     1      34.067 -16.422 -25.500  0.00  0.00    +0.251 C 
ATOM     15  H   UNL     1      34.250 -13.168 -23.446  0.00  0.00    +0.143 HD
ATOM     16  H   UNL     1      34.599 -13.942 -21.968  0.00  0.00    +0.143 HD
ENDROOT
TORSDOF 0
ENDMDL
MODEL 7
REMARK VINA RESULT:      -7.2      7.699      9.270
REMARK  Name = 3137930
REMARK  0 active torsions:
REMARK  status: ('A' for Active; 'I' for Inactive)
REMARK                            x       y       z     vdW  Elec       q    Type
REMARK                         _______ _______ _______ _____ _____    ______ ____
ROOT
ATOM      1  O   UNL     1      35.908 -23.604 -15.741  0.00  0.00    -0.295 OA
ATOM      2  N   UNL     1      36.956 -24.642 -11.233  0.00  0.00    -0.252 NA
ATOM      3  N   UNL     1      34.711 -23.938 -11.759  0.00  0.00    -0.234 NA
ATOM      4  N   UNL     1      34.080 -23.412 -13.948  0.00  0.00    -0.346 N 
ATOM      5  C   UNL     1      38.859 -25.310 -14.374  0.00  0.00    +0.012 C 
ATOM      6  C   UNL     1      38.704 -24.836 -12.914  0.00  0.00    +0.042 C 
ATOM      7  C   UNL     1      38.160 -24.313 -15.316  0.00  0.00    +0.066 C 
ATOM      8  C   UNL     1      40.359 -25.358 -14.723  0.00  0.00    +0.001 C 
ATOM      9  C   UNL     1      38.282 -26.728 -14.558  0.00  0.00    +0.001 C 
ATOM     10  C   UNL     1      37.280 -24.531 -12.543  0.00  0.00    +0.047 C 
ATOM     11  C   UNL     1      36.731 -23.998 -14.920  0.00  0.00    +0.162 C 
ATOM     12  C   UNL     1      36.363 -24.118 -13.496  0.00  0.00    +0.146 C 
ATOM     13  C   UNL     1      35.083 -23.836 -13.051  0.00  0.00    +0.111 C 
ATOM     14  C   UNL     1      35.681 -24.339 -10.917  0.00  0.00    +0.251 C 
ATOM     15  H   UNL     1      33.173 -23.214 -13.617  0.00  0.00    +0.143 HD
ATOM     16  H   UNL     1      34.285 -23.315 -14.906  0.00  0.00    +0.143 HD
ENDROOT
TORSDOF 0
ENDMDL
MODEL 8
REMARK VINA RESULT:      -7.1      9.949     11.632
REMARK  Name = 3137930
REMARK  0 active torsions:
REMARK  status: ('A' for Active; 'I' for Inactive)
REMARK                            x       y       z     vdW  Elec       q    Type
REMARK                         _______ _______ _______ _____ _____    ______ ____
ROOT
ATOM      1  O   UNL     1      32.627  -7.517 -19.547  0.00  0.00    -0.295 OA
ATOM      2  N   UNL     1      31.822 -11.014 -22.648  0.00  0.00    -0.252 NA
ATOM      3  N   UNL     1      31.440 -11.444 -20.307  0.00  0.00    -0.234 NA
ATOM      4  N   UNL     1      31.794  -9.790 -18.691  0.00  0.00    -0.346 N 
ATOM      5  C   UNL     1      32.385  -7.367 -23.208  0.00  0.00    +0.012 C 
ATOM      6  C   UNL     1      32.607  -8.869 -23.484  0.00  0.00    +0.042 C 
ATOM      7  C   UNL     1      33.017  -6.993 -21.855  0.00  0.00    +0.066 C 
ATOM      8  C   UNL     1      33.070  -6.551 -24.321  0.00  0.00    +0.001 C 
ATOM      9  C   UNL     1      30.882  -7.020 -23.221  0.00  0.00    +0.001 C 
ATOM     10  C   UNL     1      32.181  -9.746 -22.340  0.00  0.00    +0.047 C 
ATOM     11  C   UNL     1      32.595  -7.897 -20.714  0.00  0.00    +0.162 C 
ATOM     12  C   UNL     1      32.198  -9.282 -21.035  0.00  0.00    +0.146 C 
ATOM     13  C   UNL     1      31.812 -10.174 -20.049  0.00  0.00    +0.111 C 
ATOM     14  C   UNL     1      31.468 -11.792 -21.606  0.00  0.00    +0.251 C 
ATOM     15  H   UNL     1      31.518 -10.436 -18.000  0.00  0.00    +0.143 HD
ATOM     16  H   UNL     1      32.055  -8.877 -18.433  0.00  0.00    +0.143 HD
ENDROOT
TORSDOF 0
ENDMDL
MODEL 9
REMARK VINA RESULT:      -6.8      6.499      8.485
REMARK  Name = 3137930
REMARK  0 active torsions:
REMARK  status: ('A' for Active; 'I' for Inactive)
REMARK                            x       y       z     vdW  Elec       q    Type
REMARK                         _______ _______ _______ _____ _____    ______ ____
ROOT
ATOM      1  O   UNL     1      36.265 -22.997 -16.499  0.00  0.00    -0.295 OA
ATOM      2  N   UNL     1      33.178 -24.254 -13.126  0.00  0.00    -0.252 NA
ATOM      3  N   UNL     1      32.336 -23.782 -15.335  0.00  0.00    -0.234 NA
ATOM      4  N   UNL     1      33.768 -23.164 -17.078  0.00  0.00    -0.346 N 
ATOM      5  C   UNL     1      36.905 -24.443 -13.185  0.00  0.00    +0.012 C 
ATOM      6  C   UNL     1      35.538 -24.107 -12.554  0.00  0.00    +0.042 C 
ATOM      7  C   UNL     1      37.194 -23.465 -14.338  0.00  0.00    +0.066 C 
ATOM      8  C   UNL     1      37.999 -24.287 -12.112  0.00  0.00    +0.001 C 
ATOM      9  C   UNL     1      36.937 -25.901 -13.688  0.00  0.00    +0.001 C 
ATOM     10  C   UNL     1      34.432 -24.003 -13.567  0.00  0.00    +0.047 C 
ATOM     11  C   UNL     1      36.064 -23.353 -15.342  0.00  0.00    +0.162 C 
ATOM     12  C   UNL     1      34.691 -23.628 -14.876  0.00  0.00    +0.146 C 
ATOM     13  C   UNL     1      33.603 -23.535 -15.726  0.00  0.00    +0.111 C 
ATOM     14  C   UNL     1      32.198 -24.130 -14.043  0.00  0.00    +0.251 C 
ATOM     15  H   UNL     1      32.985 -23.101 -17.671  0.00  0.00    +0.143 HD
ATOM     16  H   UNL     1      34.667 -22.968 -17.428  0.00  0.00    +0.143 HD
ENDROOT
TORSDOF 0
ENDMDL
