MODEL 1
REMARK VINA RESULT:      -8.0      0.000      0.000
REMARK  Name = 46216796
REMARK  4 active torsions:
REMARK  status: ('A' for Active; 'I' for Inactive)
REMARK    1  A    between atoms: C_6  and  O_29
REMARK    2  A    between atoms: O_29  and  C_30
REMARK    3  A    between atoms: C_30  and  C_31
REMARK    4  A    between atoms: C_31  and  N_32
REMARK                            x       y       z     vdW  Elec       q    Type
REMARK                         _______ _______ _______ _____ _____    ______ ____
ROOT
ATOM      1  O   UNL     1      33.802 -16.205 -24.106  0.00  0.00    -0.344 OA
ATOM      2  O   UNL     1      33.238 -11.985 -26.659  0.00  0.00    -0.344 OA
ATOM      3  N   UNL     1      31.843 -12.627 -19.951  0.00  0.00    -0.247 N 
ATOM      4  N   UNL     1      32.660 -11.019 -21.549  0.00  0.00    -0.337 NA
ATOM      5  N   UNL     1      31.312 -10.359 -19.713  0.00  0.00    -0.170 NA
ATOM      6  C   UNL     1      33.263 -16.431 -21.144  0.00  0.00    +0.137 C 
ATOM      7  C   UNL     1      33.630 -15.311 -21.899  0.00  0.00    +0.043 C 
ATOM      8  C   UNL     1      32.448 -16.283 -20.027  0.00  0.00    +0.038 C 
ATOM      9  C   UNL     1      33.164 -14.040 -21.516  0.00  0.00    +0.016 C 
ATOM     10  C   UNL     1      34.514 -15.475 -23.105  0.00  0.00    +0.172 C 
ATOM     11  C   UNL     1      32.344 -13.868 -20.392  0.00  0.00    +0.058 C 
ATOM     12  C   UNL     1      31.996 -15.017 -19.657  0.00  0.00    +0.018 C 
ATOM     13  C   UNL     1      34.562 -16.390 -25.298  0.00  0.00    +0.169 C 
ATOM     14  C   UNL     1      31.955 -11.308 -20.431  0.00  0.00    +0.149 C 
ATOM     15  C   UNL     1      33.511  -9.505 -23.210  0.00  0.00    +0.030 C 
ATOM     16  C   UNL     1      34.384 -10.339 -25.358  0.00  0.00    +0.007 C 
ATOM     17  C   UNL     1      32.728  -9.731 -21.977  0.00  0.00    +0.146 C 
ATOM     18  C   UNL     1      33.654 -10.527 -24.172  0.00  0.00    +0.001 C 
ATOM     19  C   UNL     1      34.531 -11.467 -26.344  0.00  0.00    +0.169 C 
ATOM     20  C   UNL     1      34.146  -8.281 -23.478  0.00  0.00    +0.003 C 
ATOM     21  C   UNL     1      34.355 -15.299 -26.310  0.00  0.00    +0.004 C 
ATOM     22  C   UNL     1      35.004  -9.109 -25.585  0.00  0.00    -0.002 C 
ATOM     23  C   UNL     1      32.088  -8.716 -21.287  0.00  0.00    +0.055 C 
ATOM     24  C   UNL     1      34.884  -8.086 -24.649  0.00  0.00    -0.000 C 
ATOM     25  C   UNL     1      33.286 -13.262 -27.296  0.00  0.00    +0.169 C 
ATOM     26  C   UNL     1      33.415 -14.343 -26.266  0.00  0.00    +0.004 C 
ATOM     27  C   UNL     1      31.394  -9.091 -20.159  0.00  0.00    +0.114 C 
ATOM     28  H   UNL     1      31.299 -12.698 -19.133  0.00  0.00    +0.165 HD
ENDROOT
BRANCH   6  29
ATOM     29  O   UNL     1      33.682 -17.683 -21.482  0.00  0.00    -0.478 OA
BRANCH  29  30
ATOM     30  C   UNL     1      35.012 -18.043 -21.114  0.00  0.00    +0.183 C 
BRANCH  30  31
ATOM     31  C   UNL     1      35.187 -19.540 -21.313  0.00  0.00    -0.029 C 
BRANCH  31  32
ATOM     32  N   UNL     1      34.800 -20.266 -20.113  0.00  0.00    +0.389 N 
ATOM     33  C   UNL     1      33.450 -20.821 -20.205  0.00  0.00    -0.077 C 
ATOM     34  C   UNL     1      35.666 -21.416 -19.853  0.00  0.00    -0.077 C 
ATOM     35  C   UNL     1      33.414 -21.827 -19.066  0.00  0.00    -0.025 C 
ATOM     36  C   UNL     1      34.872 -22.217 -18.832  0.00  0.00    -0.025 C 
ATOM     37  H   UNL     1      34.869 -19.571 -19.370  0.00  0.00    -0.080 HD
ENDBRANCH  31  32
ENDBRANCH  30  31
ENDBRANCH  29  30
ENDBRANCH   6  29
TORSDOF 4
ENDMDL
MODEL 2
REMARK VINA RESULT:      -7.9      3.463      9.572
REMARK  Name = 46216796
REMARK  4 active torsions:
REMARK  status: ('A' for Active; 'I' for Inactive)
REMARK    1  A    between atoms: C_6  and  O_29
REMARK    2  A    between atoms: O_29  and  C_30
REMARK    3  A    between atoms: C_30  and  C_31
REMARK    4  A    between atoms: C_31  and  N_32
REMARK                            x       y       z     vdW  Elec       q    Type
REMARK                         _______ _______ _______ _____ _____    ______ ____
ROOT
ATOM      1  O   UNL     1      33.357  -7.234 -23.223  0.00  0.00    -0.344 OA
ATOM      2  O   UNL     1      35.545 -10.872 -25.798  0.00  0.00    -0.344 OA
ATOM      3  N   UNL     1      32.019 -11.877 -19.974  0.00  0.00    -0.247 N 
ATOM      4  N   UNL     1      32.517 -12.953 -22.072  0.00  0.00    -0.337 NA
ATOM      5  N   UNL     1      32.271 -14.203 -20.073  0.00  0.00    -0.170 NA
ATOM      6  C   UNL     1      31.745  -7.720 -20.718  0.00  0.00    +0.137 C 
ATOM      7  C   UNL     1      31.998  -8.579 -21.793  0.00  0.00    +0.043 C 
ATOM      8  C   UNL     1      31.589  -8.235 -19.435  0.00  0.00    +0.038 C 
ATOM      9  C   UNL     1      32.094  -9.963 -21.562  0.00  0.00    +0.016 C 
ATOM     10  C   UNL     1      32.164  -8.017 -23.179  0.00  0.00    +0.172 C 
ATOM     11  C   UNL     1      31.937 -10.504 -20.278  0.00  0.00    +0.058 C 
ATOM     12  C   UNL     1      31.684  -9.610 -19.221  0.00  0.00    +0.018 C 
ATOM     13  C   UNL     1      33.605  -6.677 -24.512  0.00  0.00    +0.169 C 
ATOM     14  C   UNL     1      32.275 -13.029 -20.743  0.00  0.00    +0.149 C 
ATOM     15  C   UNL     1      33.033 -13.919 -24.211  0.00  0.00    +0.030 C 
ATOM     16  C   UNL     1      33.838 -12.521 -26.074  0.00  0.00    +0.007 C 
ATOM     17  C   UNL     1      32.770 -14.093 -22.768  0.00  0.00    +0.146 C 
ATOM     18  C   UNL     1      33.569 -12.713 -24.708  0.00  0.00    +0.001 C 
ATOM     19  C   UNL     1      34.386 -11.207 -26.561  0.00  0.00    +0.169 C 
ATOM     20  C   UNL     1      32.759 -14.931 -25.147  0.00  0.00    +0.003 C 
ATOM     21  C   UNL     1      34.453  -7.556 -25.386  0.00  0.00    +0.004 C 
ATOM     22  C   UNL     1      33.548 -13.549 -26.972  0.00  0.00    -0.002 C 
ATOM     23  C   UNL     1      32.784 -15.324 -22.136  0.00  0.00    +0.055 C 
ATOM     24  C   UNL     1      33.013 -14.748 -26.510  0.00  0.00    -0.000 C 
ATOM     25  C   UNL     1      35.928  -9.503 -25.934  0.00  0.00    +0.169 C 
ATOM     26  C   UNL     1      35.125  -8.651 -24.998  0.00  0.00    +0.004 C 
ATOM     27  C   UNL     1      32.526 -15.318 -20.784  0.00  0.00    +0.114 C 
ATOM     28  H   UNL     1      31.864 -12.073 -19.022  0.00  0.00    +0.165 HD
ENDROOT
BRANCH   6  29
ATOM     29  O   UNL     1      31.653  -6.372 -20.892  0.00  0.00    -0.478 OA
BRANCH  29  30
ATOM     30  C   UNL     1      30.555  -5.891 -21.664  0.00  0.00    +0.183 C 
BRANCH  30  31
ATOM     31  C   UNL     1      30.674  -4.382 -21.799  0.00  0.00    -0.029 C 
BRANCH  31  32
ATOM     32  N   UNL     1      31.416  -4.030 -22.999  0.00  0.00    +0.389 N 
ATOM     33  C   UNL     1      30.811  -4.580 -24.213  0.00  0.00    -0.077 C 
ATOM     34  C   UNL     1      31.467  -2.585 -23.222  0.00  0.00    -0.077 C 
ATOM     35  C   UNL     1      31.487  -3.790 -25.322  0.00  0.00    -0.025 C 
ATOM     36  C   UNL     1      31.922  -2.479 -24.670  0.00  0.00    -0.025 C 
ATOM     37  H   UNL     1      32.346  -4.417 -22.838  0.00  0.00    -0.080 HD
ENDBRANCH  31  32
ENDBRANCH  30  31
ENDBRANCH  29  30
ENDBRANCH   6  29
TORSDOF 4
ENDMDL
MODEL 3
REMARK VINA RESULT:      -5.1     10.246     13.613
REMARK  Name = 46216796
REMARK  4 active torsions:
REMARK  status: ('A' for Active; 'I' for Inactive)
REMARK    1  A    between atoms: C_6  and  O_29
REMARK    2  A    between atoms: O_29  and  C_30
REMARK    3  A    between atoms: C_30  and  C_31
REMARK    4  A    between atoms: C_31  and  N_32
REMARK                            x       y       z     vdW  Elec       q    Type
REMARK                         _______ _______ _______ _____ _____    ______ ____
ROOT
ATOM      1  O   UNL     1      33.072 -22.369 -17.825  0.00  0.00    -0.344 OA
ATOM      2  O   UNL     1      37.899 -21.772 -16.829  0.00  0.00    -0.344 OA
ATOM      3  N   UNL     1      33.236 -23.752 -12.171  0.00  0.00    -0.247 N 
ATOM      4  N   UNL     1      35.551 -24.071 -12.757  0.00  0.00    -0.337 NA
ATOM      5  N   UNL     1      34.844 -24.036 -10.494  0.00  0.00    -0.170 NA
ATOM      6  C   UNL     1      31.066 -23.322 -15.779  0.00  0.00    +0.137 C 
ATOM      7  C   UNL     1      32.445 -23.553 -15.849  0.00  0.00    +0.043 C 
ATOM      8  C   UNL     1      30.434 -23.237 -14.544  0.00  0.00    +0.038 C 
ATOM      9  C   UNL     1      33.180 -23.696 -14.659  0.00  0.00    +0.016 C 
ATOM     10  C   UNL     1      33.124 -23.646 -17.188  0.00  0.00    +0.172 C 
ATOM     11  C   UNL     1      32.563 -23.617 -13.401  0.00  0.00    +0.058 C 
ATOM     12  C   UNL     1      31.175 -23.383 -13.371  0.00  0.00    +0.018 C 
ATOM     13  C   UNL     1      33.714 -22.360 -19.098  0.00  0.00    +0.169 C 
ATOM     14  C   UNL     1      34.583 -23.961 -11.818  0.00  0.00    +0.149 C 
ATOM     15  C   UNL     1      37.833 -24.361 -13.451  0.00  0.00    +0.030 C 
ATOM     16  C   UNL     1      38.542 -23.802 -15.744  0.00  0.00    +0.007 C 
ATOM     17  C   UNL     1      36.838 -24.261 -12.363  0.00  0.00    +0.146 C 
ATOM     18  C   UNL     1      37.611 -23.733 -14.694  0.00  0.00    +0.001 C 
ATOM     19  C   UNL     1      38.250 -23.137 -17.062  0.00  0.00    +0.169 C 
ATOM     20  C   UNL     1      39.030 -25.083 -13.305  0.00  0.00    +0.003 C 
ATOM     21  C   UNL     1      35.166 -21.982 -19.029  0.00  0.00    +0.004 C 
ATOM     22  C   UNL     1      39.717 -24.533 -15.560  0.00  0.00    -0.002 C 
ATOM     23  C   UNL     1      37.169 -24.343 -11.022  0.00  0.00    +0.055 C 
ATOM     24  C   UNL     1      39.959 -25.169 -14.345  0.00  0.00    -0.000 C 
ATOM     25  C   UNL     1      37.269 -21.156 -17.953  0.00  0.00    +0.169 C 
ATOM     26  C   UNL     1      35.806 -21.481 -17.962  0.00  0.00    +0.004 C 
ATOM     27  C   UNL     1      36.127 -24.224 -10.130  0.00  0.00    +0.114 C 
ATOM     28  H   UNL     1      32.636 -23.686 -11.393  0.00  0.00    +0.165 HD
ENDROOT
BRANCH   6  29
ATOM     29  O   UNL     1      30.315 -23.167 -16.906  0.00  0.00    -0.478 OA
BRANCH  29  30
ATOM     30  C   UNL     1      29.201 -24.042 -17.068  0.00  0.00    +0.183 C 
BRANCH  30  31
ATOM     31  C   UNL     1      28.078 -23.580 -16.153  0.00  0.00    -0.029 C 
BRANCH  31  32
ATOM     32  N   UNL     1      27.459 -22.370 -16.672  0.00  0.00    +0.389 N 
ATOM     33  C   UNL     1      27.084 -22.493 -18.081  0.00  0.00    -0.077 C 
ATOM     34  C   UNL     1      26.216 -22.036 -15.977  0.00  0.00    -0.077 C 
ATOM     35  C   UNL     1      26.139 -21.320 -18.288  0.00  0.00    -0.025 C 
ATOM     36  C   UNL     1      25.570 -21.017 -16.904  0.00  0.00    -0.025 C 
ATOM     37  H   UNL     1      28.169 -21.650 -16.536  0.00  0.00    -0.080 HD
ENDBRANCH  31  32
ENDBRANCH  30  31
ENDBRANCH  29  30
ENDBRANCH   6  29
TORSDOF 4
ENDMDL
