MODEL 1
REMARK VINA RESULT:      -7.7      0.000      0.000
REMARK  Name = 446101
REMARK  7 active torsions:
REMARK  status: ('A' for Active; 'I' for Inactive)
REMARK    1  A    between atoms: C_2  and  O_12
REMARK    2  A    between atoms: C_3  and  O_16
REMARK    3  A    between atoms: C_4  and  N_8
REMARK    4  A    between atoms: C_5  and  C_21
REMARK    5  A    between atoms: C_6  and  O_14
REMARK    6  A    between atoms: O_16  and  S_17
REMARK    7  A    between atoms: C_21  and  O_22
REMARK                            x       y       z     vdW  Elec       q    Type
REMARK                         _______ _______ _______ _____ _____    ______ ____
ROOT
ATOM      1  O   UNL     1      35.364 -24.884 -15.040  0.00  0.00    -0.327 OA
ATOM      2  C   UNL     1      37.453 -22.870 -14.861  0.00  0.00    +0.165 C 
ATOM      3  C   UNL     1      37.755 -24.363 -15.006  0.00  0.00    +0.205 C 
ATOM      4  C   UNL     1      36.068 -22.540 -15.424  0.00  0.00    +0.158 C 
ATOM      5  C   UNL     1      36.626 -25.264 -14.488  0.00  0.00    +0.179 C 
ATOM      6  C   UNL     1      34.990 -23.511 -14.912  0.00  0.00    +0.253 C 
ENDROOT
BRANCH   4   8
ATOM      7  O   UNL     1      37.338 -20.583 -17.149  0.00  0.00    -0.275 OA
ATOM      8  N   UNL     1      36.097 -22.532 -16.869  0.00  0.00    -0.299 N 
ATOM      9  C   UNL     1      36.733 -21.549 -17.606  0.00  0.00    +0.223 C 
ATOM     10  C   UNL     1      36.632 -21.795 -19.087  0.00  0.00    +0.095 C 
ATOM     11  H   UNL     1      35.643 -23.260 -17.352  0.00  0.00    +0.150 HD
ENDBRANCH   4   8
BRANCH   2  12
ATOM     12  O   UNL     1      37.511 -22.497 -13.485  0.00  0.00    -0.380 OA
ATOM     13  H   UNL     1      38.328 -22.003 -13.319  0.00  0.00    +0.211 HD
ENDBRANCH   2  12
BRANCH   6  14
ATOM     14  O   UNL     1      34.567 -23.171 -13.593  0.00  0.00    -0.359 OA
ATOM     15  H   UNL     1      34.968 -22.326 -13.332  0.00  0.00    +0.213 HD
ENDBRANCH   6  14
BRANCH   3  16
ATOM     16  O   UNL     1      38.986 -24.696 -14.378  0.00  0.00    -0.198 OA
BRANCH  16  17
ATOM     17  S   UNL     1      39.783 -26.043 -14.834  0.00  0.00    +0.239 S 
ATOM     18  O   UNL     1      40.924 -26.223 -13.683  0.00  0.00    -0.116 OA
ATOM     19  O   UNL     1      38.858 -27.154 -14.709  0.00  0.00    -0.116 OA
ATOM     20  O   UNL     1      40.456 -25.793 -16.095  0.00  0.00    -0.022 OA
ENDBRANCH  16  17
ENDBRANCH   3  16
BRANCH   5  21
ATOM     21  C   UNL     1      36.554 -25.442 -12.973  0.00  0.00    +0.169 C 
BRANCH  21  22
ATOM     22  O   UNL     1      36.839 -26.793 -12.662  0.00  0.00    -0.379 OA
ATOM     23  H   UNL     1      36.770 -26.927 -11.704  0.00  0.00    +0.211 HD
ENDBRANCH  21  22
ENDBRANCH   5  21
TORSDOF 7
ENDMDL
MODEL 2
REMARK VINA RESULT:      -7.4      1.481      1.864
REMARK  Name = 446101
REMARK  7 active torsions:
REMARK  status: ('A' for Active; 'I' for Inactive)
REMARK    1  A    between atoms: C_2  and  O_12
REMARK    2  A    between atoms: C_3  and  O_16
REMARK    3  A    between atoms: C_4  and  N_8
REMARK    4  A    between atoms: C_5  and  C_21
REMARK    5  A    between atoms: C_6  and  O_14
REMARK    6  A    between atoms: O_16  and  S_17
REMARK    7  A    between atoms: C_21  and  O_22
REMARK                            x       y       z     vdW  Elec       q    Type
REMARK                         _______ _______ _______ _____ _____    ______ ____
ROOT
ATOM      1  O   UNL     1      36.052 -25.757 -15.628  0.00  0.00    -0.327 OA
ATOM      2  C   UNL     1      37.175 -23.437 -14.281  0.00  0.00    +0.165 C 
ATOM      3  C   UNL     1      38.033 -24.606 -14.768  0.00  0.00    +0.205 C 
ATOM      4  C   UNL     1      35.877 -23.345 -15.089  0.00  0.00    +0.158 C 
ATOM      5  C   UNL     1      37.257 -25.925 -14.879  0.00  0.00    +0.179 C 
ATOM      6  C   UNL     1      35.175 -24.708 -15.212  0.00  0.00    +0.253 C 
ENDROOT
BRANCH   4   8
ATOM      7  O   UNL     1      33.946 -22.826 -17.193  0.00  0.00    -0.275 OA
ATOM      8  N   UNL     1      36.134 -22.788 -16.398  0.00  0.00    -0.299 N 
ATOM      9  C   UNL     1      35.141 -22.577 -17.337  0.00  0.00    +0.223 C 
ATOM     10  C   UNL     1      35.677 -21.964 -18.603  0.00  0.00    +0.095 C 
ATOM     11  H   UNL     1      37.060 -22.548 -16.632  0.00  0.00    +0.150 HD
ENDBRANCH   4   8
BRANCH   2  12
ATOM     12  O   UNL     1      36.865 -23.608 -12.899  0.00  0.00    -0.380 OA
ATOM     13  H   UNL     1      36.465 -24.480 -12.763  0.00  0.00    +0.211 HD
ENDBRANCH   2  12
BRANCH   6  14
ATOM     14  O   UNL     1      34.448 -25.028 -14.027  0.00  0.00    -0.359 OA
ATOM     15  H   UNL     1      33.511 -24.808 -14.153  0.00  0.00    +0.213 HD
ENDBRANCH   6  14
BRANCH   3  16
ATOM     16  O   UNL     1      39.181 -24.771 -13.944  0.00  0.00    -0.198 OA
BRANCH  16  17
ATOM     17  S   UNL     1      40.556 -25.362 -14.591  0.00  0.00    +0.239 S 
ATOM     18  O   UNL     1      40.107 -25.828 -16.088  0.00  0.00    -0.116 OA
ATOM     19  O   UNL     1      41.476 -24.250 -14.737  0.00  0.00    -0.116 OA
ATOM     20  O   UNL     1      40.956 -26.547 -13.856  0.00  0.00    -0.022 OA
ENDBRANCH  16  17
ENDBRANCH   3  16
BRANCH   5  21
ATOM     21  C   UNL     1      37.013 -26.670 -13.568  0.00  0.00    +0.169 C 
BRANCH  21  22
ATOM     22  O   UNL     1      38.062 -26.358 -12.669  0.00  0.00    -0.379 OA
ATOM     23  H   UNL     1      38.016 -25.418 -12.432  0.00  0.00    +0.211 HD
ENDBRANCH  21  22
ENDBRANCH   5  21
TORSDOF 7
ENDMDL
MODEL 3
REMARK VINA RESULT:      -7.1      2.589      4.662
REMARK  Name = 446101
REMARK  7 active torsions:
REMARK  status: ('A' for Active; 'I' for Inactive)
REMARK    1  A    between atoms: C_2  and  O_12
REMARK    2  A    between atoms: C_3  and  O_16
REMARK    3  A    between atoms: C_4  and  N_8
REMARK    4  A    between atoms: C_5  and  C_21
REMARK    5  A    between atoms: C_6  and  O_14
REMARK    6  A    between atoms: O_16  and  S_17
REMARK    7  A    between atoms: C_21  and  O_22
REMARK                            x       y       z     vdW  Elec       q    Type
REMARK                         _______ _______ _______ _____ _____    ______ ____
ROOT
ATOM      1  O   UNL     1      34.912 -22.159 -15.382  0.00  0.00    -0.327 OA
ATOM      2  C   UNL     1      35.358 -24.956 -14.725  0.00  0.00    +0.165 C 
ATOM      3  C   UNL     1      36.089 -23.814 -14.016  0.00  0.00    +0.205 C 
ATOM      4  C   UNL     1      34.025 -24.471 -15.301  0.00  0.00    +0.158 C 
ATOM      5  C   UNL     1      36.188 -22.539 -14.863  0.00  0.00    +0.179 C 
ATOM      6  C   UNL     1      34.180 -23.161 -16.091  0.00  0.00    +0.253 C 
ENDROOT
BRANCH   4   8
ATOM      7  O   UNL     1      31.148 -24.223 -15.596  0.00  0.00    -0.275 OA
ATOM      8  N   UNL     1      33.045 -24.315 -14.250  0.00  0.00    -0.299 N 
ATOM      9  C   UNL     1      31.688 -24.205 -14.493  0.00  0.00    +0.223 C 
ATOM     10  C   UNL     1      30.892 -24.078 -13.221  0.00  0.00    +0.095 C 
ATOM     11  H   UNL     1      33.359 -24.286 -13.317  0.00  0.00    +0.150 HD
ENDBRANCH   4   8
BRANCH   2  12
ATOM     12  O   UNL     1      36.173 -25.473 -15.776  0.00  0.00    -0.380 OA
ATOM     13  H   UNL     1      35.829 -26.335 -16.056  0.00  0.00    +0.211 HD
ENDBRANCH   2  12
BRANCH   6  14
ATOM     14  O   UNL     1      34.693 -23.399 -17.401  0.00  0.00    -0.359 OA
ATOM     15  H   UNL     1      35.625 -23.660 -17.340  0.00  0.00    +0.213 HD
ENDBRANCH   6  14
BRANCH   3  16
ATOM     16  O   UNL     1      37.379 -24.228 -13.585  0.00  0.00    -0.198 OA
BRANCH  16  17
ATOM     17  S   UNL     1      37.710 -24.294 -11.990  0.00  0.00    +0.239 S 
ATOM     18  O   UNL     1      36.360 -23.704 -11.292  0.00  0.00    -0.116 OA
ATOM     19  O   UNL     1      37.813 -25.695 -11.628  0.00  0.00    -0.116 OA
ATOM     20  O   UNL     1      38.800 -23.383 -11.693  0.00  0.00    -0.022 OA
ENDBRANCH  16  17
ENDBRANCH   3  16
BRANCH   5  21
ATOM     21  C   UNL     1      37.266 -22.536 -15.945  0.00  0.00    +0.169 C 
BRANCH  21  22
ATOM     22  O   UNL     1      37.396 -21.220 -16.450  0.00  0.00    -0.379 OA
ATOM     23  H   UNL     1      36.880 -20.609 -15.900  0.00  0.00    +0.211 HD
ENDBRANCH  21  22
ENDBRANCH   5  21
TORSDOF 7
ENDMDL
MODEL 4
REMARK VINA RESULT:      -6.7      4.413      6.463
REMARK  Name = 446101
REMARK  7 active torsions:
REMARK  status: ('A' for Active; 'I' for Inactive)
REMARK    1  A    between atoms: C_2  and  O_12
REMARK    2  A    between atoms: C_3  and  O_16
REMARK    3  A    between atoms: C_4  and  N_8
REMARK    4  A    between atoms: C_5  and  C_21
REMARK    5  A    between atoms: C_6  and  O_14
REMARK    6  A    between atoms: O_16  and  S_17
REMARK    7  A    between atoms: C_21  and  O_22
REMARK                            x       y       z     vdW  Elec       q    Type
REMARK                         _______ _______ _______ _____ _____    ______ ____
ROOT
ATOM      1  O   UNL     1      31.880 -22.223 -13.896  0.00  0.00    -0.327 OA
ATOM      2  C   UNL     1      33.250 -24.664 -14.682  0.00  0.00    +0.165 C 
ATOM      3  C   UNL     1      33.046 -23.486 -15.637  0.00  0.00    +0.205 C 
ATOM      4  C   UNL     1      33.229 -24.190 -13.226  0.00  0.00    +0.158 C 
ATOM      5  C   UNL     1      31.842 -22.609 -15.271  0.00  0.00    +0.179 C 
ATOM      6  C   UNL     1      32.031 -23.270 -12.935  0.00  0.00    +0.253 C 
ENDROOT
BRANCH   4   8
ATOM      7  O   UNL     1      35.191 -25.017 -11.253  0.00  0.00    -0.275 OA
ATOM      8  N   UNL     1      34.469 -23.527 -12.891  0.00  0.00    -0.299 N 
ATOM      9  C   UNL     1      35.343 -24.002 -11.929  0.00  0.00    +0.223 C 
ATOM     10  C   UNL     1      36.567 -23.137 -11.798  0.00  0.00    +0.095 C 
ATOM     11  H   UNL     1      34.702 -22.698 -13.368  0.00  0.00    +0.150 HD
ENDBRANCH   4   8
BRANCH   2  12
ATOM     12  O   UNL     1      32.224 -25.634 -14.883  0.00  0.00    -0.380 OA
ATOM     13  H   UNL     1      32.003 -25.679 -15.826  0.00  0.00    +0.211 HD
ENDBRANCH   2  12
BRANCH   6  14
ATOM     14  O   UNL     1      30.834 -24.020 -12.739  0.00  0.00    -0.359 OA
ATOM     15  H   UNL     1      30.870 -24.832 -13.271  0.00  0.00    +0.213 HD
ENDBRANCH   6  14
BRANCH   3  16
ATOM     16  O   UNL     1      32.945 -23.936 -16.982  0.00  0.00    -0.198 OA
BRANCH  16  17
ATOM     17  S   UNL     1      33.625 -23.058 -18.176  0.00  0.00    +0.239 S 
ATOM     18  O   UNL     1      33.869 -24.149 -19.364  0.00  0.00    -0.116 OA
ATOM     19  O   UNL     1      32.623 -22.119 -18.646  0.00  0.00    -0.116 OA
ATOM     20  O   UNL     1      34.922 -22.581 -17.735  0.00  0.00    -0.022 OA
ENDBRANCH  16  17
ENDBRANCH   3  16
BRANCH   5  21
ATOM     21  C   UNL     1      30.472 -23.152 -15.672  0.00  0.00    +0.169 C 
BRANCH  21  22
ATOM     22  O   UNL     1      30.154 -22.666 -16.963  0.00  0.00    -0.379 OA
ATOM     23  H   UNL     1      29.279 -22.994 -17.227  0.00  0.00    +0.211 HD
ENDBRANCH  21  22
ENDBRANCH   5  21
TORSDOF 7
ENDMDL
MODEL 5
REMARK VINA RESULT:      -6.7      2.770      5.087
REMARK  Name = 446101
REMARK  7 active torsions:
REMARK  status: ('A' for Active; 'I' for Inactive)
REMARK    1  A    between atoms: C_2  and  O_12
REMARK    2  A    between atoms: C_3  and  O_16
REMARK    3  A    between atoms: C_4  and  N_8
REMARK    4  A    between atoms: C_5  and  C_21
REMARK    5  A    between atoms: C_6  and  O_14
REMARK    6  A    between atoms: O_16  and  S_17
REMARK    7  A    between atoms: C_21  and  O_22
REMARK                            x       y       z     vdW  Elec       q    Type
REMARK                         _______ _______ _______ _____ _____    ______ ____
ROOT
ATOM      1  O   UNL     1      37.446 -26.958 -13.474  0.00  0.00    -0.327 OA
ATOM      2  C   UNL     1      37.359 -24.217 -14.441  0.00  0.00    +0.165 C 
ATOM      3  C   UNL     1      36.242 -25.226 -14.716  0.00  0.00    +0.205 C 
ATOM      4  C   UNL     1      38.132 -24.596 -13.174  0.00  0.00    +0.158 C 
ATOM      5  C   UNL     1      36.717 -26.684 -14.673  0.00  0.00    +0.179 C 
ATOM      6  C   UNL     1      38.531 -26.082 -13.164  0.00  0.00    +0.253 C 
ENDROOT
BRANCH   4   8
ATOM      7  O   UNL     1      37.871 -22.001 -11.901  0.00  0.00    -0.275 OA
ATOM      8  N   UNL     1      37.362 -24.271 -11.995  0.00  0.00    -0.299 N 
ATOM      9  C   UNL     1      37.300 -22.996 -11.461  0.00  0.00    +0.223 C 
ATOM     10  C   UNL     1      36.409 -22.930 -10.250  0.00  0.00    +0.095 C 
ATOM     11  H   UNL     1      36.858 -24.991 -11.550  0.00  0.00    +0.150 HD
ENDBRANCH   4   8
BRANCH   2  12
ATOM     12  O   UNL     1      38.254 -24.172 -15.550  0.00  0.00    -0.380 OA
ATOM     13  H   UNL     1      38.520 -23.254 -15.713  0.00  0.00    +0.211 HD
ENDBRANCH   2  12
BRANCH   6  14
ATOM     14  O   UNL     1      39.683 -26.316 -13.972  0.00  0.00    -0.359 OA
ATOM     15  H   UNL     1      40.484 -26.191 -13.438  0.00  0.00    +0.213 HD
ENDBRANCH   6  14
BRANCH   3  16
ATOM     16  O   UNL     1      35.600 -24.948 -15.954  0.00  0.00    -0.198 OA
BRANCH  16  17
ATOM     17  S   UNL     1      34.938 -23.479 -16.202  0.00  0.00    +0.239 S 
ATOM     18  O   UNL     1      33.786 -23.760 -17.322  0.00  0.00    -0.116 OA
ATOM     19  O   UNL     1      34.267 -23.095 -14.974  0.00  0.00    -0.116 OA
ATOM     20  O   UNL     1      35.932 -22.603 -16.794  0.00  0.00    -0.022 OA
ENDBRANCH  16  17
ENDBRANCH   3  16
BRANCH   5  21
ATOM     21  C   UNL     1      37.455 -27.185 -15.913  0.00  0.00    +0.169 C 
BRANCH  21  22
ATOM     22  O   UNL     1      36.498 -27.622 -16.861  0.00  0.00    -0.379 OA
ATOM     23  H   UNL     1      36.232 -28.533 -16.657  0.00  0.00    +0.211 HD
ENDBRANCH  21  22
ENDBRANCH   5  21
TORSDOF 7
ENDMDL
MODEL 6
REMARK VINA RESULT:      -6.5      2.256      4.353
REMARK  Name = 446101
REMARK  7 active torsions:
REMARK  status: ('A' for Active; 'I' for Inactive)
REMARK    1  A    between atoms: C_2  and  O_12
REMARK    2  A    between atoms: C_3  and  O_16
REMARK    3  A    between atoms: C_4  and  N_8
REMARK    4  A    between atoms: C_5  and  C_21
REMARK    5  A    between atoms: C_6  and  O_14
REMARK    6  A    between atoms: O_16  and  S_17
REMARK    7  A    between atoms: C_21  and  O_22
REMARK                            x       y       z     vdW  Elec       q    Type
REMARK                         _______ _______ _______ _____ _____    ______ ____
ROOT
ATOM      1  O   UNL     1      35.610 -24.114 -16.175  0.00  0.00    -0.327 OA
ATOM      2  C   UNL     1      37.089 -23.458 -13.760  0.00  0.00    +0.165 C 
ATOM      3  C   UNL     1      35.931 -24.458 -13.773  0.00  0.00    +0.205 C 
ATOM      4  C   UNL     1      37.731 -23.355 -15.146  0.00  0.00    +0.158 C 
ATOM      5  C   UNL     1      34.938 -24.220 -14.918  0.00  0.00    +0.179 C 
ATOM      6  C   UNL     1      36.682 -23.174 -16.256  0.00  0.00    +0.253 C 
ENDROOT
BRANCH   4   8
ATOM      7  O   UNL     1      39.741 -24.522 -13.408  0.00  0.00    -0.275 OA
ATOM      8  N   UNL     1      38.555 -24.513 -15.411  0.00  0.00    -0.299 N 
ATOM      9  C   UNL     1      39.491 -24.995 -14.513  0.00  0.00    +0.223 C 
ATOM     10  C   UNL     1      40.190 -26.224 -15.028  0.00  0.00    +0.095 C 
ATOM     11  H   UNL     1      38.445 -24.980 -16.271  0.00  0.00    +0.150 HD
ENDBRANCH   4   8
BRANCH   2  12
ATOM     12  O   UNL     1      36.617 -22.175 -13.355  0.00  0.00    -0.380 OA
ATOM     13  H   UNL     1      36.430 -22.185 -12.404  0.00  0.00    +0.211 HD
ENDBRANCH   2  12
BRANCH   6  14
ATOM     14  O   UNL     1      36.232 -21.823 -16.332  0.00  0.00    -0.359 OA
ATOM     15  H   UNL     1      35.545 -21.673 -15.663  0.00  0.00    +0.213 HD
ENDBRANCH   6  14
BRANCH   3  16
ATOM     16  O   UNL     1      35.255 -24.468 -12.522  0.00  0.00    -0.198 OA
BRANCH  16  17
ATOM     17  S   UNL     1      36.062 -24.917 -11.178  0.00  0.00    +0.239 S 
ATOM     18  O   UNL     1      36.907 -26.228 -11.656  0.00  0.00    -0.116 OA
ATOM     19  O   UNL     1      37.018 -23.867 -10.878  0.00  0.00    -0.116 OA
ATOM     20  O   UNL     1      35.108 -25.344 -10.171  0.00  0.00    -0.022 OA
ENDBRANCH  16  17
ENDBRANCH   3  16
BRANCH   5  21
ATOM     21  C   UNL     1      33.937 -23.085 -14.711  0.00  0.00    +0.169 C 
BRANCH  21  22
ATOM     22  O   UNL     1      33.035 -23.460 -13.686  0.00  0.00    -0.379 OA
ATOM     23  H   UNL     1      32.818 -22.683 -13.146  0.00  0.00    +0.211 HD
ENDBRANCH  21  22
ENDBRANCH   5  21
TORSDOF 7
ENDMDL
MODEL 7
REMARK VINA RESULT:      -6.3      2.168      2.728
REMARK  Name = 446101
REMARK  7 active torsions:
REMARK  status: ('A' for Active; 'I' for Inactive)
REMARK    1  A    between atoms: C_2  and  O_12
REMARK    2  A    between atoms: C_3  and  O_16
REMARK    3  A    between atoms: C_4  and  N_8
REMARK    4  A    between atoms: C_5  and  C_21
REMARK    5  A    between atoms: C_6  and  O_14
REMARK    6  A    between atoms: O_16  and  S_17
REMARK    7  A    between atoms: C_21  and  O_22
REMARK                            x       y       z     vdW  Elec       q    Type
REMARK                         _______ _______ _______ _____ _____    ______ ____
ROOT
ATOM      1  O   UNL     1      33.135 -24.738 -14.764  0.00  0.00    -0.327 OA
ATOM      2  C   UNL     1      35.395 -23.170 -15.705  0.00  0.00    +0.165 C 
ATOM      3  C   UNL     1      35.543 -24.600 -15.180  0.00  0.00    +0.205 C 
ATOM      4  C   UNL     1      33.978 -22.931 -16.233  0.00  0.00    +0.158 C 
ATOM      5  C   UNL     1      34.426 -25.009 -14.212  0.00  0.00    +0.179 C 
ATOM      6  C   UNL     1      32.904 -23.412 -15.243  0.00  0.00    +0.253 C 
ENDROOT
BRANCH   4   8
ATOM      7  O   UNL     1      34.643 -21.843 -18.841  0.00  0.00    -0.275 OA
ATOM      8  N   UNL     1      33.803 -23.566 -17.520  0.00  0.00    -0.299 N 
ATOM      9  C   UNL     1      34.153 -22.962 -18.714  0.00  0.00    +0.223 C 
ATOM     10  C   UNL     1      33.889 -23.852 -19.899  0.00  0.00    +0.095 C 
ATOM     11  H   UNL     1      33.415 -24.471 -17.547  0.00  0.00    +0.150 HD
ENDBRANCH   4   8
BRANCH   2  12
ATOM     12  O   UNL     1      35.680 -22.239 -14.662  0.00  0.00    -0.380 OA
ATOM     13  H   UNL     1      36.548 -22.438 -14.280  0.00  0.00    +0.211 HD
ENDBRANCH   2  12
BRANCH   6  14
ATOM     14  O   UNL     1      32.703 -22.469 -14.193  0.00  0.00    -0.359 OA
ATOM     15  H   UNL     1      32.014 -22.795 -13.593  0.00  0.00    +0.213 HD
ENDBRANCH   6  14
BRANCH   3  16
ATOM     16  O   UNL     1      36.818 -24.790 -14.580  0.00  0.00    -0.198 OA
BRANCH  16  17
ATOM     17  S   UNL     1      37.549 -26.243 -14.692  0.00  0.00    +0.239 S 
ATOM     18  O   UNL     1      36.773 -26.970 -15.928  0.00  0.00    -0.116 OA
ATOM     19  O   UNL     1      38.917 -26.006 -15.114  0.00  0.00    -0.116 OA
ATOM     20  O   UNL     1      37.280 -27.005 -13.486  0.00  0.00    -0.022 OA
ENDBRANCH  16  17
ENDBRANCH   3  16
BRANCH   5  21
ATOM     21  C   UNL     1      34.554 -24.487 -12.782  0.00  0.00    +0.169 C 
BRANCH  21  22
ATOM     22  O   UNL     1      35.494 -25.289 -12.091  0.00  0.00    -0.379 OA
ATOM     23  H   UNL     1      35.514 -26.177 -12.484  0.00  0.00    +0.211 HD
ENDBRANCH  21  22
ENDBRANCH   5  21
TORSDOF 7
ENDMDL
MODEL 8
REMARK VINA RESULT:      -6.2      3.802      5.088
REMARK  Name = 446101
REMARK  7 active torsions:
REMARK  status: ('A' for Active; 'I' for Inactive)
REMARK    1  A    between atoms: C_2  and  O_12
REMARK    2  A    between atoms: C_3  and  O_16
REMARK    3  A    between atoms: C_4  and  N_8
REMARK    4  A    between atoms: C_5  and  C_21
REMARK    5  A    between atoms: C_6  and  O_14
REMARK    6  A    between atoms: O_16  and  S_17
REMARK    7  A    between atoms: C_21  and  O_22
REMARK                            x       y       z     vdW  Elec       q    Type
REMARK                         _______ _______ _______ _____ _____    ______ ____
ROOT
ATOM      1  O   UNL     1      31.081 -25.001 -15.717  0.00  0.00    -0.327 OA
ATOM      2  C   UNL     1      32.803 -22.834 -14.827  0.00  0.00    +0.165 C 
ATOM      3  C   UNL     1      32.963 -24.273 -14.332  0.00  0.00    +0.205 C 
ATOM      4  C   UNL     1      32.122 -22.805 -16.198  0.00  0.00    +0.158 C 
ATOM      5  C   UNL     1      31.669 -25.091 -14.417  0.00  0.00    +0.179 C 
ATOM      6  C   UNL     1      30.863 -23.688 -16.237  0.00  0.00    +0.253 C 
ENDROOT
BRANCH   4   8
ATOM      7  O   UNL     1      32.545 -21.526 -18.769  0.00  0.00    -0.275 OA
ATOM      8  N   UNL     1      33.050 -23.201 -17.233  0.00  0.00    -0.299 N 
ATOM      9  C   UNL     1      33.179 -22.523 -18.432  0.00  0.00    +0.223 C 
ATOM     10  C   UNL     1      34.233 -23.130 -19.317  0.00  0.00    +0.095 C 
ATOM     11  H   UNL     1      33.617 -23.991 -17.078  0.00  0.00    +0.150 HD
ENDBRANCH   4   8
BRANCH   2  12
ATOM     12  O   UNL     1      32.027 -22.085 -13.893  0.00  0.00    -0.380 OA
ATOM     13  H   UNL     1      32.561 -21.900 -13.105  0.00  0.00    +0.211 HD
ENDBRANCH   2  12
BRANCH   6  14
ATOM     14  O   UNL     1      29.748 -23.031 -15.636  0.00  0.00    -0.359 OA
ATOM     15  H   UNL     1      29.305 -23.640 -15.025  0.00  0.00    +0.213 HD
ENDBRANCH   6  14
BRANCH   3  16
ATOM     16  O   UNL     1      33.484 -24.300 -13.009  0.00  0.00    -0.198 OA
BRANCH  16  17
ATOM     17  S   UNL     1      35.094 -24.418 -12.783  0.00  0.00    +0.239 S 
ATOM     18  O   UNL     1      35.225 -25.129 -11.320  0.00  0.00    -0.116 OA
ATOM     19  O   UNL     1      35.601 -25.353 -13.769  0.00  0.00    -0.116 OA
ATOM     20  O   UNL     1      35.659 -23.085 -12.683  0.00  0.00    -0.022 OA
ENDBRANCH  16  17
ENDBRANCH   3  16
BRANCH   5  21
ATOM     21  C   UNL     1      30.645 -24.842 -13.312  0.00  0.00    +0.169 C 
BRANCH  21  22
ATOM     22  O   UNL     1      29.359 -25.173 -13.804  0.00  0.00    -0.379 OA
ATOM     23  H   UNL     1      28.718 -25.154 -13.075  0.00  0.00    +0.211 HD
ENDBRANCH  21  22
ENDBRANCH   5  21
TORSDOF 7
ENDMDL
MODEL 9
REMARK VINA RESULT:      -6.1     17.208     20.209
REMARK  Name = 446101
REMARK  7 active torsions:
REMARK  status: ('A' for Active; 'I' for Inactive)
REMARK    1  A    between atoms: C_2  and  O_12
REMARK    2  A    between atoms: C_3  and  O_16
REMARK    3  A    between atoms: C_4  and  N_8
REMARK    4  A    between atoms: C_5  and  C_21
REMARK    5  A    between atoms: C_6  and  O_14
REMARK    6  A    between atoms: O_16  and  S_17
REMARK    7  A    between atoms: C_21  and  O_22
REMARK                            x       y       z     vdW  Elec       q    Type
REMARK                         _______ _______ _______ _____ _____    ______ ____
ROOT
ATOM      1  O   UNL     1      33.173  -7.300 -21.588  0.00  0.00    -0.327 OA
ATOM      2  C   UNL     1      31.469  -7.942 -23.855  0.00  0.00    +0.165 C 
ATOM      3  C   UNL     1      31.951  -6.520 -23.559  0.00  0.00    +0.205 C 
ATOM      4  C   UNL     1      32.429  -8.974 -23.256  0.00  0.00    +0.158 C 
ATOM      5  C   UNL     1      32.291  -6.290 -22.081  0.00  0.00    +0.179 C 
ATOM      6  C   UNL     1      32.776  -8.658 -21.791  0.00  0.00    +0.253 C 
ENDROOT
BRANCH   4   8
ATOM      7  O   UNL     1      33.802 -11.391 -24.091  0.00  0.00    -0.275 OA
ATOM      8  N   UNL     1      33.632  -9.070 -24.052  0.00  0.00    -0.299 N 
ATOM      9  C   UNL     1      34.213 -10.276 -24.400  0.00  0.00    +0.223 C 
ATOM     10  C   UNL     1      35.440 -10.090 -25.252  0.00  0.00    +0.095 C 
ATOM     11  H   UNL     1      34.058  -8.238 -24.361  0.00  0.00    +0.150 HD
ENDBRANCH   4   8
BRANCH   2  12
ATOM     12  O   UNL     1      30.164  -8.133 -23.314  0.00  0.00    -0.380 OA
ATOM     13  H   UNL     1      29.688  -8.791 -23.844  0.00  0.00    +0.211 HD
ENDBRANCH   2  12
BRANCH   6  14
ATOM     14  O   UNL     1      31.735  -9.071 -20.909  0.00  0.00    -0.359 OA
ATOM     15  H   UNL     1      31.060  -8.375 -20.857  0.00  0.00    +0.213 HD
ENDBRANCH   6  14
BRANCH   3  16
ATOM     16  O   UNL     1      31.003  -5.560 -24.008  0.00  0.00    -0.198 OA
BRANCH  16  17
ATOM     17  S   UNL     1      31.523  -4.135 -24.606  0.00  0.00    +0.239 S 
ATOM     18  O   UNL     1      30.189  -3.494 -25.290  0.00  0.00    -0.116 OA
ATOM     19  O   UNL     1      31.880  -3.298 -23.476  0.00  0.00    -0.116 OA
ATOM     20  O   UNL     1      32.489  -4.387 -25.660  0.00  0.00    -0.022 OA
ENDBRANCH  16  17
ENDBRANCH   3  16
BRANCH   5  21
ATOM     21  C   UNL     1      31.104  -6.065 -21.148  0.00  0.00    +0.169 C 
BRANCH  21  22
ATOM     22  O   UNL     1      30.609  -4.755 -21.352  0.00  0.00    -0.379 OA
ATOM     23  H   UNL     1      29.645  -4.785 -21.458  0.00  0.00    +0.211 HD
ENDBRANCH  21  22
ENDBRANCH   5  21
TORSDOF 7
ENDMDL
