MODEL 1
REMARK VINA RESULT:      -4.7      0.000      0.000
REMARK  Name = 5287580
REMARK  4 active torsions:
REMARK  status: ('A' for Active; 'I' for Inactive)
REMARK    1  A    between atoms: CA_1  and  N_2
REMARK    2  A    between atoms: CA_1  and  C_7
REMARK    3  A    between atoms: CA_1  and  C_10
REMARK    4  A    between atoms: C_7  and  O_8
REMARK                            x       y       z     vdW  Elec       q    Type
REMARK                         _______ _______ _______ _____ _____    ______ ____
ROOT
ATOM      1  CA  UNL     1      38.680 -25.865 -14.544  0.00  0.00    +0.059 C 
ENDROOT
BRANCH   1   2
ATOM      2  N   UNL     1      37.790 -25.001 -15.319  0.00  0.00    +0.391 N 
ATOM      3  H1  UNL     1      37.146 -25.577 -15.863  0.00  0.00    -0.088 HD
ATOM      4  H2  UNL     1      38.344 -24.421 -15.949  0.00  0.00    -0.088 HD
ATOM      5  H3  UNL     1      37.260 -24.404 -14.685  0.00  0.00    -0.088 HD
ENDBRANCH   1   2
BRANCH   1   7
ATOM      6  OXT UNL     1      40.853 -24.812 -14.189  0.00  0.00    -0.252 OA
ATOM      7  C   UNL     1      40.108 -25.487 -14.889  0.00  0.00    +0.297 C 
BRANCH   7   8
ATOM      8  O   UNL     1      40.481 -25.961 -16.108  0.00  0.00    -0.481 OA
ATOM      9  H   UNL     1      40.757 -25.366 -16.778  0.00  0.00    +0.295 HD
ENDBRANCH   7   8
ENDBRANCH   1   7
BRANCH   1  10
ATOM     10  C   UNL     1      38.503 -25.655 -13.070  0.00  0.00    -0.038 C 
ATOM     11  C   UNL     1      37.384 -25.969 -12.405  0.00  0.00    -0.007 C 
ENDBRANCH   1  10
TORSDOF 4
ENDMDL
MODEL 2
REMARK VINA RESULT:      -4.5     10.611     11.320
REMARK  Name = 5287580
REMARK  4 active torsions:
REMARK  status: ('A' for Active; 'I' for Inactive)
REMARK    1  A    between atoms: CA_1  and  N_2
REMARK    2  A    between atoms: CA_1  and  C_7
REMARK    3  A    between atoms: CA_1  and  C_10
REMARK    4  A    between atoms: C_7  and  O_8
REMARK                            x       y       z     vdW  Elec       q    Type
REMARK                         _______ _______ _______ _____ _____    ______ ____
ROOT
ATOM      1  CA  UNL     1      41.760 -14.335 -15.958  0.00  0.00    +0.059 C 
ENDROOT
BRANCH   1   2
ATOM      2  N   UNL     1      41.198 -13.451 -14.938  0.00  0.00    +0.391 N 
ATOM      3  H1  UNL     1      40.678 -12.698 -15.389  0.00  0.00    -0.088 HD
ATOM      4  H2  UNL     1      41.953 -13.054 -14.378  0.00  0.00    -0.088 HD
ATOM      5  H3  UNL     1      40.571 -13.983 -14.334  0.00  0.00    -0.088 HD
ENDBRANCH   1   2
BRANCH   1   7
ATOM      6  OXT UNL     1      42.237 -16.699 -15.584  0.00  0.00    -0.252 OA
ATOM      7  C   UNL     1      41.447 -15.764 -15.554  0.00  0.00    +0.297 C 
BRANCH   7   8
ATOM      8  O   UNL     1      40.149 -15.915 -15.175  0.00  0.00    -0.481 OA
ATOM      9  H   UNL     1      39.586 -15.167 -15.123  0.00  0.00    +0.295 HD
ENDBRANCH   7   8
ENDBRANCH   1   7
BRANCH   1  10
ATOM     10  C   UNL     1      41.130 -14.098 -17.298  0.00  0.00    -0.038 C 
ATOM     11  C   UNL     1      41.538 -14.693 -18.425  0.00  0.00    -0.007 C 
ENDBRANCH   1  10
TORSDOF 4
ENDMDL
MODEL 3
REMARK VINA RESULT:      -4.5     10.627     11.122
REMARK  Name = 5287580
REMARK  4 active torsions:
REMARK  status: ('A' for Active; 'I' for Inactive)
REMARK    1  A    between atoms: CA_1  and  N_2
REMARK    2  A    between atoms: CA_1  and  C_7
REMARK    3  A    between atoms: CA_1  and  C_10
REMARK    4  A    between atoms: C_7  and  O_8
REMARK                            x       y       z     vdW  Elec       q    Type
REMARK                         _______ _______ _______ _____ _____    ______ ____
ROOT
ATOM      1  CA  UNL     1      29.062 -22.929 -16.040  0.00  0.00    +0.059 C 
ENDROOT
BRANCH   1   2
ATOM      2  N   UNL     1      30.318 -22.744 -16.766  0.00  0.00    +0.391 N 
ATOM      3  H1  UNL     1      31.099 -22.782 -16.111  0.00  0.00    -0.088 HD
ATOM      4  H2  UNL     1      30.310 -21.838 -17.234  0.00  0.00    -0.088 HD
ATOM      5  H3  UNL     1      30.421 -23.485 -17.461  0.00  0.00    -0.088 HD
ENDBRANCH   1   2
BRANCH   1   7
ATOM      6  OXT UNL     1      27.353 -21.594 -17.158  0.00  0.00    -0.252 OA
ATOM      7  C   UNL     1      27.924 -22.667 -17.008  0.00  0.00    +0.297 C 
BRANCH   7   8
ATOM      8  O   UNL     1      27.568 -23.787 -17.692  0.00  0.00    -0.481 OA
ATOM      9  H   UNL     1      28.206 -24.251 -18.198  0.00  0.00    +0.295 HD
ENDBRANCH   7   8
ENDBRANCH   1   7
BRANCH   1  10
ATOM     10  C   UNL     1      28.916 -24.337 -15.545  0.00  0.00    -0.038 C 
ATOM     11  C   UNL     1      29.929 -25.059 -15.051  0.00  0.00    -0.007 C 
ENDBRANCH   1  10
TORSDOF 4
ENDMDL
MODEL 4
REMARK VINA RESULT:      -4.3     10.116     10.645
REMARK  Name = 5287580
REMARK  4 active torsions:
REMARK  status: ('A' for Active; 'I' for Inactive)
REMARK    1  A    between atoms: CA_1  and  N_2
REMARK    2  A    between atoms: CA_1  and  C_7
REMARK    3  A    between atoms: CA_1  and  C_10
REMARK    4  A    between atoms: C_7  and  O_8
REMARK                            x       y       z     vdW  Elec       q    Type
REMARK                         _______ _______ _______ _____ _____    ______ ____
ROOT
ATOM      1  CA  UNL     1      29.514 -23.935 -15.939  0.00  0.00    +0.059 C 
ENDROOT
BRANCH   1   2
ATOM      2  N   UNL     1      28.839 -24.877 -15.048  0.00  0.00    +0.391 N 
ATOM      3  H1  UNL     1      28.472 -24.376 -14.238  0.00  0.00    -0.088 HD
ATOM      4  H2  UNL     1      29.503 -25.587 -14.737  0.00  0.00    -0.088 HD
ATOM      5  H3  UNL     1      28.070 -25.325 -15.547  0.00  0.00    -0.088 HD
ENDBRANCH   1   2
BRANCH   1   7
ATOM      6  OXT UNL     1      27.676 -24.043 -17.539  0.00  0.00    -0.252 OA
ATOM      7  C   UNL     1      28.477 -23.377 -16.895  0.00  0.00    +0.297 C 
BRANCH   7   8
ATOM      8  O   UNL     1      28.549 -22.023 -16.994  0.00  0.00    -0.481 OA
ATOM      9  H   UNL     1      29.270 -21.623 -17.440  0.00  0.00    +0.295 HD
ENDBRANCH   7   8
ENDBRANCH   1   7
BRANCH   1  10
ATOM     10  C   UNL     1      30.093 -22.778 -15.179  0.00  0.00    -0.038 C 
ATOM     11  C   UNL     1      31.312 -22.789 -14.627  0.00  0.00    -0.007 C 
ENDBRANCH   1  10
TORSDOF 4
ENDMDL
MODEL 5
REMARK VINA RESULT:      -4.3      2.806      3.344
REMARK  Name = 5287580
REMARK  4 active torsions:
REMARK  status: ('A' for Active; 'I' for Inactive)
REMARK    1  A    between atoms: CA_1  and  N_2
REMARK    2  A    between atoms: CA_1  and  C_7
REMARK    3  A    between atoms: CA_1  and  C_10
REMARK    4  A    between atoms: C_7  and  O_8
REMARK                            x       y       z     vdW  Elec       q    Type
REMARK                         _______ _______ _______ _____ _____    ______ ____
ROOT
ATOM      1  CA  UNL     1      37.733 -26.585 -14.207  0.00  0.00    +0.059 C 
ENDROOT
BRANCH   1   2
ATOM      2  N   UNL     1      36.983 -26.494 -12.955  0.00  0.00    +0.391 N 
ATOM      3  H1  UNL     1      37.413 -27.102 -12.257  0.00  0.00    -0.088 HD
ATOM      4  H2  UNL     1      36.019 -26.787 -13.113  0.00  0.00    -0.088 HD
ATOM      5  H3  UNL     1      36.996 -25.530 -12.621  0.00  0.00    -0.088 HD
ENDBRANCH   1   2
BRANCH   1   7
ATOM      6  OXT UNL     1      35.863 -25.575 -15.407  0.00  0.00    -0.252 OA
ATOM      7  C   UNL     1      36.748 -26.420 -15.349  0.00  0.00    +0.297 C 
BRANCH   7   8
ATOM      8  O   UNL     1      36.929 -27.356 -16.319  0.00  0.00    -0.481 OA
ATOM      9  H   UNL     1      37.482 -28.096 -16.160  0.00  0.00    +0.295 HD
ENDBRANCH   7   8
ENDBRANCH   1   7
BRANCH   1  10
ATOM     10  C   UNL     1      38.744 -25.484 -14.324  0.00  0.00    -0.038 C 
ATOM     11  C   UNL     1      39.968 -25.652 -14.839  0.00  0.00    -0.007 C 
ENDBRANCH   1  10
TORSDOF 4
ENDMDL
MODEL 6
REMARK VINA RESULT:      -4.2     10.820     11.209
REMARK  Name = 5287580
REMARK  4 active torsions:
REMARK  status: ('A' for Active; 'I' for Inactive)
REMARK    1  A    between atoms: CA_1  and  N_2
REMARK    2  A    between atoms: CA_1  and  C_7
REMARK    3  A    between atoms: CA_1  and  C_10
REMARK    4  A    between atoms: C_7  and  O_8
REMARK                            x       y       z     vdW  Elec       q    Type
REMARK                         _______ _______ _______ _____ _____    ______ ____
ROOT
ATOM      1  CA  UNL     1      34.427 -18.358 -21.566  0.00  0.00    +0.059 C 
ENDROOT
BRANCH   1   2
ATOM      2  N   UNL     1      35.348 -17.581 -20.737  0.00  0.00    +0.391 N 
ATOM      3  H1  UNL     1      35.728 -16.808 -21.284  0.00  0.00    -0.088 HD
ATOM      4  H2  UNL     1      36.109 -18.181 -20.421  0.00  0.00    -0.088 HD
ATOM      5  H3  UNL     1      34.847 -17.212 -19.928  0.00  0.00    -0.088 HD
ENDBRANCH   1   2
BRANCH   1   7
ATOM      6  OXT UNL     1      34.835 -19.517 -23.674  0.00  0.00    -0.252 OA
ATOM      7  C   UNL     1      35.104 -18.607 -22.901  0.00  0.00    +0.297 C 
BRANCH   7   8
ATOM      8  O   UNL     1      36.095 -17.708 -23.146  0.00  0.00    -0.481 OA
ATOM      9  H   UNL     1      36.991 -17.985 -23.143  0.00  0.00    +0.295 HD
ENDBRANCH   7   8
ENDBRANCH   1   7
BRANCH   1  10
ATOM     10  C   UNL     1      34.132 -19.695 -20.955  0.00  0.00    -0.038 C 
ATOM     11  C   UNL     1      32.917 -20.068 -20.536  0.00  0.00    -0.007 C 
ENDBRANCH   1  10
TORSDOF 4
ENDMDL
MODEL 7
REMARK VINA RESULT:      -4.2      9.943     10.255
REMARK  Name = 5287580
REMARK  4 active torsions:
REMARK  status: ('A' for Active; 'I' for Inactive)
REMARK    1  A    between atoms: CA_1  and  N_2
REMARK    2  A    between atoms: CA_1  and  C_7
REMARK    3  A    between atoms: CA_1  and  C_10
REMARK    4  A    between atoms: C_7  and  O_8
REMARK                            x       y       z     vdW  Elec       q    Type
REMARK                         _______ _______ _______ _____ _____    ______ ____
ROOT
ATOM      1  CA  UNL     1      34.751 -19.657 -21.783  0.00  0.00    +0.059 C 
ENDROOT
BRANCH   1   2
ATOM      2  N   UNL     1      34.604 -18.832 -22.981  0.00  0.00    +0.391 N 
ATOM      3  H1  UNL     1      33.743 -19.085 -23.466  0.00  0.00    -0.088 HD
ATOM      4  H2  UNL     1      35.400 -18.985 -23.600  0.00  0.00    -0.088 HD
ATOM      5  H3  UNL     1      34.566 -17.848 -22.714  0.00  0.00    -0.088 HD
ENDBRANCH   1   2
BRANCH   1   7
ATOM      6  OXT UNL     1      36.673 -19.508 -20.288  0.00  0.00    -0.252 OA
ATOM      7  C   UNL     1      35.738 -18.965 -20.863  0.00  0.00    +0.297 C 
BRANCH   7   8
ATOM      8  O   UNL     1      35.452 -17.644 -20.708  0.00  0.00    -0.481 OA
ATOM      9  H   UNL     1      35.854 -17.155 -20.017  0.00  0.00    +0.295 HD
ENDBRANCH   7   8
ENDBRANCH   1   7
BRANCH   1  10
ATOM     10  C   UNL     1      33.455 -19.783 -21.040  0.00  0.00    -0.038 C 
ATOM     11  C   UNL     1      33.255 -20.645 -20.036  0.00  0.00    -0.007 C 
ENDBRANCH   1  10
TORSDOF 4
ENDMDL
MODEL 8
REMARK VINA RESULT:      -4.1     10.487     11.229
REMARK  Name = 5287580
REMARK  4 active torsions:
REMARK  status: ('A' for Active; 'I' for Inactive)
REMARK    1  A    between atoms: CA_1  and  N_2
REMARK    2  A    between atoms: CA_1  and  C_7
REMARK    3  A    between atoms: CA_1  and  C_10
REMARK    4  A    between atoms: C_7  and  O_8
REMARK                            x       y       z     vdW  Elec       q    Type
REMARK                         _______ _______ _______ _____ _____    ______ ____
ROOT
ATOM      1  CA  UNL     1      41.695 -15.443 -17.631  0.00  0.00    +0.059 C 
ENDROOT
BRANCH   1   2
ATOM      2  N   UNL     1      42.264 -16.456 -18.519  0.00  0.00    +0.391 N 
ATOM      3  H1  UNL     1      43.276 -16.486 -18.398  0.00  0.00    -0.088 HD
ATOM      4  H2  UNL     1      42.044 -16.222 -19.487  0.00  0.00    -0.088 HD
ATOM      5  H3  UNL     1      41.867 -17.369 -18.291  0.00  0.00    -0.088 HD
ENDBRANCH   1   2
BRANCH   1   7
ATOM      6  OXT UNL     1      42.557 -16.640 -15.687  0.00  0.00    -0.252 OA
ATOM      7  C   UNL     1      41.647 -16.028 -16.232  0.00  0.00    +0.297 C 
BRANCH   7   8
ATOM      8  O   UNL     1      40.441 -15.828 -15.637  0.00  0.00    -0.481 OA
ATOM      9  H   UNL     1      40.339 -15.986 -14.719  0.00  0.00    +0.295 HD
ENDBRANCH   7   8
ENDBRANCH   1   7
BRANCH   1  10
ATOM     10  C   UNL     1      42.556 -14.216 -17.576  0.00  0.00    -0.038 C 
ATOM     11  C   UNL     1      42.072 -12.976 -17.431  0.00  0.00    -0.007 C 
ENDBRANCH   1  10
TORSDOF 4
ENDMDL
MODEL 9
REMARK VINA RESULT:      -4.1     11.503     11.932
REMARK  Name = 5287580
REMARK  4 active torsions:
REMARK  status: ('A' for Active; 'I' for Inactive)
REMARK    1  A    between atoms: CA_1  and  N_2
REMARK    2  A    between atoms: CA_1  and  C_7
REMARK    3  A    between atoms: CA_1  and  C_10
REMARK    4  A    between atoms: C_7  and  O_8
REMARK                            x       y       z     vdW  Elec       q    Type
REMARK                         _______ _______ _______ _____ _____    ______ ____
ROOT
ATOM      1  CA  UNL     1      35.753 -17.896 -22.618  0.00  0.00    +0.059 C 
ENDROOT
BRANCH   1   2
ATOM      2  N   UNL     1      35.512 -16.590 -23.230  0.00  0.00    +0.391 N 
ATOM      3  H1  UNL     1      36.065 -15.881 -22.748  0.00  0.00    -0.088 HD
ATOM      4  H2  UNL     1      34.521 -16.357 -23.155  0.00  0.00    -0.088 HD
ATOM      5  H3  UNL     1      35.781 -16.620 -24.213  0.00  0.00    -0.088 HD
ENDBRANCH   1   2
BRANCH   1   7
ATOM      6  OXT UNL     1      35.246 -16.776 -20.510  0.00  0.00    -0.252 OA
ATOM      7  C   UNL     1      35.337 -17.809 -21.162  0.00  0.00    +0.297 C 
BRANCH   7   8
ATOM      8  O   UNL     1      35.099 -19.036 -20.625  0.00  0.00    -0.481 OA
ATOM      9  H   UNL     1      35.806 -19.641 -20.505  0.00  0.00    +0.295 HD
ENDBRANCH   7   8
ENDBRANCH   1   7
BRANCH   1  10
ATOM     10  C   UNL     1      34.921 -18.965 -23.261  0.00  0.00    -0.038 C 
ATOM     11  C   UNL     1      34.525 -18.930 -24.539  0.00  0.00    -0.007 C 
ENDBRANCH   1  10
TORSDOF 4
ENDMDL
