MODEL 1
REMARK VINA RESULT:      -2.5      0.000      0.000
REMARK  Name = 3301
REMARK  3 active torsions:
REMARK  status: ('A' for Active; 'I' for Inactive)
REMARK    1  A    between atoms: C_1  and  N_2
REMARK    2  A    between atoms: C_1  and  C_6
REMARK    3  A    between atoms: C_6  and  N_7
REMARK                            x       y       z     vdW  Elec       q    Type
REMARK                         _______ _______ _______ _____ _____    ______ ____
ROOT
ATOM      1  C   UNL     1      37.255 -26.280 -13.086  0.00  0.00    -0.111 C 
ENDROOT
BRANCH   1   2
ATOM      2  N   UNL     1      36.090 -25.411 -12.966  0.00  0.00    +0.379 N 
ATOM      3  H   UNL     1      36.143 -24.673 -13.668  0.00  0.00    -0.089 HD
ATOM      4  H   UNL     1      36.069 -24.995 -12.036  0.00  0.00    -0.089 HD
ATOM      5  H   UNL     1      35.242 -25.959 -13.113  0.00  0.00    -0.089 HD
ENDBRANCH   1   2
BRANCH   1   6
ATOM      6  C   UNL     1      37.424 -26.736 -14.532  0.00  0.00    -0.111 C 
BRANCH   6   7
ATOM      7  N   UNL     1      36.121 -26.865 -15.175  0.00  0.00    +0.379 N 
ATOM      8  H   UNL     1      35.391 -26.567 -14.526  0.00  0.00    -0.089 HD
ATOM      9  H   UNL     1      35.965 -27.838 -15.437  0.00  0.00    -0.089 HD
ATOM     10  H   UNL     1      36.094 -26.279 -16.009  0.00  0.00    -0.089 HD
ENDBRANCH   6   7
ENDBRANCH   1   6
TORSDOF 3
ENDMDL
MODEL 2
REMARK VINA RESULT:      -2.5      1.942      2.464
REMARK  Name = 3301
REMARK  3 active torsions:
REMARK  status: ('A' for Active; 'I' for Inactive)
REMARK    1  A    between atoms: C_1  and  N_2
REMARK    2  A    between atoms: C_1  and  C_6
REMARK    3  A    between atoms: C_6  and  N_7
REMARK                            x       y       z     vdW  Elec       q    Type
REMARK                         _______ _______ _______ _____ _____    ______ ____
ROOT
ATOM      1  C   UNL     1      37.241 -26.802 -14.193  0.00  0.00    -0.111 C 
ENDROOT
BRANCH   1   2
ATOM      2  N   UNL     1      36.176 -26.837 -15.189  0.00  0.00    +0.379 N 
ATOM      3  H   UNL     1      36.582 -26.972 -16.115  0.00  0.00    -0.089 HD
ATOM      4  H   UNL     1      35.662 -25.957 -15.169  0.00  0.00    -0.089 HD
ATOM      5  H   UNL     1      35.541 -27.607 -14.980  0.00  0.00    -0.089 HD
ENDBRANCH   1   2
BRANCH   1   6
ATOM      6  C   UNL     1      38.382 -25.910 -14.674  0.00  0.00    -0.111 C 
BRANCH   6   7
ATOM      7  N   UNL     1      39.562 -26.109 -13.840  0.00  0.00    +0.379 N 
ATOM      8  H   UNL     1      39.317 -26.690 -13.037  0.00  0.00    -0.089 HD
ATOM      9  H   UNL     1      39.904 -25.206 -13.512  0.00  0.00    -0.089 HD
ATOM     10  H   UNL     1      40.289 -26.571 -14.385  0.00  0.00    -0.089 HD
ENDBRANCH   6   7
ENDBRANCH   1   6
TORSDOF 3
ENDMDL
MODEL 3
REMARK VINA RESULT:      -2.5      1.960      2.098
REMARK  Name = 3301
REMARK  3 active torsions:
REMARK  status: ('A' for Active; 'I' for Inactive)
REMARK    1  A    between atoms: C_1  and  N_2
REMARK    2  A    between atoms: C_1  and  C_6
REMARK    3  A    between atoms: C_6  and  N_7
REMARK                            x       y       z     vdW  Elec       q    Type
REMARK                         _______ _______ _______ _____ _____    ______ ____
ROOT
ATOM      1  C   UNL     1      38.388 -25.894 -14.657  0.00  0.00    -0.111 C 
ENDROOT
BRANCH   1   2
ATOM      2  N   UNL     1      39.587 -26.118 -13.857  0.00  0.00    +0.379 N 
ATOM      3  H   UNL     1      39.945 -25.223 -13.524  0.00  0.00    -0.089 HD
ATOM      4  H   UNL     1      40.296 -26.578 -14.426  0.00  0.00    -0.089 HD
ATOM      5  H   UNL     1      39.356 -26.709 -13.058  0.00  0.00    -0.089 HD
ENDBRANCH   1   2
BRANCH   1   6
ATOM      6  C   UNL     1      37.245 -26.768 -14.149  0.00  0.00    -0.111 C 
BRANCH   6   7
ATOM      7  N   UNL     1      36.219 -26.901 -15.176  0.00  0.00    +0.379 N 
ATOM      8  H   UNL     1      35.317 -27.084 -14.735  0.00  0.00    -0.089 HD
ATOM      9  H   UNL     1      36.455 -27.674 -15.797  0.00  0.00    -0.089 HD
ATOM     10  H   UNL     1      36.164 -26.037 -15.715  0.00  0.00    -0.089 HD
ENDBRANCH   6   7
ENDBRANCH   1   6
TORSDOF 3
ENDMDL
MODEL 4
REMARK VINA RESULT:      -2.5     18.970     19.152
REMARK  Name = 3301
REMARK  3 active torsions:
REMARK  status: ('A' for Active; 'I' for Inactive)
REMARK    1  A    between atoms: C_1  and  N_2
REMARK    2  A    between atoms: C_1  and  C_6
REMARK    3  A    between atoms: C_6  and  N_7
REMARK                            x       y       z     vdW  Elec       q    Type
REMARK                         _______ _______ _______ _____ _____    ______ ____
ROOT
ATOM      1  C   UNL     1      32.492  -8.189 -20.805  0.00  0.00    -0.111 C 
ENDROOT
BRANCH   1   2
ATOM      2  N   UNL     1      32.984  -7.463 -19.640  0.00  0.00    +0.379 N 
ATOM      3  H   UNL     1      33.559  -8.084 -19.071  0.00  0.00    -0.089 HD
ATOM      4  H   UNL     1      32.195  -7.130 -19.087  0.00  0.00    -0.089 HD
ATOM      5  H   UNL     1      33.544  -6.668 -19.947  0.00  0.00    -0.089 HD
ENDBRANCH   1   2
BRANCH   1   6
ATOM      6  C   UNL     1      31.889  -9.524 -20.377  0.00  0.00    -0.111 C 
BRANCH   6   7
ATOM      7  N   UNL     1      32.245  -9.815 -18.993  0.00  0.00    +0.379 N 
ATOM      8  H   UNL     1      33.010  -9.205 -18.703  0.00  0.00    -0.089 HD
ATOM      9  H   UNL     1      32.537 -10.788 -18.914  0.00  0.00    -0.089 HD
ATOM     10  H   UNL     1      31.435  -9.654 -18.394  0.00  0.00    -0.089 HD
ENDBRANCH   6   7
ENDBRANCH   1   6
TORSDOF 3
ENDMDL
MODEL 5
REMARK VINA RESULT:      -2.5     18.986     19.193
REMARK  Name = 3301
REMARK  3 active torsions:
REMARK  status: ('A' for Active; 'I' for Inactive)
REMARK    1  A    between atoms: C_1  and  N_2
REMARK    2  A    between atoms: C_1  and  C_6
REMARK    3  A    between atoms: C_6  and  N_7
REMARK                            x       y       z     vdW  Elec       q    Type
REMARK                         _______ _______ _______ _____ _____    ______ ____
ROOT
ATOM      1  C   UNL     1      31.884  -9.493 -20.365  0.00  0.00    -0.111 C 
ENDROOT
BRANCH   1   2
ATOM      2  N   UNL     1      32.252  -9.809 -18.990  0.00  0.00    +0.379 N 
ATOM      3  H   UNL     1      32.156  -8.974 -18.412  0.00  0.00    -0.089 HD
ATOM      4  H   UNL     1      33.218 -10.132 -18.961  0.00  0.00    -0.089 HD
ATOM      5  H   UNL     1      31.638 -10.542 -18.634  0.00  0.00    -0.089 HD
ENDBRANCH   1   2
BRANCH   1   6
ATOM      6  C   UNL     1      32.529  -8.178 -20.793  0.00  0.00    -0.111 C 
BRANCH   6   7
ATOM      7  N   UNL     1      32.951  -7.420 -19.620  0.00  0.00    +0.379 N 
ATOM      8  H   UNL     1      33.257  -8.065 -18.890  0.00  0.00    -0.089 HD
ATOM      9  H   UNL     1      32.170  -6.863 -19.275  0.00  0.00    -0.089 HD
ATOM     10  H   UNL     1      33.722  -6.803 -19.874  0.00  0.00    -0.089 HD
ENDBRANCH   6   7
ENDBRANCH   1   6
TORSDOF 3
ENDMDL
MODEL 6
REMARK VINA RESULT:      -2.5      0.143      2.202
REMARK  Name = 3301
REMARK  3 active torsions:
REMARK  status: ('A' for Active; 'I' for Inactive)
REMARK    1  A    between atoms: C_1  and  N_2
REMARK    2  A    between atoms: C_1  and  C_6
REMARK    3  A    between atoms: C_6  and  N_7
REMARK                            x       y       z     vdW  Elec       q    Type
REMARK                         _______ _______ _______ _____ _____    ______ ____
ROOT
ATOM      1  C   UNL     1      37.429 -26.512 -14.650  0.00  0.00    -0.111 C 
ENDROOT
BRANCH   1   2
ATOM      2  N   UNL     1      36.158 -26.907 -15.245  0.00  0.00    +0.379 N 
ATOM      3  H   UNL     1      36.286 -27.071 -16.244  0.00  0.00    -0.089 HD
ATOM      4  H   UNL     1      35.471 -26.166 -15.108  0.00  0.00    -0.089 HD
ATOM      5  H   UNL     1      35.827 -27.763 -14.801  0.00  0.00    -0.089 HD
ENDBRANCH   1   2
BRANCH   1   6
ATOM      6  C   UNL     1      37.260 -26.289 -13.150  0.00  0.00    -0.111 C 
BRANCH   6   7
ATOM      7  N   UNL     1      36.120 -25.416 -12.896  0.00  0.00    +0.379 N 
ATOM      8  H   UNL     1      36.252 -24.933 -12.006  0.00  0.00    -0.089 HD
ATOM      9  H   UNL     1      35.267 -25.972 -12.857  0.00  0.00    -0.089 HD
ATOM     10  H   UNL     1      36.045 -24.729 -13.646  0.00  0.00    -0.089 HD
ENDBRANCH   6   7
ENDBRANCH   1   6
TORSDOF 3
ENDMDL
MODEL 7
REMARK VINA RESULT:      -2.5      9.372      9.651
REMARK  Name = 3301
REMARK  3 active torsions:
REMARK  status: ('A' for Active; 'I' for Inactive)
REMARK    1  A    between atoms: C_1  and  N_2
REMARK    2  A    between atoms: C_1  and  C_6
REMARK    3  A    between atoms: C_6  and  N_7
REMARK                            x       y       z     vdW  Elec       q    Type
REMARK                         _______ _______ _______ _____ _____    ______ ____
ROOT
ATOM      1  C   UNL     1      35.010 -20.163 -20.611  0.00  0.00    -0.111 C 
ENDROOT
BRANCH   1   2
ATOM      2  N   UNL     1      35.758 -18.912 -20.671  0.00  0.00    +0.379 N 
ATOM      3  H   UNL     1      35.902 -18.650 -21.646  0.00  0.00    -0.089 HD
ATOM      4  H   UNL     1      36.661 -19.032 -20.214  0.00  0.00    -0.089 HD
ATOM      5  H   UNL     1      35.231 -18.179 -20.196  0.00  0.00    -0.089 HD
ENDBRANCH   1   2
BRANCH   1   6
ATOM      6  C   UNL     1      33.516 -19.891 -20.762  0.00  0.00    -0.111 C 
BRANCH   6   7
ATOM      7  N   UNL     1      32.760 -20.689 -19.803  0.00  0.00    +0.379 N 
ATOM      8  H   UNL     1      32.448 -20.093 -19.036  0.00  0.00    -0.089 HD
ATOM      9  H   UNL     1      33.353 -21.432 -19.436  0.00  0.00    -0.089 HD
ATOM     10  H   UNL     1      31.950 -21.099 -20.267  0.00  0.00    -0.089 HD
ENDBRANCH   6   7
ENDBRANCH   1   6
TORSDOF 3
ENDMDL
MODEL 8
REMARK VINA RESULT:      -2.5      9.423      9.710
REMARK  Name = 3301
REMARK  3 active torsions:
REMARK  status: ('A' for Active; 'I' for Inactive)
REMARK    1  A    between atoms: C_1  and  N_2
REMARK    2  A    between atoms: C_1  and  C_6
REMARK    3  A    between atoms: C_6  and  N_7
REMARK                            x       y       z     vdW  Elec       q    Type
REMARK                         _______ _______ _______ _____ _____    ______ ____
ROOT
ATOM      1  C   UNL     1      33.490 -19.850 -20.772  0.00  0.00    -0.111 C 
ENDROOT
BRANCH   1   2
ATOM      2  N   UNL     1      32.755 -20.664 -19.810  0.00  0.00    +0.379 N 
ATOM      3  H   UNL     1      32.308 -20.057 -19.123  0.00  0.00    -0.089 HD
ATOM      4  H   UNL     1      33.399 -21.296 -19.336  0.00  0.00    -0.089 HD
ATOM      5  H   UNL     1      32.043 -21.207 -20.299  0.00  0.00    -0.089 HD
ENDBRANCH   1   2
BRANCH   1   6
ATOM      6  C   UNL     1      34.987 -20.119 -20.653  0.00  0.00    -0.111 C 
BRANCH   6   7
ATOM      7  N   UNL     1      35.730 -18.866 -20.717  0.00  0.00    +0.379 N 
ATOM      8  H   UNL     1      35.737 -18.427 -19.796  0.00  0.00    -0.089 HD
ATOM      9  H   UNL     1      35.286 -18.240 -21.388  0.00  0.00    -0.089 HD
ATOM     10  H   UNL     1      36.688 -19.054 -21.011  0.00  0.00    -0.089 HD
ENDBRANCH   6   7
ENDBRANCH   1   6
TORSDOF 3
ENDMDL
MODEL 9
REMARK VINA RESULT:      -2.5     13.421     13.845
REMARK  Name = 3301
REMARK  3 active torsions:
REMARK  status: ('A' for Active; 'I' for Inactive)
REMARK    1  A    between atoms: C_1  and  N_2
REMARK    2  A    between atoms: C_1  and  C_6
REMARK    3  A    between atoms: C_6  and  N_7
REMARK                            x       y       z     vdW  Elec       q    Type
REMARK                         _______ _______ _______ _____ _____    ______ ____
ROOT
ATOM      1  C   UNL     1      41.474 -13.845 -15.982  0.00  0.00    -0.111 C 
ENDROOT
BRANCH   1   2
ATOM      2  N   UNL     1      42.430 -12.763 -15.779  0.00  0.00    +0.379 N 
ATOM      3  H   UNL     1      42.909 -12.896 -14.888  0.00  0.00    -0.089 HD
ATOM      4  H   UNL     1      41.938 -11.870 -15.769  0.00  0.00    -0.089 HD
ATOM      5  H   UNL     1      43.113 -12.766 -16.536  0.00  0.00    -0.089 HD
ENDBRANCH   1   2
BRANCH   1   6
ATOM      6  C   UNL     1      40.893 -14.293 -14.644  0.00  0.00    -0.111 C 
BRANCH   6   7
ATOM      7  N   UNL     1      40.656 -13.136 -13.787  0.00  0.00    +0.379 N 
ATOM      8  H   UNL     1      40.182 -12.407 -14.323  0.00  0.00    -0.089 HD
ATOM      9  H   UNL     1      41.546 -12.779 -13.442  0.00  0.00    -0.089 HD
ATOM     10  H   UNL     1      40.071 -13.412 -12.999  0.00  0.00    -0.089 HD
ENDBRANCH   6   7
ENDBRANCH   1   6
TORSDOF 3
ENDMDL
