MODEL 1
REMARK VINA RESULT:      -7.8      0.000      0.000
REMARK  Name = 104838
REMARK  8 active torsions:
REMARK  status: ('A' for Active; 'I' for Inactive)
REMARK    1  A    between atoms: C_4  and  C_13
REMARK    2  A    between atoms: C_7  and  C_10
REMARK    3  A    between atoms: C_8  and  S_17
REMARK    4  A    between atoms: C_10  and  O_11
REMARK    5  A    between atoms: C_13  and  O_15
REMARK    6  A    between atoms: S_17  and  C_18
REMARK    7  A    between atoms: C_18  and  C_19
REMARK    8  A    between atoms: C_19  and  N_20
REMARK                            x       y       z     vdW  Elec       q    Type
REMARK                         _______ _______ _______ _____ _____    ______ ____
ROOT
ATOM      1  O   UNL     1      34.828 -16.706 -25.847  0.00  0.00    -0.274 OA
ATOM      2  N   UNL     1      33.481 -15.314 -24.500  0.00  0.00    -0.254 N 
ATOM      3  C   UNL     1      33.790 -15.231 -23.055  0.00  0.00    +0.096 C 
ATOM      4  C   UNL     1      34.880 -16.303 -23.323  0.00  0.00    +0.123 C 
ATOM      5  C   UNL     1      34.085 -13.746 -22.814  0.00  0.00    +0.055 C 
ATOM      6  C   UNL     1      34.437 -16.238 -24.802  0.00  0.00    +0.233 C 
ATOM      7  C   UNL     1      33.398 -14.058 -25.032  0.00  0.00    +0.132 C 
ATOM      8  C   UNL     1      33.704 -13.117 -24.130  0.00  0.00    +0.025 C 
ENDROOT
BRANCH   7  10
ATOM      9  O   UNL     1      33.721 -13.211 -27.230  0.00  0.00    -0.244 OA
ATOM     10  C   UNL     1      33.067 -13.877 -26.441  0.00  0.00    +0.352 C 
BRANCH  10  11
ATOM     11  O   UNL     1      31.936 -14.555 -26.737  0.00  0.00    -0.476 OA
ATOM     12  H   UNL     1      31.895 -15.480 -26.600  0.00  0.00    +0.295 HD
ENDBRANCH  10  11
ENDBRANCH   7  10
BRANCH   4  13
ATOM     13  C   UNL     1      34.708 -17.656 -22.674  0.00  0.00    +0.121 C 
ATOM     14  C   UNL     1      36.042 -18.385 -22.556  0.00  0.00    +0.032 C 
BRANCH  13  15
ATOM     15  O   UNL     1      34.149 -17.490 -21.372  0.00  0.00    -0.384 OA
ATOM     16  H   UNL     1      33.401 -18.098 -21.260  0.00  0.00    +0.210 HD
ENDBRANCH  13  15
ENDBRANCH   4  13
BRANCH   8  17
ATOM     17  S   UNL     1      33.752 -11.419 -24.372  0.00  0.00    -0.114 S 
BRANCH  17  18
ATOM     18  C   UNL     1      32.636 -10.877 -23.055  0.00  0.00    +0.088 C 
BRANCH  18  19
ATOM     19  C   UNL     1      32.226  -9.427 -23.262  0.00  0.00    +0.139 C 
BRANCH  19  20
ATOM     20  N   UNL     1      32.842  -8.610 -22.213  0.00  0.00    -0.253 NA
ATOM     21  N   UNL     1      32.703  -8.252 -19.814  0.00  0.00    -0.341 N 
ATOM     22  C   UNL     1      32.392  -8.805 -21.026  0.00  0.00    +0.152 C 
ATOM     23  H   UNL     1      32.230  -8.547 -19.003  0.00  0.00    +0.144 HD
ATOM     24  H   UNL     1      33.400  -7.560 -19.754  0.00  0.00    +0.144 HD
ENDBRANCH  19  20
ENDBRANCH  18  19
ENDBRANCH  17  18
ENDBRANCH   8  17
TORSDOF 8
ENDMDL
MODEL 2
REMARK VINA RESULT:      -7.6     12.578     15.384
REMARK  Name = 104838
REMARK  8 active torsions:
REMARK  status: ('A' for Active; 'I' for Inactive)
REMARK    1  A    between atoms: C_4  and  C_13
REMARK    2  A    between atoms: C_7  and  C_10
REMARK    3  A    between atoms: C_8  and  S_17
REMARK    4  A    between atoms: C_10  and  O_11
REMARK    5  A    between atoms: C_13  and  O_15
REMARK    6  A    between atoms: S_17  and  C_18
REMARK    7  A    between atoms: C_18  and  C_19
REMARK    8  A    between atoms: C_19  and  N_20
REMARK                            x       y       z     vdW  Elec       q    Type
REMARK                         _______ _______ _______ _____ _____    ______ ____
ROOT
ATOM      1  O   UNL     1      38.606 -26.303 -11.977  0.00  0.00    -0.274 OA
ATOM      2  N   UNL     1      37.640 -24.470 -13.106  0.00  0.00    -0.254 N 
ATOM      3  C   UNL     1      37.775 -24.408 -14.578  0.00  0.00    +0.096 C 
ATOM      4  C   UNL     1      38.646 -25.688 -14.458  0.00  0.00    +0.123 C 
ATOM      5  C   UNL     1      36.330 -24.397 -15.091  0.00  0.00    +0.055 C 
ATOM      6  C   UNL     1      38.377 -25.605 -12.938  0.00  0.00    +0.233 C 
ATOM      7  C   UNL     1      36.330 -24.317 -12.751  0.00  0.00    +0.132 C 
ATOM      8  C   UNL     1      35.530 -24.245 -13.822  0.00  0.00    +0.025 C 
ENDROOT
BRANCH   7  10
ATOM      9  O   UNL     1      35.145 -25.076 -10.834  0.00  0.00    -0.244 OA
ATOM     10  C   UNL     1      35.947 -24.307 -11.343  0.00  0.00    +0.352 C 
BRANCH  10  11
ATOM     11  O   UNL     1      36.611 -23.325 -10.694  0.00  0.00    -0.476 OA
ATOM     12  H   UNL     1      36.134 -22.649 -10.255  0.00  0.00    +0.295 HD
ENDBRANCH  10  11
ENDBRANCH   7  10
BRANCH   4  13
ATOM     13  C   UNL     1      40.102 -25.584 -14.845  0.00  0.00    +0.121 C 
ATOM     14  C   UNL     1      40.952 -26.587 -14.072  0.00  0.00    +0.032 C 
BRANCH  13  15
ATOM     15  O   UNL     1      40.240 -25.835 -16.243  0.00  0.00    -0.384 OA
ATOM     16  H   UNL     1      39.925 -26.730 -16.445  0.00  0.00    +0.210 HD
ENDBRANCH  13  15
ENDBRANCH   4  13
BRANCH   8  17
ATOM     17  S   UNL     1      33.823 -24.078 -13.839  0.00  0.00    -0.114 S 
BRANCH  17  18
ATOM     18  C   UNL     1      33.588 -23.364 -15.484  0.00  0.00    +0.088 C 
BRANCH  18  19
ATOM     19  C   UNL     1      32.126 -23.433 -15.895  0.00  0.00    +0.139 C 
BRANCH  19  20
ATOM     20  N   UNL     1      31.982 -22.830 -17.223  0.00  0.00    -0.253 NA
ATOM     21  N   UNL     1      33.315 -22.326 -19.190  0.00  0.00    -0.341 N 
ATOM     22  C   UNL     1      33.051 -22.796 -17.933  0.00  0.00    +0.152 C 
ATOM     23  H   UNL     1      34.224 -22.397 -19.560  0.00  0.00    +0.144 HD
ATOM     24  H   UNL     1      32.596 -21.918 -19.723  0.00  0.00    +0.144 HD
ENDBRANCH  19  20
ENDBRANCH  18  19
ENDBRANCH  17  18
ENDBRANCH   8  17
TORSDOF 8
ENDMDL
MODEL 3
REMARK VINA RESULT:      -7.6     14.063     15.883
REMARK  Name = 104838
REMARK  8 active torsions:
REMARK  status: ('A' for Active; 'I' for Inactive)
REMARK    1  A    between atoms: C_4  and  C_13
REMARK    2  A    between atoms: C_7  and  C_10
REMARK    3  A    between atoms: C_8  and  S_17
REMARK    4  A    between atoms: C_10  and  O_11
REMARK    5  A    between atoms: C_13  and  O_15
REMARK    6  A    between atoms: S_17  and  C_18
REMARK    7  A    between atoms: C_18  and  C_19
REMARK    8  A    between atoms: C_19  and  N_20
REMARK                            x       y       z     vdW  Elec       q    Type
REMARK                         _______ _______ _______ _____ _____    ______ ____
ROOT
ATOM      1  O   UNL     1      38.625 -26.267 -11.931  0.00  0.00    -0.274 OA
ATOM      2  N   UNL     1      37.635 -24.459 -13.078  0.00  0.00    -0.254 N 
ATOM      3  C   UNL     1      37.759 -24.416 -14.551  0.00  0.00    +0.096 C 
ATOM      4  C   UNL     1      38.643 -25.685 -14.419  0.00  0.00    +0.123 C 
ATOM      5  C   UNL     1      36.311 -24.424 -15.055  0.00  0.00    +0.055 C 
ATOM      6  C   UNL     1      38.383 -25.584 -12.899  0.00  0.00    +0.233 C 
ATOM      7  C   UNL     1      36.325 -24.313 -12.716  0.00  0.00    +0.132 C 
ATOM      8  C   UNL     1      35.518 -24.263 -13.783  0.00  0.00    +0.025 C 
ENDROOT
BRANCH   7  10
ATOM      9  O   UNL     1      35.132 -25.033 -10.789  0.00  0.00    -0.244 OA
ATOM     10  C   UNL     1      35.951 -24.288 -11.306  0.00  0.00    +0.352 C 
BRANCH  10  11
ATOM     11  O   UNL     1      36.645 -23.321 -10.665  0.00  0.00    -0.476 OA
ATOM     12  H   UNL     1      36.308 -22.949  -9.874  0.00  0.00    +0.295 HD
ENDBRANCH  10  11
ENDBRANCH   7  10
BRANCH   4  13
ATOM     13  C   UNL     1      40.095 -25.573 -14.817  0.00  0.00    +0.121 C 
ATOM     14  C   UNL     1      40.952 -26.590 -14.071  0.00  0.00    +0.032 C 
BRANCH  13  15
ATOM     15  O   UNL     1      40.222 -25.796 -16.221  0.00  0.00    -0.384 OA
ATOM     16  H   UNL     1      39.437 -26.264 -16.547  0.00  0.00    +0.210 HD
ENDBRANCH  13  15
ENDBRANCH   4  13
BRANCH   8  17
ATOM     17  S   UNL     1      33.810 -24.112 -13.791  0.00  0.00    -0.114 S 
BRANCH  17  18
ATOM     18  C   UNL     1      33.562 -23.378 -15.425  0.00  0.00    +0.088 C 
BRANCH  18  19
ATOM     19  C   UNL     1      32.111 -23.516 -15.861  0.00  0.00    +0.139 C 
BRANCH  19  20
ATOM     20  N   UNL     1      31.362 -24.187 -14.796  0.00  0.00    -0.253 NA
ATOM     21  N   UNL     1      29.338 -25.494 -14.486  0.00  0.00    -0.341 N 
ATOM     22  C   UNL     1      30.283 -24.777 -15.166  0.00  0.00    +0.152 C 
ATOM     23  H   UNL     1      28.568 -25.873 -14.968  0.00  0.00    +0.144 HD
ATOM     24  H   UNL     1      29.428 -25.629 -13.516  0.00  0.00    +0.144 HD
ENDBRANCH  19  20
ENDBRANCH  18  19
ENDBRANCH  17  18
ENDBRANCH   8  17
TORSDOF 8
ENDMDL
MODEL 4
REMARK VINA RESULT:      -7.4      3.660      7.466
REMARK  Name = 104838
REMARK  8 active torsions:
REMARK  status: ('A' for Active; 'I' for Inactive)
REMARK    1  A    between atoms: C_4  and  C_13
REMARK    2  A    between atoms: C_7  and  C_10
REMARK    3  A    between atoms: C_8  and  S_17
REMARK    4  A    between atoms: C_10  and  O_11
REMARK    5  A    between atoms: C_13  and  O_15
REMARK    6  A    between atoms: S_17  and  C_18
REMARK    7  A    between atoms: C_18  and  C_19
REMARK    8  A    between atoms: C_19  and  N_20
REMARK                            x       y       z     vdW  Elec       q    Type
REMARK                         _______ _______ _______ _____ _____    ______ ____
ROOT
ATOM      1  O   UNL     1      33.735 -12.981 -23.203  0.00  0.00    -0.274 OA
ATOM      2  N   UNL     1      33.402 -15.314 -23.332  0.00  0.00    -0.254 N 
ATOM      3  C   UNL     1      33.613 -15.977 -24.637  0.00  0.00    +0.096 C 
ATOM      4  C   UNL     1      33.867 -14.557 -25.211  0.00  0.00    +0.123 C 
ATOM      5  C   UNL     1      34.718 -17.005 -24.366  0.00  0.00    +0.055 C 
ATOM      6  C   UNL     1      33.637 -14.045 -23.772  0.00  0.00    +0.233 C 
ATOM      7  C   UNL     1      34.114 -15.959 -22.360  0.00  0.00    +0.132 C 
ATOM      8  C   UNL     1      34.865 -16.944 -22.867  0.00  0.00    +0.025 C 
ENDROOT
BRANCH   7  10
ATOM      9  O   UNL     1      34.994 -15.127 -20.314  0.00  0.00    -0.244 OA
ATOM     10  C   UNL     1      34.039 -15.510 -20.974  0.00  0.00    +0.352 C 
BRANCH  10  11
ATOM     11  O   UNL     1      32.763 -15.582 -20.537  0.00  0.00    -0.476 OA
ATOM     12  H   UNL     1      32.083 -15.859 -21.118  0.00  0.00    +0.295 HD
ENDBRANCH  10  11
ENDBRANCH   7  10
BRANCH   4  13
ATOM     13  C   UNL     1      32.886 -14.028 -26.230  0.00  0.00    +0.121 C 
ATOM     14  C   UNL     1      33.602 -13.268 -27.343  0.00  0.00    +0.032 C 
BRANCH  13  15
ATOM     15  O   UNL     1      32.160 -15.116 -26.801  0.00  0.00    -0.384 OA
ATOM     16  H   UNL     1      32.393 -15.205 -27.738  0.00  0.00    +0.210 HD
ENDBRANCH  13  15
ENDBRANCH   4  13
BRANCH   8  17
ATOM     17  S   UNL     1      35.926 -17.990 -22.016  0.00  0.00    -0.114 S 
BRANCH  17  18
ATOM     18  C   UNL     1      34.910 -19.484 -21.940  0.00  0.00    +0.088 C 
BRANCH  18  19
ATOM     19  C   UNL     1      35.061 -20.168 -20.590  0.00  0.00    +0.139 C 
BRANCH  19  20
ATOM     20  N   UNL     1      33.743 -20.628 -20.146  0.00  0.00    -0.253 NA
ATOM     21  N   UNL     1      32.751 -22.314 -18.706  0.00  0.00    -0.341 N 
ATOM     22  C   UNL     1      33.750 -21.618 -19.329  0.00  0.00    +0.152 C 
ATOM     23  H   UNL     1      32.973 -23.059 -18.102  0.00  0.00    +0.144 HD
ATOM     24  H   UNL     1      31.811 -22.070 -18.862  0.00  0.00    +0.144 HD
ENDBRANCH  19  20
ENDBRANCH  18  19
ENDBRANCH  17  18
ENDBRANCH   8  17
TORSDOF 8
ENDMDL
MODEL 5
REMARK VINA RESULT:      -7.4      7.674     11.650
REMARK  Name = 104838
REMARK  8 active torsions:
REMARK  status: ('A' for Active; 'I' for Inactive)
REMARK    1  A    between atoms: C_4  and  C_13
REMARK    2  A    between atoms: C_7  and  C_10
REMARK    3  A    between atoms: C_8  and  S_17
REMARK    4  A    between atoms: C_10  and  O_11
REMARK    5  A    between atoms: C_13  and  O_15
REMARK    6  A    between atoms: S_17  and  C_18
REMARK    7  A    between atoms: C_18  and  C_19
REMARK    8  A    between atoms: C_19  and  N_20
REMARK                            x       y       z     vdW  Elec       q    Type
REMARK                         _______ _______ _______ _____ _____    ______ ____
ROOT
ATOM      1  O   UNL     1      33.357 -20.039 -20.885  0.00  0.00    -0.274 OA
ATOM      2  N   UNL     1      35.182 -21.356 -20.175  0.00  0.00    -0.254 N 
ATOM      3  C   UNL     1      36.500 -20.700 -20.030  0.00  0.00    +0.096 C 
ATOM      4  C   UNL     1      35.819 -19.420 -20.583  0.00  0.00    +0.123 C 
ATOM      5  C   UNL     1      36.869 -20.910 -18.557  0.00  0.00    +0.055 C 
ATOM      6  C   UNL     1      34.522 -20.258 -20.643  0.00  0.00    +0.233 C 
ATOM      7  C   UNL     1      34.872 -22.038 -19.032  0.00  0.00    +0.132 C 
ATOM      8  C   UNL     1      35.793 -21.852 -18.079  0.00  0.00    +0.025 C 
ENDROOT
BRANCH   7  10
ATOM      9  O   UNL     1      32.586 -22.375 -18.475  0.00  0.00    -0.244 OA
ATOM     10  C   UNL     1      33.631 -22.799 -18.945  0.00  0.00    +0.352 C 
BRANCH  10  11
ATOM     11  O   UNL     1      33.813 -24.035 -19.459  0.00  0.00    -0.476 OA
ATOM     12  H   UNL     1      34.305 -24.146 -20.249  0.00  0.00    +0.295 HD
ENDBRANCH  10  11
ENDBRANCH   7  10
BRANCH   4  13
ATOM     13  C   UNL     1      36.290 -18.895 -21.918  0.00  0.00    +0.121 C 
ATOM     14  C   UNL     1      35.605 -17.578 -22.267  0.00  0.00    +0.032 C 
BRANCH  13  15
ATOM     15  O   UNL     1      37.702 -18.690 -21.876  0.00  0.00    -0.384 OA
ATOM     16  H   UNL     1      37.996 -18.286 -22.708  0.00  0.00    +0.210 HD
ENDBRANCH  13  15
ENDBRANCH   4  13
BRANCH   8  17
ATOM     17  S   UNL     1      35.792 -22.497 -16.489  0.00  0.00    -0.114 S 
BRANCH  17  18
ATOM     18  C   UNL     1      37.572 -22.595 -16.182  0.00  0.00    +0.088 C 
BRANCH  18  19
ATOM     19  C   UNL     1      37.901 -23.801 -15.316  0.00  0.00    +0.139 C 
BRANCH  19  20
ATOM     20  N   UNL     1      36.736 -24.689 -15.283  0.00  0.00    -0.253 NA
ATOM     21  N   UNL     1      36.197 -27.036 -14.966  0.00  0.00    -0.341 N 
ATOM     22  C   UNL     1      36.993 -25.928 -15.066  0.00  0.00    +0.152 C 
ATOM     23  H   UNL     1      36.600 -27.917 -14.791  0.00  0.00    +0.144 HD
ATOM     24  H   UNL     1      35.222 -26.951 -15.067  0.00  0.00    +0.144 HD
ENDBRANCH  19  20
ENDBRANCH  18  19
ENDBRANCH  17  18
ENDBRANCH   8  17
TORSDOF 8
ENDMDL
MODEL 6
REMARK VINA RESULT:      -7.3     12.981     15.375
REMARK  Name = 104838
REMARK  8 active torsions:
REMARK  status: ('A' for Active; 'I' for Inactive)
REMARK    1  A    between atoms: C_4  and  C_13
REMARK    2  A    between atoms: C_7  and  C_10
REMARK    3  A    between atoms: C_8  and  S_17
REMARK    4  A    between atoms: C_10  and  O_11
REMARK    5  A    between atoms: C_13  and  O_15
REMARK    6  A    between atoms: S_17  and  C_18
REMARK    7  A    between atoms: C_18  and  C_19
REMARK    8  A    between atoms: C_19  and  N_20
REMARK                            x       y       z     vdW  Elec       q    Type
REMARK                         _______ _______ _______ _____ _____    ______ ____
ROOT
ATOM      1  O   UNL     1      31.954 -23.363 -12.781  0.00  0.00    -0.274 OA
ATOM      2  N   UNL     1      33.624 -24.119 -14.266  0.00  0.00    -0.254 N 
ATOM      3  C   UNL     1      33.619 -23.592 -15.648  0.00  0.00    +0.096 C 
ATOM      4  C   UNL     1      32.314 -22.846 -15.258  0.00  0.00    +0.123 C 
ATOM      5  C   UNL     1      34.985 -22.913 -15.802  0.00  0.00    +0.055 C 
ATOM      6  C   UNL     1      32.496 -23.472 -13.857  0.00  0.00    +0.233 C 
ATOM      7  C   UNL     1      34.866 -23.971 -13.716  0.00  0.00    +0.132 C 
ATOM      8  C   UNL     1      35.698 -23.318 -14.536  0.00  0.00    +0.025 C 
ENDROOT
BRANCH   7  10
ATOM      9  O   UNL     1      34.796 -23.873 -11.341  0.00  0.00    -0.244 OA
ATOM     10  C   UNL     1      35.132 -24.451 -12.364  0.00  0.00    +0.352 C 
BRANCH  10  11
ATOM     11  O   UNL     1      35.800 -25.624 -12.417  0.00  0.00    -0.476 OA
ATOM     12  H   UNL     1      36.712 -25.654 -12.205  0.00  0.00    +0.295 HD
ENDBRANCH  10  11
ENDBRANCH   7  10
BRANCH   4  13
ATOM     13  C   UNL     1      31.040 -23.244 -15.964  0.00  0.00    +0.121 C 
ATOM     14  C   UNL     1      29.812 -22.826 -15.163  0.00  0.00    +0.032 C 
BRANCH  13  15
ATOM     15  O   UNL     1      30.994 -22.623 -17.248  0.00  0.00    -0.384 OA
ATOM     16  H   UNL     1      30.391 -21.864 -17.219  0.00  0.00    +0.210 HD
ENDBRANCH  13  15
ENDBRANCH   4  13
BRANCH   8  17
ATOM     17  S   UNL     1      37.334 -22.895 -14.241  0.00  0.00    -0.114 S 
BRANCH  17  18
ATOM     18  C   UNL     1      38.171 -24.107 -15.290  0.00  0.00    +0.088 C 
BRANCH  18  19
ATOM     19  C   UNL     1      38.995 -25.069 -14.448  0.00  0.00    +0.139 C 
BRANCH  19  20
ATOM     20  N   UNL     1      38.183 -26.254 -14.158  0.00  0.00    -0.253 NA
ATOM     21  N   UNL     1      36.303 -27.488 -15.076  0.00  0.00    -0.341 N 
ATOM     22  C   UNL     1      37.247 -26.501 -15.001  0.00  0.00    +0.152 C 
ATOM     23  H   UNL     1      35.661 -27.499 -15.822  0.00  0.00    +0.144 HD
ATOM     24  H   UNL     1      36.267 -28.187 -14.384  0.00  0.00    +0.144 HD
ENDBRANCH  19  20
ENDBRANCH  18  19
ENDBRANCH  17  18
ENDBRANCH   8  17
TORSDOF 8
ENDMDL
MODEL 7
REMARK VINA RESULT:      -7.1     13.617     15.464
REMARK  Name = 104838
REMARK  8 active torsions:
REMARK  status: ('A' for Active; 'I' for Inactive)
REMARK    1  A    between atoms: C_4  and  C_13
REMARK    2  A    between atoms: C_7  and  C_10
REMARK    3  A    between atoms: C_8  and  S_17
REMARK    4  A    between atoms: C_10  and  O_11
REMARK    5  A    between atoms: C_13  and  O_15
REMARK    6  A    between atoms: S_17  and  C_18
REMARK    7  A    between atoms: C_18  and  C_19
REMARK    8  A    between atoms: C_19  and  N_20
REMARK                            x       y       z     vdW  Elec       q    Type
REMARK                         _______ _______ _______ _____ _____    ______ ____
ROOT
ATOM      1  O   UNL     1      34.240 -24.272 -16.355  0.00  0.00    -0.274 OA
ATOM      2  N   UNL     1      34.859 -23.137 -14.381  0.00  0.00    -0.254 N 
ATOM      3  C   UNL     1      34.142 -23.472 -13.131  0.00  0.00    +0.096 C 
ATOM      4  C   UNL     1      33.258 -24.407 -13.999  0.00  0.00    +0.123 C 
ATOM      5  C   UNL     1      35.241 -23.963 -12.181  0.00  0.00    +0.055 C 
ATOM      6  C   UNL     1      34.132 -23.959 -15.191  0.00  0.00    +0.233 C 
ATOM      7  C   UNL     1      36.208 -23.215 -14.179  0.00  0.00    +0.132 C 
ATOM      8  C   UNL     1      36.501 -23.654 -12.949  0.00  0.00    +0.025 C 
ENDROOT
BRANCH   7  10
ATOM      9  O   UNL     1      37.653 -21.802 -15.431  0.00  0.00    -0.244 OA
ATOM     10  C   UNL     1      37.132 -22.894 -15.261  0.00  0.00    +0.352 C 
BRANCH  10  11
ATOM     11  O   UNL     1      37.322 -23.982 -16.040  0.00  0.00    -0.476 OA
ATOM     12  H   UNL     1      37.048 -23.970 -16.936  0.00  0.00    +0.295 HD
ENDBRANCH  10  11
ENDBRANCH   7  10
BRANCH   4  13
ATOM     13  C   UNL     1      31.793 -24.065 -14.130  0.00  0.00    +0.121 C 
ATOM     14  C   UNL     1      30.957 -25.312 -14.401  0.00  0.00    +0.032 C 
BRANCH  13  15
ATOM     15  O   UNL     1      31.338 -23.452 -12.925  0.00  0.00    -0.384 OA
ATOM     16  H   UNL     1      32.045 -23.479 -12.261  0.00  0.00    +0.210 HD
ENDBRANCH  13  15
ENDBRANCH   4  13
BRANCH   8  17
ATOM     17  S   UNL     1      38.059 -23.923 -12.282  0.00  0.00    -0.114 S 
BRANCH  17  18
ATOM     18  C   UNL     1      38.204 -25.710 -12.520  0.00  0.00    +0.088 C 
BRANCH  18  19
ATOM     19  C   UNL     1      39.156 -26.023 -13.664  0.00  0.00    +0.139 C 
BRANCH  19  20
ATOM     20  N   UNL     1      38.369 -26.304 -14.868  0.00  0.00    -0.253 NA
ATOM     21  N   UNL     1      36.140 -27.031 -15.502  0.00  0.00    -0.341 N 
ATOM     22  C   UNL     1      37.160 -26.685 -14.660  0.00  0.00    +0.152 C 
ATOM     23  H   UNL     1      35.268 -27.300 -15.133  0.00  0.00    +0.144 HD
ATOM     24  H   UNL     1      36.278 -27.011 -16.476  0.00  0.00    +0.144 HD
ENDBRANCH  19  20
ENDBRANCH  18  19
ENDBRANCH  17  18
ENDBRANCH   8  17
TORSDOF 8
ENDMDL
MODEL 8
REMARK VINA RESULT:      -7.1     10.053     12.802
REMARK  Name = 104838
REMARK  8 active torsions:
REMARK  status: ('A' for Active; 'I' for Inactive)
REMARK    1  A    between atoms: C_4  and  C_13
REMARK    2  A    between atoms: C_7  and  C_10
REMARK    3  A    between atoms: C_8  and  S_17
REMARK    4  A    between atoms: C_10  and  O_11
REMARK    5  A    between atoms: C_13  and  O_15
REMARK    6  A    between atoms: S_17  and  C_18
REMARK    7  A    between atoms: C_18  and  C_19
REMARK    8  A    between atoms: C_19  and  N_20
REMARK                            x       y       z     vdW  Elec       q    Type
REMARK                         _______ _______ _______ _____ _____    ______ ____
ROOT
ATOM      1  O   UNL     1      34.368 -23.905 -12.995  0.00  0.00    -0.274 OA
ATOM      2  N   UNL     1      34.690 -24.191 -15.315  0.00  0.00    -0.254 N 
ATOM      3  C   UNL     1      33.572 -23.849 -16.221  0.00  0.00    +0.096 C 
ATOM      4  C   UNL     1      32.744 -23.563 -14.939  0.00  0.00    +0.123 C 
ATOM      5  C   UNL     1      34.145 -22.760 -17.137  0.00  0.00    +0.055 C 
ATOM      6  C   UNL     1      34.022 -23.934 -14.154  0.00  0.00    +0.233 C 
ATOM      7  C   UNL     1      35.833 -23.565 -15.726  0.00  0.00    +0.132 C 
ATOM      8  C   UNL     1      35.607 -22.756 -16.769  0.00  0.00    +0.025 C 
ENDROOT
BRANCH   7  10
ATOM      9  O   UNL     1      37.580 -22.982 -14.224  0.00  0.00    -0.244 OA
ATOM     10  C   UNL     1      37.085 -23.777 -15.009  0.00  0.00    +0.352 C 
BRANCH  10  11
ATOM     11  O   UNL     1      37.608 -24.977 -15.343  0.00  0.00    -0.476 OA
ATOM     12  H   UNL     1      37.793 -25.174 -16.240  0.00  0.00    +0.295 HD
ENDBRANCH  10  11
ENDBRANCH   7  10
BRANCH   4  13
ATOM     13  C   UNL     1      31.555 -24.450 -14.660  0.00  0.00    +0.121 C 
ATOM     14  C   UNL     1      30.813 -24.000 -13.406  0.00  0.00    +0.032 C 
BRANCH  13  15
ATOM     15  O   UNL     1      30.661 -24.409 -15.771  0.00  0.00    -0.384 OA
ATOM     16  H   UNL     1      30.724 -25.240 -16.269  0.00  0.00    +0.210 HD
ENDBRANCH  13  15
ENDBRANCH   4  13
BRANCH   8  17
ATOM     17  S   UNL     1      36.745 -21.765 -17.584  0.00  0.00    -0.114 S 
BRANCH  17  18
ATOM     18  C   UNL     1      36.024 -21.748 -19.243  0.00  0.00    +0.088 C 
BRANCH  18  19
ATOM     19  C   UNL     1      36.314 -20.428 -19.940  0.00  0.00    +0.139 C 
BRANCH  19  20
ATOM     20  N   UNL     1      35.062 -19.901 -20.489  0.00  0.00    -0.253 NA
ATOM     21  N   UNL     1      32.676 -20.353 -20.440  0.00  0.00    -0.341 N 
ATOM     22  C   UNL     1      33.999 -20.533 -20.144  0.00  0.00    +0.152 C 
ATOM     23  H   UNL     1      32.001 -20.963 -20.064  0.00  0.00    +0.144 HD
ATOM     24  H   UNL     1      32.400 -19.615 -21.029  0.00  0.00    +0.144 HD
ENDBRANCH  19  20
ENDBRANCH  18  19
ENDBRANCH  17  18
ENDBRANCH   8  17
TORSDOF 8
ENDMDL
MODEL 9
REMARK VINA RESULT:      -7.1      3.373      7.139
REMARK  Name = 104838
REMARK  8 active torsions:
REMARK  status: ('A' for Active; 'I' for Inactive)
REMARK    1  A    between atoms: C_4  and  C_13
REMARK    2  A    between atoms: C_7  and  C_10
REMARK    3  A    between atoms: C_8  and  S_17
REMARK    4  A    between atoms: C_10  and  O_11
REMARK    5  A    between atoms: C_13  and  O_15
REMARK    6  A    between atoms: S_17  and  C_18
REMARK    7  A    between atoms: C_18  and  C_19
REMARK    8  A    between atoms: C_19  and  N_20
REMARK                            x       y       z     vdW  Elec       q    Type
REMARK                         _______ _______ _______ _____ _____    ______ ____
ROOT
ATOM      1  O   UNL     1      32.639 -14.738 -25.690  0.00  0.00    -0.274 OA
ATOM      2  N   UNL     1      34.319 -15.022 -24.059  0.00  0.00    -0.254 N 
ATOM      3  C   UNL     1      34.252 -14.190 -22.837  0.00  0.00    +0.096 C 
ATOM      4  C   UNL     1      33.027 -13.496 -23.491  0.00  0.00    +0.123 C 
ATOM      5  C   UNL     1      34.156 -15.205 -21.691  0.00  0.00    +0.055 C 
ATOM      6  C   UNL     1      33.236 -14.467 -24.674  0.00  0.00    +0.233 C 
ATOM      7  C   UNL     1      34.448 -16.339 -23.719  0.00  0.00    +0.132 C 
ATOM      8  C   UNL     1      34.388 -16.518 -22.394  0.00  0.00    +0.025 C 
ENDROOT
BRANCH   7  10
ATOM      9  O   UNL     1      34.330 -18.545 -24.600  0.00  0.00    -0.244 OA
ATOM     10  C   UNL     1      34.570 -17.357 -24.758  0.00  0.00    +0.352 C 
BRANCH  10  11
ATOM     11  O   UNL     1      34.984 -16.788 -25.911  0.00  0.00    -0.476 OA
ATOM     12  H   UNL     1      34.378 -16.656 -26.613  0.00  0.00    +0.295 HD
ENDBRANCH  10  11
ENDBRANCH   7  10
BRANCH   4  13
ATOM     13  C   UNL     1      33.157 -12.034 -23.847  0.00  0.00    +0.121 C 
ATOM     14  C   UNL     1      32.453 -11.152 -22.821  0.00  0.00    +0.032 C 
BRANCH  13  15
ATOM     15  O   UNL     1      34.538 -11.679 -23.898  0.00  0.00    -0.384 OA
ATOM     16  H   UNL     1      35.024 -12.341 -24.415  0.00  0.00    +0.210 HD
ENDBRANCH  13  15
ENDBRANCH   4  13
BRANCH   8  17
ATOM     17  S   UNL     1      34.481 -18.002 -21.538  0.00  0.00    -0.114 S 
BRANCH  17  18
ATOM     18  C   UNL     1      36.255 -18.331 -21.660  0.00  0.00    +0.088 C 
BRANCH  18  19
ATOM     19  C   UNL     1      36.655 -19.470 -20.734  0.00  0.00    +0.139 C 
BRANCH  19  20
ATOM     20  N   UNL     1      35.440 -20.136 -20.256  0.00  0.00    -0.253 NA
ATOM     21  N   UNL     1      34.769 -22.127 -19.037  0.00  0.00    -0.341 N 
ATOM     22  C   UNL     1      35.627 -21.236 -19.622  0.00  0.00    +0.152 C 
ATOM     23  H   UNL     1      35.123 -22.929 -18.591  0.00  0.00    +0.144 HD
ATOM     24  H   UNL     1      33.799 -21.964 -19.064  0.00  0.00    +0.144 HD
ENDBRANCH  19  20
ENDBRANCH  18  19
ENDBRANCH  17  18
ENDBRANCH   8  17
TORSDOF 8
ENDMDL
