MODEL 1
REMARK VINA RESULT:      -8.8      0.000      0.000
REMARK  Name = 124969
REMARK  5 active torsions:
REMARK  status: ('A' for Active; 'I' for Inactive)
REMARK    1  A    between atoms: C_1  and  N_3
REMARK    2  A    between atoms: C_1  and  C_8
REMARK    3  A    between atoms: C_1  and  C_13
REMARK    4  A    between atoms: C_8  and  C_12
REMARK    5  A    between atoms: C_13  and  C_14
REMARK                            x       y       z     vdW  Elec       q    Type
REMARK                         _______ _______ _______ _____ _____    ______ ____
ROOT
ATOM      1  C   UNL     1      34.311 -17.401 -21.801  0.00  0.00    +0.142 C 
ENDROOT
BRANCH   1   3
ATOM      2  O   UNL     1      34.342 -18.841 -24.322  0.00  0.00    -0.275 OA
ATOM      3  N   UNL     1      34.576 -16.865 -23.112  0.00  0.00    -0.299 N 
ATOM      4  C   UNL     1      34.569 -17.635 -24.265  0.00  0.00    +0.223 C 
ATOM      5  C   UNL     1      34.852 -16.821 -25.500  0.00  0.00    +0.095 C 
ATOM      6  H   UNL     1      34.771 -15.904 -23.193  0.00  0.00    +0.150 HD
ENDBRANCH   1   3
BRANCH   1   8
ATOM      7  O   UNL     1      35.021 -15.672 -20.271  0.00  0.00    -0.286 OA
ATOM      8  C   UNL     1      34.097 -16.208 -20.883  0.00  0.00    +0.262 C 
BRANCH   8  12
ATOM      9  F   UNL     1      32.286 -15.081 -21.925  0.00  0.00    -0.163 F 
ATOM     10  F   UNL     1      32.575 -14.763 -19.788  0.00  0.00    -0.163 F 
ATOM     11  F   UNL     1      31.801 -16.669 -20.514  0.00  0.00    -0.163 F 
ATOM     12  C   UNL     1      32.694 -15.682 -20.779  0.00  0.00    +0.453 C 
ENDBRANCH   8  12
ENDBRANCH   1   8
BRANCH   1  13
ATOM     13  C   UNL     1      35.457 -18.270 -21.277  0.00  0.00    +0.054 C 
BRANCH  13  14
ATOM     14  C   UNL     1      34.971 -19.558 -20.658  0.00  0.00    -0.020 C 
ATOM     15  C   UNL     1      35.896 -20.462 -20.157  0.00  0.00    -0.004 C 
ATOM     16  C   UNL     1      33.611 -19.816 -20.603  0.00  0.00    -0.004 C 
ATOM     17  C   UNL     1      35.448 -21.652 -19.585  0.00  0.00    -0.000 C 
ATOM     18  C   UNL     1      33.162 -21.007 -20.032  0.00  0.00    -0.000 C 
ATOM     19  C   UNL     1      34.082 -21.925 -19.522  0.00  0.00    -0.000 C 
ENDBRANCH  13  14
ENDBRANCH   1  13
TORSDOF 5
ENDMDL
MODEL 2
REMARK VINA RESULT:      -8.5      2.631      3.737
REMARK  Name = 124969
REMARK  5 active torsions:
REMARK  status: ('A' for Active; 'I' for Inactive)
REMARK    1  A    between atoms: C_1  and  N_3
REMARK    2  A    between atoms: C_1  and  C_8
REMARK    3  A    between atoms: C_1  and  C_13
REMARK    4  A    between atoms: C_8  and  C_12
REMARK    5  A    between atoms: C_13  and  C_14
REMARK                            x       y       z     vdW  Elec       q    Type
REMARK                         _______ _______ _______ _____ _____    ______ ____
ROOT
ATOM      1  C   UNL     1      33.339 -14.572 -23.681  0.00  0.00    +0.142 C 
ENDROOT
BRANCH   1   3
ATOM      2  O   UNL     1      32.874 -15.606 -26.354  0.00  0.00    -0.275 OA
ATOM      3  N   UNL     1      33.366 -13.838 -24.920  0.00  0.00    -0.299 N 
ATOM      4  C   UNL     1      33.130 -14.421 -26.156  0.00  0.00    +0.223 C 
ATOM      5  C   UNL     1      33.194 -13.423 -27.282  0.00  0.00    +0.095 C 
ATOM      6  H   UNL     1      33.561 -12.873 -24.888  0.00  0.00    +0.150 HD
ENDBRANCH   1   3
BRANCH   1   8
ATOM      7  O   UNL     1      32.491 -12.455 -22.885  0.00  0.00    -0.286 OA
ATOM      8  C   UNL     1      32.825 -13.610 -22.621  0.00  0.00    +0.262 C 
BRANCH   8  12
ATOM      9  F   UNL     1      32.087 -15.354 -21.189  0.00  0.00    -0.163 F 
ATOM     10  F   UNL     1      31.998 -13.316 -20.422  0.00  0.00    -0.163 F 
ATOM     11  F   UNL     1      33.924 -14.316 -20.643  0.00  0.00    -0.163 F 
ATOM     12  C   UNL     1      32.709 -14.148 -21.223  0.00  0.00    +0.453 C 
ENDBRANCH   8  12
ENDBRANCH   1   8
BRANCH   1  13
ATOM     13  C   UNL     1      34.715 -15.107 -23.283  0.00  0.00    +0.054 C 
BRANCH  13  14
ATOM     14  C   UNL     1      34.739 -16.611 -23.157  0.00  0.00    -0.020 C 
ATOM     15  C   UNL     1      34.736 -17.188 -21.897  0.00  0.00    -0.004 C 
ATOM     16  C   UNL     1      34.766 -17.389 -24.304  0.00  0.00    -0.004 C 
ATOM     17  C   UNL     1      34.758 -18.577 -21.780  0.00  0.00    -0.000 C 
ATOM     18  C   UNL     1      34.789 -18.779 -24.188  0.00  0.00    -0.000 C 
ATOM     19  C   UNL     1      34.784 -19.373 -22.925  0.00  0.00    -0.000 C 
ENDBRANCH  13  14
ENDBRANCH   1  13
TORSDOF 5
ENDMDL
MODEL 3
REMARK VINA RESULT:      -8.5      2.650      3.828
REMARK  Name = 124969
REMARK  5 active torsions:
REMARK  status: ('A' for Active; 'I' for Inactive)
REMARK    1  A    between atoms: C_1  and  N_3
REMARK    2  A    between atoms: C_1  and  C_8
REMARK    3  A    between atoms: C_1  and  C_13
REMARK    4  A    between atoms: C_8  and  C_12
REMARK    5  A    between atoms: C_13  and  C_14
REMARK                            x       y       z     vdW  Elec       q    Type
REMARK                         _______ _______ _______ _____ _____    ______ ____
ROOT
ATOM      1  C   UNL     1      33.356 -14.541 -23.715  0.00  0.00    +0.142 C 
ENDROOT
BRANCH   1   3
ATOM      2  O   UNL     1      32.878 -15.587 -26.380  0.00  0.00    -0.275 OA
ATOM      3  N   UNL     1      33.345 -13.807 -24.954  0.00  0.00    -0.299 N 
ATOM      4  C   UNL     1      33.106 -14.396 -26.186  0.00  0.00    +0.223 C 
ATOM      5  C   UNL     1      33.126 -13.397 -27.313  0.00  0.00    +0.095 C 
ATOM      6  H   UNL     1      33.515 -12.837 -24.924  0.00  0.00    +0.150 HD
ENDBRANCH   1   3
BRANCH   1   8
ATOM      7  O   UNL     1      32.649 -12.390 -22.872  0.00  0.00    -0.286 OA
ATOM      8  C   UNL     1      32.897 -13.573 -22.635  0.00  0.00    +0.262 C 
BRANCH   8  12
ATOM      9  F   UNL     1      33.908 -14.320 -20.622  0.00  0.00    -0.163 F 
ATOM     10  F   UNL     1      32.100 -15.344 -21.281  0.00  0.00    -0.163 F 
ATOM     11  F   UNL     1      31.975 -13.324 -20.466  0.00  0.00    -0.163 F 
ATOM     12  C   UNL     1      32.721 -14.138 -21.255  0.00  0.00    +0.453 C 
ENDBRANCH   8  12
ENDBRANCH   1   8
BRANCH   1  13
ATOM     13  C   UNL     1      34.741 -15.093 -23.370  0.00  0.00    +0.054 C 
BRANCH  13  14
ATOM     14  C   UNL     1      34.743 -16.594 -23.212  0.00  0.00    -0.020 C 
ATOM     15  C   UNL     1      34.725 -17.397 -24.342  0.00  0.00    -0.004 C 
ATOM     16  C   UNL     1      34.762 -17.144 -21.940  0.00  0.00    -0.004 C 
ATOM     17  C   UNL     1      34.727 -18.784 -24.197  0.00  0.00    -0.000 C 
ATOM     18  C   UNL     1      34.763 -18.531 -21.794  0.00  0.00    -0.000 C 
ATOM     19  C   UNL     1      34.746 -19.351 -22.923  0.00  0.00    -0.000 C 
ENDBRANCH  13  14
ENDBRANCH   1  13
TORSDOF 5
ENDMDL
MODEL 4
REMARK VINA RESULT:      -8.2      1.888      3.481
REMARK  Name = 124969
REMARK  5 active torsions:
REMARK  status: ('A' for Active; 'I' for Inactive)
REMARK    1  A    between atoms: C_1  and  N_3
REMARK    2  A    between atoms: C_1  and  C_8
REMARK    3  A    between atoms: C_1  and  C_13
REMARK    4  A    between atoms: C_8  and  C_12
REMARK    5  A    between atoms: C_13  and  C_14
REMARK                            x       y       z     vdW  Elec       q    Type
REMARK                         _______ _______ _______ _____ _____    ______ ____
ROOT
ATOM      1  C   UNL     1      34.462 -17.943 -22.070  0.00  0.00    +0.142 C 
ENDROOT
BRANCH   1   3
ATOM      2  O   UNL     1      35.096 -16.026 -19.983  0.00  0.00    -0.275 OA
ATOM      3  N   UNL     1      33.818 -16.680 -21.817  0.00  0.00    -0.299 N 
ATOM      4  C   UNL     1      34.192 -15.825 -20.791  0.00  0.00    +0.223 C 
ATOM      5  C   UNL     1      33.372 -14.563 -20.768  0.00  0.00    +0.095 C 
ATOM      6  H   UNL     1      33.075 -16.408 -22.404  0.00  0.00    +0.150 HD
ENDBRANCH   1   3
BRANCH   1   8
ATOM      7  O   UNL     1      34.653 -19.122 -24.170  0.00  0.00    -0.286 OA
ATOM      8  C   UNL     1      34.641 -18.043 -23.577  0.00  0.00    +0.262 C 
BRANCH   8  12
ATOM      9  F   UNL     1      35.233 -16.930 -25.588  0.00  0.00    -0.163 F 
ATOM     10  F   UNL     1      35.626 -15.894 -23.711  0.00  0.00    -0.163 F 
ATOM     11  F   UNL     1      33.579 -16.105 -24.434  0.00  0.00    -0.163 F 
ATOM     12  C   UNL     1      34.769 -16.747 -24.326  0.00  0.00    +0.453 C 
ENDBRANCH   8  12
ENDBRANCH   1   8
BRANCH   1  13
ATOM     13  C   UNL     1      33.647 -19.132 -21.557  0.00  0.00    +0.054 C 
BRANCH  13  14
ATOM     14  C   UNL     1      34.456 -20.051 -20.673  0.00  0.00    -0.020 C 
ATOM     15  C   UNL     1      35.837 -19.936 -20.656  0.00  0.00    -0.004 C 
ATOM     16  C   UNL     1      33.803 -20.995 -19.897  0.00  0.00    -0.004 C 
ATOM     17  C   UNL     1      36.585 -20.785 -19.840  0.00  0.00    -0.000 C 
ATOM     18  C   UNL     1      34.551 -21.845 -19.081  0.00  0.00    -0.000 C 
ATOM     19  C   UNL     1      35.942 -21.739 -19.053  0.00  0.00    -0.000 C 
ENDBRANCH  13  14
ENDBRANCH   1  13
TORSDOF 5
ENDMDL
MODEL 5
REMARK VINA RESULT:      -8.1      2.909      5.481
REMARK  Name = 124969
REMARK  5 active torsions:
REMARK  status: ('A' for Active; 'I' for Inactive)
REMARK    1  A    between atoms: C_1  and  N_3
REMARK    2  A    between atoms: C_1  and  C_8
REMARK    3  A    between atoms: C_1  and  C_13
REMARK    4  A    between atoms: C_8  and  C_12
REMARK    5  A    between atoms: C_13  and  C_14
REMARK                            x       y       z     vdW  Elec       q    Type
REMARK                         _______ _______ _______ _____ _____    ______ ____
ROOT
ATOM      1  C   UNL     1      34.534 -18.230 -21.545  0.00  0.00    +0.142 C 
ENDROOT
BRANCH   1   3
ATOM      2  O   UNL     1      32.491 -20.213 -20.976  0.00  0.00    -0.275 OA
ATOM      3  N   UNL     1      34.638 -19.366 -20.666  0.00  0.00    -0.299 N 
ATOM      4  C   UNL     1      33.602 -20.264 -20.456  0.00  0.00    +0.223 C 
ATOM      5  C   UNL     1      33.986 -21.371 -19.510  0.00  0.00    +0.095 C 
ATOM      6  H   UNL     1      35.488 -19.513 -20.191  0.00  0.00    +0.150 HD
ENDBRANCH   1   3
BRANCH   1   8
ATOM      7  O   UNL     1      36.706 -18.500 -22.568  0.00  0.00    -0.286 OA
ATOM      8  C   UNL     1      35.483 -18.494 -22.705  0.00  0.00    +0.262 C 
BRANCH   8  12
ATOM      9  F   UNL     1      35.227 -19.995 -24.526  0.00  0.00    -0.163 F 
ATOM     10  F   UNL     1      35.194 -17.861 -24.968  0.00  0.00    -0.163 F 
ATOM     11  F   UNL     1      33.497 -18.795 -23.965  0.00  0.00    -0.163 F 
ATOM     12  C   UNL     1      34.852 -18.787 -24.037  0.00  0.00    +0.453 C 
ENDBRANCH   8  12
ENDBRANCH   1   8
BRANCH   1  13
ATOM     13  C   UNL     1      34.901 -16.915 -20.855  0.00  0.00    +0.054 C 
BRANCH  13  14
ATOM     14  C   UNL     1      34.161 -15.732 -21.430  0.00  0.00    -0.020 C 
ATOM     15  C   UNL     1      34.583 -15.185 -22.632  0.00  0.00    -0.004 C 
ATOM     16  C   UNL     1      33.074 -15.212 -20.746  0.00  0.00    -0.004 C 
ATOM     17  C   UNL     1      33.900 -14.092 -23.164  0.00  0.00    -0.000 C 
ATOM     18  C   UNL     1      32.390 -14.118 -21.277  0.00  0.00    -0.000 C 
ATOM     19  C   UNL     1      32.804 -13.558 -22.487  0.00  0.00    -0.000 C 
ENDBRANCH  13  14
ENDBRANCH   1  13
TORSDOF 5
ENDMDL
MODEL 6
REMARK VINA RESULT:      -7.9      7.525     10.416
REMARK  Name = 124969
REMARK  5 active torsions:
REMARK  status: ('A' for Active; 'I' for Inactive)
REMARK    1  A    between atoms: C_1  and  N_3
REMARK    2  A    between atoms: C_1  and  C_8
REMARK    3  A    between atoms: C_1  and  C_13
REMARK    4  A    between atoms: C_8  and  C_12
REMARK    5  A    between atoms: C_13  and  C_14
REMARK                            x       y       z     vdW  Elec       q    Type
REMARK                         _______ _______ _______ _____ _____    ______ ____
ROOT
ATOM      1  C   UNL     1      32.427  -9.974 -22.763  0.00  0.00    +0.142 C 
ENDROOT
BRANCH   1   3
ATOM      2  O   UNL     1      34.859  -8.562 -23.487  0.00  0.00    -0.275 OA
ATOM      3  N   UNL     1      33.345 -10.300 -23.823  0.00  0.00    -0.299 N 
ATOM      4  C   UNL     1      34.488  -9.563 -24.095  0.00  0.00    +0.223 C 
ATOM      5  C   UNL     1      35.283 -10.137 -25.238  0.00  0.00    +0.095 C 
ATOM      6  H   UNL     1      33.153 -11.088 -24.382  0.00  0.00    +0.150 HD
ENDBRANCH   1   3
BRANCH   1   8
ATOM      7  O   UNL     1      32.207 -12.378 -22.681  0.00  0.00    -0.286 OA
ATOM      8  C   UNL     1      32.007 -11.293 -22.134  0.00  0.00    +0.262 C 
BRANCH   8  12
ATOM      9  F   UNL     1      30.007 -11.321 -20.854  0.00  0.00    -0.163 F 
ATOM     10  F   UNL     1      31.630 -10.043 -20.159  0.00  0.00    -0.163 F 
ATOM     11  F   UNL     1      31.785 -12.210 -19.959  0.00  0.00    -0.163 F 
ATOM     12  C   UNL     1      31.358 -11.218 -20.781  0.00  0.00    +0.453 C 
ENDBRANCH   8  12
ENDBRANCH   1   8
BRANCH   1  13
ATOM     13  C   UNL     1      31.197  -9.214 -23.263  0.00  0.00    +0.054 C 
BRANCH  13  14
ATOM     14  C   UNL     1      31.344  -7.718 -23.127  0.00  0.00    -0.020 C 
ATOM     15  C   UNL     1      31.066  -6.906 -24.216  0.00  0.00    -0.004 C 
ATOM     16  C   UNL     1      31.758  -7.182 -21.918  0.00  0.00    -0.004 C 
ATOM     17  C   UNL     1      31.202  -5.523 -24.091  0.00  0.00    -0.000 C 
ATOM     18  C   UNL     1      31.895  -5.799 -21.793  0.00  0.00    -0.000 C 
ATOM     19  C   UNL     1      31.617  -4.970 -22.880  0.00  0.00    -0.000 C 
ENDBRANCH  13  14
ENDBRANCH   1  13
TORSDOF 5
ENDMDL
MODEL 7
REMARK VINA RESULT:      -7.7      2.001      2.714
REMARK  Name = 124969
REMARK  5 active torsions:
REMARK  status: ('A' for Active; 'I' for Inactive)
REMARK    1  A    between atoms: C_1  and  N_3
REMARK    2  A    between atoms: C_1  and  C_8
REMARK    3  A    between atoms: C_1  and  C_13
REMARK    4  A    between atoms: C_8  and  C_12
REMARK    5  A    between atoms: C_13  and  C_14
REMARK                            x       y       z     vdW  Elec       q    Type
REMARK                         _______ _______ _______ _____ _____    ______ ____
ROOT
ATOM      1  C   UNL     1      34.170 -15.743 -22.573  0.00  0.00    +0.142 C 
ENDROOT
BRANCH   1   3
ATOM      2  O   UNL     1      32.590 -14.449 -24.637  0.00  0.00    -0.275 OA
ATOM      3  N   UNL     1      34.403 -14.456 -23.175  0.00  0.00    -0.299 N 
ATOM      4  C   UNL     1      33.589 -13.916 -24.160  0.00  0.00    +0.223 C 
ATOM      5  C   UNL     1      34.044 -12.549 -24.595  0.00  0.00    +0.095 C 
ATOM      6  H   UNL     1      35.179 -13.931 -22.871  0.00  0.00    +0.150 HD
ENDBRANCH   1   3
BRANCH   1   8
ATOM      7  O   UNL     1      34.909 -15.396 -20.300  0.00  0.00    -0.286 OA
ATOM      8  C   UNL     1      33.968 -15.494 -21.087  0.00  0.00    +0.262 C 
BRANCH   8  12
ATOM      9  F   UNL     1      31.894 -16.523 -20.561  0.00  0.00    -0.163 F 
ATOM     10  F   UNL     1      31.834 -14.532 -21.443  0.00  0.00    -0.163 F 
ATOM     11  F   UNL     1      32.484 -14.791 -19.377  0.00  0.00    -0.163 F 
ATOM     12  C   UNL     1      32.549 -15.336 -20.618  0.00  0.00    +0.453 C 
ENDBRANCH   8  12
ENDBRANCH   1   8
BRANCH   1  13
ATOM     13  C   UNL     1      35.332 -16.714 -22.790  0.00  0.00    +0.054 C 
BRANCH  13  14
ATOM     14  C   UNL     1      35.179 -17.989 -21.998  0.00  0.00    -0.020 C 
ATOM     15  C   UNL     1      33.934 -18.595 -21.919  0.00  0.00    -0.004 C 
ATOM     16  C   UNL     1      36.284 -18.531 -21.360  0.00  0.00    -0.004 C 
ATOM     17  C   UNL     1      33.792 -19.773 -21.187  0.00  0.00    -0.000 C 
ATOM     18  C   UNL     1      36.141 -19.709 -20.626  0.00  0.00    -0.000 C 
ATOM     19  C   UNL     1      34.895 -20.330 -20.540  0.00  0.00    -0.000 C 
ENDBRANCH  13  14
ENDBRANCH   1  13
TORSDOF 5
ENDMDL
MODEL 8
REMARK VINA RESULT:      -7.7      3.781      6.566
REMARK  Name = 124969
REMARK  5 active torsions:
REMARK  status: ('A' for Active; 'I' for Inactive)
REMARK    1  A    between atoms: C_1  and  N_3
REMARK    2  A    between atoms: C_1  and  C_8
REMARK    3  A    between atoms: C_1  and  C_13
REMARK    4  A    between atoms: C_8  and  C_12
REMARK    5  A    between atoms: C_13  and  C_14
REMARK                            x       y       z     vdW  Elec       q    Type
REMARK                         _______ _______ _______ _____ _____    ______ ____
ROOT
ATOM      1  C   UNL     1      33.570 -13.997 -22.973  0.00  0.00    +0.142 C 
ENDROOT
BRANCH   1   3
ATOM      2  O   UNL     1      33.899 -12.062 -25.113  0.00  0.00    -0.275 OA
ATOM      3  N   UNL     1      33.287 -14.184 -24.372  0.00  0.00    -0.299 N 
ATOM      4  C   UNL     1      33.476 -13.195 -25.327  0.00  0.00    +0.223 C 
ATOM      5  C   UNL     1      33.126 -13.663 -26.714  0.00  0.00    +0.095 C 
ATOM      6  H   UNL     1      32.941 -15.058 -24.666  0.00  0.00    +0.150 HD
ENDBRANCH   1   3
BRANCH   1   8
ATOM      7  O   UNL     1      35.224 -15.715 -23.357  0.00  0.00    -0.286 OA
ATOM      8  C   UNL     1      34.481 -15.143 -22.560  0.00  0.00    +0.262 C 
BRANCH   8  12
ATOM      9  F   UNL     1      34.817 -14.504 -20.299  0.00  0.00    -0.163 F 
ATOM     10  F   UNL     1      35.311 -16.554 -20.850  0.00  0.00    -0.163 F 
ATOM     11  F   UNL     1      33.225 -15.934 -20.712  0.00  0.00    -0.163 F 
ATOM     12  C   UNL     1      34.458 -15.532 -21.109  0.00  0.00    +0.453 C 
ENDBRANCH   8  12
ENDBRANCH   1   8
BRANCH   1  13
ATOM     13  C   UNL     1      32.306 -13.993 -22.111  0.00  0.00    +0.054 C 
BRANCH  13  14
ATOM     14  C   UNL     1      32.021 -12.640 -21.506  0.00  0.00    -0.020 C 
ATOM     15  C   UNL     1      31.913 -12.520 -20.128  0.00  0.00    -0.004 C 
ATOM     16  C   UNL     1      31.870 -11.541 -22.337  0.00  0.00    -0.004 C 
ATOM     17  C   UNL     1      31.650 -11.270 -19.569  0.00  0.00    -0.000 C 
ATOM     18  C   UNL     1      31.606 -10.291 -21.778  0.00  0.00    -0.000 C 
ATOM     19  C   UNL     1      31.496 -10.156 -20.393  0.00  0.00    -0.000 C 
ENDBRANCH  13  14
ENDBRANCH   1  13
TORSDOF 5
ENDMDL
MODEL 9
REMARK VINA RESULT:      -7.6      5.875      7.951
REMARK  Name = 124969
REMARK  5 active torsions:
REMARK  status: ('A' for Active; 'I' for Inactive)
REMARK    1  A    between atoms: C_1  and  N_3
REMARK    2  A    between atoms: C_1  and  C_8
REMARK    3  A    between atoms: C_1  and  C_13
REMARK    4  A    between atoms: C_8  and  C_12
REMARK    5  A    between atoms: C_13  and  C_14
REMARK                            x       y       z     vdW  Elec       q    Type
REMARK                         _______ _______ _______ _____ _____    ______ ____
ROOT
ATOM      1  C   UNL     1      33.388 -22.915 -16.873  0.00  0.00    +0.142 C 
ENDROOT
BRANCH   1   3
ATOM      2  O   UNL     1      36.196 -23.183 -16.186  0.00  0.00    -0.275 OA
ATOM      3  N   UNL     1      33.987 -23.901 -16.011  0.00  0.00    -0.299 N 
ATOM      4  C   UNL     1      35.347 -23.950 -15.740  0.00  0.00    +0.223 C 
ATOM      5  C   UNL     1      35.702 -25.062 -14.789  0.00  0.00    +0.095 C 
ATOM      6  H   UNL     1      33.402 -24.573 -15.592  0.00  0.00    +0.150 HD
ENDBRANCH   1   3
BRANCH   1   8
ATOM      7  O   UNL     1      31.033 -22.648 -17.341  0.00  0.00    -0.286 OA
ATOM      8  C   UNL     1      31.913 -22.861 -16.507  0.00  0.00    +0.262 C 
BRANCH   8  12
ATOM      9  F   UNL     1      31.503 -24.443 -14.785  0.00  0.00    -0.163 F 
ATOM     10  F   UNL     1      30.363 -22.586 -14.738  0.00  0.00    -0.163 F 
ATOM     11  F   UNL     1      32.483 -22.580 -14.223  0.00  0.00    -0.163 F 
ATOM     12  C   UNL     1      31.567 -23.118 -15.067  0.00  0.00    +0.453 C 
ENDBRANCH   8  12
ENDBRANCH   1   8
BRANCH   1  13
ATOM     13  C   UNL     1      33.549 -23.254 -18.356  0.00  0.00    +0.054 C 
BRANCH  13  14
ATOM     14  C   UNL     1      34.061 -22.087 -19.165  0.00  0.00    -0.020 C 
ATOM     15  C   UNL     1      35.429 -21.907 -19.309  0.00  0.00    -0.004 C 
ATOM     16  C   UNL     1      33.157 -21.214 -19.748  0.00  0.00    -0.004 C 
ATOM     17  C   UNL     1      35.903 -20.830 -20.056  0.00  0.00    -0.000 C 
ATOM     18  C   UNL     1      33.630 -20.135 -20.495  0.00  0.00    -0.000 C 
ATOM     19  C   UNL     1      35.004 -19.943 -20.649  0.00  0.00    -0.000 C 
ENDBRANCH  13  14
ENDBRANCH   1  13
TORSDOF 5
ENDMDL
