MODEL 1
REMARK VINA RESULT:      -3.5      0.000      0.000
REMARK  Name = 946
REMARK  0 active torsions:
REMARK  status: ('A' for Active; 'I' for Inactive)
REMARK                            x       y       z     vdW  Elec       q    Type
REMARK                         _______ _______ _______ _____ _____    ______ ____
ROOT
ATOM      1  O   UNL     1      25.569 -21.815 -16.373  0.00  0.00    -0.067 OA
ATOM      2  O   UNL     1      26.186 -20.343 -17.985  0.00  0.00    -0.067 OA
ATOM      3  N   UNL     1      26.527 -21.473 -17.358  0.00  0.00    +0.134 NA
ENDROOT
TORSDOF 0
ENDMDL
MODEL 2
REMARK VINA RESULT:      -3.5      0.046      1.852
REMARK  Name = 946
REMARK  0 active torsions:
REMARK  status: ('A' for Active; 'I' for Inactive)
REMARK                            x       y       z     vdW  Elec       q    Type
REMARK                         _______ _______ _______ _____ _____    ______ ____
ROOT
ATOM      1  O   UNL     1      26.183 -20.306 -17.983  0.00  0.00    -0.067 OA
ATOM      2  O   UNL     1      25.570 -21.806 -16.396  0.00  0.00    -0.067 OA
ATOM      3  N   UNL     1      26.502 -21.509 -17.308  0.00  0.00    +0.134 NA
ENDROOT
TORSDOF 0
ENDMDL
MODEL 3
REMARK VINA RESULT:      -3.3     15.941     15.944
REMARK  Name = 946
REMARK  0 active torsions:
REMARK  status: ('A' for Active; 'I' for Inactive)
REMARK                            x       y       z     vdW  Elec       q    Type
REMARK                         _______ _______ _______ _____ _____    ______ ____
ROOT
ATOM      1  O   UNL     1      41.356 -26.938 -14.040  0.00  0.00    -0.067 OA
ATOM      2  O   UNL     1      41.020 -24.791 -14.692  0.00  0.00    -0.067 OA
ATOM      3  N   UNL     1      40.826 -26.071 -15.026  0.00  0.00    +0.134 NA
ENDROOT
TORSDOF 0
ENDMDL
MODEL 4
REMARK VINA RESULT:      -3.3     15.925     16.011
REMARK  Name = 946
REMARK  0 active torsions:
REMARK  status: ('A' for Active; 'I' for Inactive)
REMARK                            x       y       z     vdW  Elec       q    Type
REMARK                         _______ _______ _______ _____ _____    ______ ____
ROOT
ATOM      1  O   UNL     1      41.008 -24.757 -14.684  0.00  0.00    -0.067 OA
ATOM      2  O   UNL     1      41.331 -26.913 -14.057  0.00  0.00    -0.067 OA
ATOM      3  N   UNL     1      40.810 -26.123 -15.001  0.00  0.00    +0.134 NA
ENDROOT
TORSDOF 0
ENDMDL
MODEL 5
REMARK VINA RESULT:      -3.3     12.360     12.510
REMARK  Name = 946
REMARK  0 active torsions:
REMARK  status: ('A' for Active; 'I' for Inactive)
REMARK                            x       y       z     vdW  Elec       q    Type
REMARK                         _______ _______ _______ _____ _____    ______ ____
ROOT
ATOM      1  O   UNL     1      36.208 -25.552 -11.508  0.00  0.00    -0.067 OA
ATOM      2  O   UNL     1      36.052 -24.187  -9.704  0.00  0.00    -0.067 OA
ATOM      3  N   UNL     1      35.373 -25.024 -10.495  0.00  0.00    +0.134 NA
ENDROOT
TORSDOF 0
ENDMDL
MODEL 6
REMARK VINA RESULT:      -3.2     12.496     12.701
REMARK  Name = 946
REMARK  0 active torsions:
REMARK  status: ('A' for Active; 'I' for Inactive)
REMARK                            x       y       z     vdW  Elec       q    Type
REMARK                         _______ _______ _______ _____ _____    ______ ____
ROOT
ATOM      1  O   UNL     1      35.244 -25.137 -10.310  0.00  0.00    -0.067 OA
ATOM      2  O   UNL     1      37.219 -24.156 -10.842  0.00  0.00    -0.067 OA
ATOM      3  N   UNL     1      36.201 -24.148  -9.976  0.00  0.00    +0.134 NA
ENDROOT
TORSDOF 0
ENDMDL
MODEL 7
REMARK VINA RESULT:      -3.2      1.497      1.930
REMARK  Name = 946
REMARK  0 active torsions:
REMARK  status: ('A' for Active; 'I' for Inactive)
REMARK                            x       y       z     vdW  Elec       q    Type
REMARK                         _______ _______ _______ _____ _____    ______ ____
ROOT
ATOM      1  O   UNL     1      26.121 -20.195 -17.877  0.00  0.00    -0.067 OA
ATOM      2  O   UNL     1      25.572 -21.440 -19.691  0.00  0.00    -0.067 OA
ATOM      3  N   UNL     1      26.271 -21.430 -18.552  0.00  0.00    +0.134 NA
ENDROOT
TORSDOF 0
ENDMDL
MODEL 8
REMARK VINA RESULT:      -3.1      2.776      2.776
REMARK  Name = 946
REMARK  0 active torsions:
REMARK  status: ('A' for Active; 'I' for Inactive)
REMARK                            x       y       z     vdW  Elec       q    Type
REMARK                         _______ _______ _______ _____ _____    ______ ____
ROOT
ATOM      1  O   UNL     1      27.777 -24.248 -17.469  0.00  0.00    -0.067 OA
ATOM      2  O   UNL     1      28.249 -22.051 -17.165  0.00  0.00    -0.067 OA
ATOM      3  N   UNL     1      27.499 -22.915 -17.856  0.00  0.00    +0.134 NA
ENDROOT
TORSDOF 0
ENDMDL
MODEL 9
REMARK VINA RESULT:      -3.0     13.122     13.223
REMARK  Name = 946
REMARK  0 active torsions:
REMARK  status: ('A' for Active; 'I' for Inactive)
REMARK                            x       y       z     vdW  Elec       q    Type
REMARK                         _______ _______ _______ _____ _____    ______ ____
ROOT
ATOM      1  O   UNL     1      36.829 -23.873 -10.468  0.00  0.00    -0.067 OA
ATOM      2  O   UNL     1      38.589 -23.036 -11.630  0.00  0.00    -0.067 OA
ATOM      3  N   UNL     1      37.359 -22.769 -11.179  0.00  0.00    +0.134 NA
ENDROOT
TORSDOF 0
ENDMDL
