MODEL 1
REMARK VINA RESULT:      -7.6      0.000      0.000
REMARK  Name = 51040949
REMARK  6 active torsions:
REMARK  status: ('A' for Active; 'I' for Inactive)
REMARK    1  A    between atoms: N_1  and  C_23
REMARK    2  A    between atoms: C_2  and  C_16
REMARK    3  A    between atoms: C_10  and  O_21
REMARK    4  A    between atoms: N_15  and  C_17
REMARK    5  A    between atoms: N_15  and  C_19
REMARK    6  A    between atoms: C_23  and  C_25
REMARK                            x       y       z     vdW  Elec       q    Type
REMARK                         _______ _______ _______ _____ _____    ______ ____
ROOT
ATOM      1  N   UNL     1      33.075 -12.295 -23.850  0.00  0.00    -0.328 N 
ATOM      2  C   UNL     1      32.407  -9.333 -21.811  0.00  0.00    +0.100 C 
ATOM      3  C   UNL     1      32.882 -10.327 -22.818  0.00  0.00    +0.002 A 
ATOM      4  C   UNL     1      32.476 -11.646 -22.808  0.00  0.00    +0.034 A 
ATOM      5  C   UNL     1      31.701 -10.025 -20.621  0.00  0.00    +0.014 C 
ATOM      6  C   UNL     1      31.569 -12.284 -21.821  0.00  0.00    +0.044 C 
ATOM      7  C   UNL     1      30.797 -11.200 -21.049  0.00  0.00    +0.007 C 
ATOM      8  C   UNL     1      33.778 -10.170 -23.917  0.00  0.00    +0.047 A 
ATOM      9  C   UNL     1      33.877 -11.416 -24.545  0.00  0.00    +0.062 A 
ATOM     10  C   UNL     1      34.514  -9.089 -24.442  0.00  0.00    +0.140 C 
ATOM     11  C   UNL     1      34.679 -11.631 -25.674  0.00  0.00    +0.017 C 
ATOM     12  C   UNL     1      35.319  -9.290 -25.568  0.00  0.00    +0.037 C 
ATOM     13  C   UNL     1      35.399 -10.542 -26.173  0.00  0.00    +0.005 C 
ENDROOT
BRANCH   2  16
ATOM     14  O   UNL     1      30.621  -8.773 -23.250  0.00  0.00    -0.275 OA
ATOM     15  N   UNL     1      31.644  -7.012 -22.129  0.00  0.00    -0.279 N 
ATOM     16  C   UNL     1      31.476  -8.356 -22.464  0.00  0.00    +0.229 C 
BRANCH  15  17
ATOM     17  C   UNL     1      30.808  -5.959 -22.690  0.00  0.00    +0.093 C 
ATOM     18  C   UNL     1      31.603  -4.695 -22.942  0.00  0.00    +0.023 C 
ENDBRANCH  15  17
BRANCH  15  19
ATOM     19  C   UNL     1      32.670  -6.563 -21.192  0.00  0.00    +0.093 C 
ATOM     20  C   UNL     1      32.165  -6.582 -19.763  0.00  0.00    +0.023 C 
ENDBRANCH  15  19
ENDBRANCH   2  16
BRANCH  10  21
ATOM     21  O   UNL     1      34.468  -7.842 -23.875  0.00  0.00    -0.471 OA
ATOM     22  C   UNL     1      34.205  -6.751 -24.750  0.00  0.00    +0.252 C 
ENDBRANCH  10  21
BRANCH   1  23
ATOM     23  C   UNL     1      32.909 -13.697 -24.170  0.00  0.00    +0.144 C 
BRANCH  23  25
ATOM     24  F   UNL     1      34.569 -13.937 -22.523  0.00  0.00    -0.232 F 
ATOM     25  C   UNL     1      34.051 -14.540 -23.626  0.00  0.00    +0.218 C 
ENDBRANCH  23  25
ENDBRANCH   1  23
TORSDOF 6
ENDMDL
MODEL 2
REMARK VINA RESULT:      -7.4     12.904     16.483
REMARK  Name = 51040949
REMARK  6 active torsions:
REMARK  status: ('A' for Active; 'I' for Inactive)
REMARK    1  A    between atoms: N_1  and  C_23
REMARK    2  A    between atoms: C_2  and  C_16
REMARK    3  A    between atoms: C_10  and  O_21
REMARK    4  A    between atoms: N_15  and  C_17
REMARK    5  A    between atoms: N_15  and  C_19
REMARK    6  A    between atoms: C_23  and  C_25
REMARK                            x       y       z     vdW  Elec       q    Type
REMARK                         _______ _______ _______ _____ _____    ______ ____
ROOT
ATOM      1  N   UNL     1      33.783 -22.585 -17.975  0.00  0.00    -0.328 N 
ATOM      2  C   UNL     1      36.157 -22.649 -15.194  0.00  0.00    +0.100 C 
ATOM      3  C   UNL     1      34.964 -22.724 -16.089  0.00  0.00    +0.002 A 
ATOM      4  C   UNL     1      35.025 -22.417 -17.433  0.00  0.00    +0.034 A 
ATOM      5  C   UNL     1      37.327 -21.898 -15.870  0.00  0.00    +0.014 C 
ATOM      6  C   UNL     1      36.219 -21.946 -18.179  0.00  0.00    +0.044 C 
ATOM      7  C   UNL     1      37.490 -22.244 -17.365  0.00  0.00    +0.007 C 
ATOM      8  C   UNL     1      33.616 -23.090 -15.800  0.00  0.00    +0.047 A 
ATOM      9  C   UNL     1      32.901 -22.996 -16.999  0.00  0.00    +0.062 A 
ATOM     10  C   UNL     1      32.932 -23.494 -14.636  0.00  0.00    +0.140 C 
ATOM     11  C   UNL     1      31.534 -23.289 -17.087  0.00  0.00    +0.017 C 
ATOM     12  C   UNL     1      31.567 -23.788 -14.710  0.00  0.00    +0.037 C 
ATOM     13  C   UNL     1      30.880 -23.687 -15.917  0.00  0.00    +0.005 C 
ENDROOT
BRANCH   2  16
ATOM     14  O   UNL     1      36.453 -24.953 -15.619  0.00  0.00    -0.275 OA
ATOM     15  N   UNL     1      37.125 -24.187 -13.529  0.00  0.00    -0.279 N 
ATOM     16  C   UNL     1      36.588 -24.032 -14.808  0.00  0.00    +0.229 C 
BRANCH  15  17
ATOM     17  C   UNL     1      37.582 -25.475 -13.027  0.00  0.00    +0.093 C 
ATOM     18  C   UNL     1      39.037 -25.720 -13.369  0.00  0.00    +0.023 C 
ENDBRANCH  15  17
BRANCH  15  19
ATOM     19  C   UNL     1      37.266 -23.068 -12.601  0.00  0.00    +0.093 C 
ATOM     20  C   UNL     1      36.704 -23.404 -11.235  0.00  0.00    +0.023 C 
ENDBRANCH  15  19
ENDBRANCH   2  16
BRANCH  10  21
ATOM     21  O   UNL     1      33.568 -23.603 -13.427  0.00  0.00    -0.471 OA
ATOM     22  C   UNL     1      33.719 -24.916 -12.899  0.00  0.00    +0.252 C 
ENDBRANCH  10  21
BRANCH   1  23
ATOM     23  C   UNL     1      33.436 -22.352 -19.361  0.00  0.00    +0.144 C 
BRANCH  23  25
ATOM     24  F   UNL     1      34.128 -20.254 -20.164  0.00  0.00    -0.232 F 
ATOM     25  C   UNL     1      33.065 -20.900 -19.614  0.00  0.00    +0.218 C 
ENDBRANCH  23  25
ENDBRANCH   1  23
TORSDOF 6
ENDMDL
MODEL 3
REMARK VINA RESULT:      -7.2      3.822      7.530
REMARK  Name = 51040949
REMARK  6 active torsions:
REMARK  status: ('A' for Active; 'I' for Inactive)
REMARK    1  A    between atoms: N_1  and  C_23
REMARK    2  A    between atoms: C_2  and  C_16
REMARK    3  A    between atoms: C_10  and  O_21
REMARK    4  A    between atoms: N_15  and  C_17
REMARK    5  A    between atoms: N_15  and  C_19
REMARK    6  A    between atoms: C_23  and  C_25
REMARK                            x       y       z     vdW  Elec       q    Type
REMARK                         _______ _______ _______ _____ _____    ______ ____
ROOT
ATOM      1  N   UNL     1      32.770 -12.296 -23.375  0.00  0.00    -0.328 N 
ATOM      2  C   UNL     1      32.904 -15.657 -21.940  0.00  0.00    +0.100 C 
ATOM      3  C   UNL     1      32.922 -14.450 -22.817  0.00  0.00    +0.002 A 
ATOM      4  C   UNL     1      32.677 -13.179 -22.338  0.00  0.00    +0.034 A 
ATOM      5  C   UNL     1      32.276 -15.345 -20.560  0.00  0.00    +0.014 C 
ATOM      6  C   UNL     1      32.334 -12.813 -20.940  0.00  0.00    +0.044 C 
ATOM      7  C   UNL     1      32.697 -13.973 -19.996  0.00  0.00    +0.007 C 
ATOM      8  C   UNL     1      33.168 -14.332 -24.218  0.00  0.00    +0.047 A 
ATOM      9  C   UNL     1      33.069 -12.974 -24.537  0.00  0.00    +0.062 A 
ATOM     10  C   UNL     1      33.468 -15.247 -25.247  0.00  0.00    +0.140 C 
ATOM     11  C   UNL     1      33.256 -12.489 -25.838  0.00  0.00    +0.017 C 
ATOM     12  C   UNL     1      33.656 -14.776 -26.550  0.00  0.00    +0.037 C 
ATOM     13  C   UNL     1      33.552 -13.418 -26.839  0.00  0.00    +0.005 C 
ENDROOT
BRANCH   2  16
ATOM     14  O   UNL     1      35.251 -15.402 -21.895  0.00  0.00    -0.275 OA
ATOM     15  N   UNL     1      34.428 -17.531 -21.457  0.00  0.00    -0.279 N 
ATOM     16  C   UNL     1      34.299 -16.177 -21.764  0.00  0.00    +0.229 C 
BRANCH  15  17
ATOM     17  C   UNL     1      35.725 -18.165 -21.261  0.00  0.00    +0.093 C 
ATOM     18  C   UNL     1      36.393 -18.484 -22.582  0.00  0.00    +0.023 C 
ENDBRANCH  15  17
BRANCH  15  19
ATOM     19  C   UNL     1      33.273 -18.413 -21.310  0.00  0.00    +0.093 C 
ATOM     20  C   UNL     1      33.663 -19.744 -20.703  0.00  0.00    +0.023 C 
ENDBRANCH  15  19
ENDBRANCH   2  16
BRANCH  10  21
ATOM     21  O   UNL     1      33.576 -16.592 -25.006  0.00  0.00    -0.471 OA
ATOM     22  C   UNL     1      34.820 -17.202 -25.330  0.00  0.00    +0.252 C 
ENDBRANCH  10  21
BRANCH   1  23
ATOM     23  C   UNL     1      32.568 -10.866 -23.277  0.00  0.00    +0.144 C 
BRANCH  23  25
ATOM     24  F   UNL     1      33.800  -8.872 -23.094  0.00  0.00    -0.232 F 
ATOM     25  C   UNL     1      33.805 -10.090 -23.699  0.00  0.00    +0.218 C 
ENDBRANCH  23  25
ENDBRANCH   1  23
TORSDOF 6
ENDMDL
MODEL 4
REMARK VINA RESULT:      -6.9      1.422      2.074
REMARK  Name = 51040949
REMARK  6 active torsions:
REMARK  status: ('A' for Active; 'I' for Inactive)
REMARK    1  A    between atoms: N_1  and  C_23
REMARK    2  A    between atoms: C_2  and  C_16
REMARK    3  A    between atoms: C_10  and  O_21
REMARK    4  A    between atoms: N_15  and  C_17
REMARK    5  A    between atoms: N_15  and  C_19
REMARK    6  A    between atoms: C_23  and  C_25
REMARK                            x       y       z     vdW  Elec       q    Type
REMARK                         _______ _______ _______ _____ _____    ______ ____
ROOT
ATOM      1  N   UNL     1      32.339 -13.268 -21.856  0.00  0.00    -0.328 N 
ATOM      2  C   UNL     1      32.411  -9.618 -21.651  0.00  0.00    +0.100 C 
ATOM      3  C   UNL     1      32.521 -11.054 -22.044  0.00  0.00    +0.002 A 
ATOM      4  C   UNL     1      32.117 -12.082 -21.217  0.00  0.00    +0.034 A 
ATOM      5  C   UNL     1      32.114  -9.464 -20.141  0.00  0.00    +0.014 C 
ATOM      6  C   UNL     1      31.566 -11.948 -19.845  0.00  0.00    +0.044 C 
ATOM      7  C   UNL     1      31.102 -10.500 -19.611  0.00  0.00    +0.007 C 
ATOM      8  C   UNL     1      33.018 -11.646 -23.242  0.00  0.00    +0.047 A 
ATOM      9  C   UNL     1      32.889 -13.032 -23.097  0.00  0.00    +0.062 A 
ATOM     10  C   UNL     1      33.564 -11.141 -24.439  0.00  0.00    +0.140 C 
ATOM     11  C   UNL     1      33.282 -13.935 -24.094  0.00  0.00    +0.017 C 
ATOM     12  C   UNL     1      33.961 -12.031 -25.442  0.00  0.00    +0.037 C 
ATOM     13  C   UNL     1      33.821 -13.406 -25.270  0.00  0.00    +0.005 C 
ENDROOT
BRANCH   2  16
ATOM     14  O   UNL     1      30.381  -9.624 -22.857  0.00  0.00    -0.275 OA
ATOM     15  N   UNL     1      31.493  -7.589 -22.704  0.00  0.00    -0.279 N 
ATOM     16  C   UNL     1      31.336  -8.953 -22.457  0.00  0.00    +0.229 C 
BRANCH  15  17
ATOM     17  C   UNL     1      30.524  -6.820 -23.474  0.00  0.00    +0.093 C 
ATOM     18  C   UNL     1      31.204  -5.921 -24.485  0.00  0.00    +0.023 C 
ENDBRANCH  15  17
BRANCH  15  19
ATOM     19  C   UNL     1      32.641  -6.832 -22.211  0.00  0.00    +0.093 C 
ATOM     20  C   UNL     1      32.265  -5.959 -21.031  0.00  0.00    +0.023 C 
ENDBRANCH  15  19
ENDBRANCH   2  16
BRANCH  10  21
ATOM     21  O   UNL     1      33.723  -9.796 -24.648  0.00  0.00    -0.471 OA
ATOM     22  C   UNL     1      34.974  -9.232 -24.268  0.00  0.00    +0.252 C 
ENDBRANCH  10  21
BRANCH   1  23
ATOM     23  C   UNL     1      32.056 -14.579 -21.310  0.00  0.00    +0.144 C 
BRANCH  23  25
ATOM     24  F   UNL     1      34.286 -14.282 -20.630  0.00  0.00    -0.232 F 
ATOM     25  C   UNL     1      33.283 -15.199 -20.663  0.00  0.00    +0.218 C 
ENDBRANCH  23  25
ENDBRANCH   1  23
TORSDOF 6
ENDMDL
MODEL 5
REMARK VINA RESULT:      -6.3      4.007      7.693
REMARK  Name = 51040949
REMARK  6 active torsions:
REMARK  status: ('A' for Active; 'I' for Inactive)
REMARK    1  A    between atoms: N_1  and  C_23
REMARK    2  A    between atoms: C_2  and  C_16
REMARK    3  A    between atoms: C_10  and  O_21
REMARK    4  A    between atoms: N_15  and  C_17
REMARK    5  A    between atoms: N_15  and  C_19
REMARK    6  A    between atoms: C_23  and  C_25
REMARK                            x       y       z     vdW  Elec       q    Type
REMARK                         _______ _______ _______ _____ _____    ______ ____
ROOT
ATOM      1  N   UNL     1      32.635 -12.436 -22.897  0.00  0.00    -0.328 N 
ATOM      2  C   UNL     1      33.124 -15.962 -22.061  0.00  0.00    +0.100 C 
ATOM      3  C   UNL     1      33.003 -14.628 -22.719  0.00  0.00    +0.002 A 
ATOM      4  C   UNL     1      32.657 -13.487 -22.025  0.00  0.00    +0.034 A 
ATOM      5  C   UNL     1      32.513 -15.951 -20.640  0.00  0.00    +0.014 C 
ATOM      6  C   UNL     1      32.325 -13.397 -20.581  0.00  0.00    +0.044 C 
ATOM      7  C   UNL     1      32.822 -14.659 -19.854  0.00  0.00    +0.007 C 
ATOM      8  C   UNL     1      33.193 -14.252 -24.082  0.00  0.00    +0.047 A 
ATOM      9  C   UNL     1      32.959 -12.875 -24.162  0.00  0.00    +0.062 A 
ATOM     10  C   UNL     1      33.544 -14.947 -25.257  0.00  0.00    +0.140 C 
ATOM     11  C   UNL     1      33.060 -12.161 -25.363  0.00  0.00    +0.017 C 
ATOM     12  C   UNL     1      33.648 -14.246 -26.463  0.00  0.00    +0.037 C 
ATOM     13  C   UNL     1      33.409 -12.875 -26.514  0.00  0.00    +0.005 C 
ENDROOT
BRANCH   2  16
ATOM     14  O   UNL     1      35.418 -15.519 -21.720  0.00  0.00    -0.275 OA
ATOM     15  N   UNL     1      34.852 -17.707 -22.263  0.00  0.00    -0.279 N 
ATOM     16  C   UNL     1      34.566 -16.368 -21.998  0.00  0.00    +0.229 C 
BRANCH  15  17
ATOM     17  C   UNL     1      36.210 -18.234 -22.237  0.00  0.00    +0.093 C 
ATOM     18  C   UNL     1      36.484 -18.999 -20.959  0.00  0.00    +0.023 C 
ENDBRANCH  15  17
BRANCH  15  19
ATOM     19  C   UNL     1      33.810 -18.678 -22.588  0.00  0.00    +0.093 C 
ATOM     20  C   UNL     1      34.208 -19.546 -23.765  0.00  0.00    +0.023 C 
ENDBRANCH  15  19
ENDBRANCH   2  16
BRANCH  10  21
ATOM     21  O   UNL     1      33.784 -16.296 -25.252  0.00  0.00    -0.471 OA
ATOM     22  C   UNL     1      35.115 -16.711 -25.535  0.00  0.00    +0.252 C 
ENDBRANCH  10  21
BRANCH   1  23
ATOM     23  C   UNL     1      32.305 -11.069 -22.552  0.00  0.00    +0.144 C 
BRANCH  23  25
ATOM     24  F   UNL     1      30.635 -10.776 -20.925  0.00  0.00    -0.232 F 
ATOM     25  C   UNL     1      30.822 -10.900 -22.266  0.00  0.00    +0.218 C 
ENDBRANCH  23  25
ENDBRANCH   1  23
TORSDOF 6
ENDMDL
MODEL 6
REMARK VINA RESULT:      -6.2      2.261      4.757
REMARK  Name = 51040949
REMARK  6 active torsions:
REMARK  status: ('A' for Active; 'I' for Inactive)
REMARK    1  A    between atoms: N_1  and  C_23
REMARK    2  A    between atoms: C_2  and  C_16
REMARK    3  A    between atoms: C_10  and  O_21
REMARK    4  A    between atoms: N_15  and  C_17
REMARK    5  A    between atoms: N_15  and  C_19
REMARK    6  A    between atoms: C_23  and  C_25
REMARK                            x       y       z     vdW  Elec       q    Type
REMARK                         _______ _______ _______ _____ _____    ______ ____
ROOT
ATOM      1  N   UNL     1      33.580 -15.084 -23.942  0.00  0.00    -0.328 N 
ATOM      2  C   UNL     1      32.746 -11.588 -24.614  0.00  0.00    +0.100 C 
ATOM      3  C   UNL     1      32.991 -12.935 -24.021  0.00  0.00    +0.002 A 
ATOM      4  C   UNL     1      33.454 -14.001 -24.764  0.00  0.00    +0.034 A 
ATOM      5  C   UNL     1      32.762 -11.639 -26.160  0.00  0.00    +0.014 C 
ATOM      6  C   UNL     1      33.741 -14.004 -26.221  0.00  0.00    +0.044 C 
ATOM      7  C   UNL     1      33.863 -12.557 -26.729  0.00  0.00    +0.007 C 
ATOM      8  C   UNL     1      32.820 -13.397 -22.682  0.00  0.00    +0.047 A 
ATOM      9  C   UNL     1      33.198 -14.744 -22.663  0.00  0.00    +0.062 A 
ATOM     10  C   UNL     1      32.381 -12.802 -21.481  0.00  0.00    +0.140 C 
ATOM     11  C   UNL     1      33.159 -15.523 -21.499  0.00  0.00    +0.017 C 
ATOM     12  C   UNL     1      32.337 -13.569 -20.312  0.00  0.00    +0.037 C 
ATOM     13  C   UNL     1      32.720 -14.908 -20.323  0.00  0.00    +0.005 C 
ENDROOT
BRANCH   2  16
ATOM     14  O   UNL     1      34.968 -10.959 -24.122  0.00  0.00    -0.275 OA
ATOM     15  N   UNL     1      33.320  -9.379 -23.686  0.00  0.00    -0.279 N 
ATOM     16  C   UNL     1      33.781 -10.621 -24.121  0.00  0.00    +0.229 C 
BRANCH  15  17
ATOM     17  C   UNL     1      34.217  -8.347 -23.182  0.00  0.00    +0.093 C 
ATOM     18  C   UNL     1      34.604  -7.368 -24.271  0.00  0.00    +0.023 C 
ENDBRANCH  15  17
BRANCH  15  19
ATOM     19  C   UNL     1      31.903  -9.022 -23.703  0.00  0.00    +0.093 C 
ATOM     20  C   UNL     1      31.554  -8.081 -22.568  0.00  0.00    +0.023 C 
ENDBRANCH  15  19
ENDBRANCH   2  16
BRANCH  10  21
ATOM     21  O   UNL     1      31.992 -11.490 -21.428  0.00  0.00    -0.471 OA
ATOM     22  C   UNL     1      30.799 -11.205 -20.706  0.00  0.00    +0.252 C 
ENDBRANCH  10  21
BRANCH   1  23
ATOM     23  C   UNL     1      34.029 -16.399 -24.352  0.00  0.00    +0.144 C 
BRANCH  23  25
ATOM     24  F   UNL     1      35.605 -18.079 -23.887  0.00  0.00    -0.232 F 
ATOM     25  C   UNL     1      35.385 -16.744 -23.759  0.00  0.00    +0.218 C 
ENDBRANCH  23  25
ENDBRANCH   1  23
TORSDOF 6
ENDMDL
MODEL 7
REMARK VINA RESULT:      -5.8      2.496      6.004
REMARK  Name = 51040949
REMARK  6 active torsions:
REMARK  status: ('A' for Active; 'I' for Inactive)
REMARK    1  A    between atoms: N_1  and  C_23
REMARK    2  A    between atoms: C_2  and  C_16
REMARK    3  A    between atoms: C_10  and  O_21
REMARK    4  A    between atoms: N_15  and  C_17
REMARK    5  A    between atoms: N_15  and  C_19
REMARK    6  A    between atoms: C_23  and  C_25
REMARK                            x       y       z     vdW  Elec       q    Type
REMARK                         _______ _______ _______ _____ _____    ______ ____
ROOT
ATOM      1  N   UNL     1      33.070  -9.261 -22.469  0.00  0.00    -0.328 N 
ATOM      2  C   UNL     1      32.562 -12.828 -23.094  0.00  0.00    +0.100 C 
ATOM      3  C   UNL     1      32.958 -11.390 -23.125  0.00  0.00    +0.002 A 
ATOM      4  C   UNL     1      32.540 -10.484 -22.172  0.00  0.00    +0.034 A 
ATOM      5  C   UNL     1      31.409 -13.077 -22.094  0.00  0.00    +0.014 C 
ATOM      6  C   UNL     1      31.636 -10.761 -21.027  0.00  0.00    +0.044 C 
ATOM      7  C   UNL     1      31.556 -12.278 -20.783  0.00  0.00    +0.007 C 
ATOM      8  C   UNL     1      33.778 -10.679 -24.051  0.00  0.00    +0.047 A 
ATOM      9  C   UNL     1      33.832  -9.351 -23.614  0.00  0.00    +0.062 A 
ATOM     10  C   UNL     1      34.483 -11.034 -25.219  0.00  0.00    +0.140 C 
ATOM     11  C   UNL     1      34.557  -8.362 -24.291  0.00  0.00    +0.017 C 
ATOM     12  C   UNL     1      35.211 -10.056 -25.905  0.00  0.00    +0.037 C 
ATOM     13  C   UNL     1      35.246  -8.742 -25.446  0.00  0.00    +0.005 C 
ENDROOT
BRANCH   2  16
ATOM     14  O   UNL     1      34.455 -13.340 -21.779  0.00  0.00    -0.275 OA
ATOM     15  N   UNL     1      33.972 -14.803 -23.519  0.00  0.00    -0.279 N 
ATOM     16  C   UNL     1      33.747 -13.673 -22.734  0.00  0.00    +0.229 C 
BRANCH  15  17
ATOM     17  C   UNL     1      35.087 -15.710 -23.279  0.00  0.00    +0.093 C 
ATOM     18  C   UNL     1      34.772 -16.697 -22.175  0.00  0.00    +0.023 C 
ENDBRANCH  15  17
BRANCH  15  19
ATOM     19  C   UNL     1      33.107 -15.160 -24.641  0.00  0.00    +0.093 C 
ATOM     20  C   UNL     1      33.831 -16.034 -25.645  0.00  0.00    +0.023 C 
ENDBRANCH  15  19
ENDBRANCH   2  16
BRANCH  10  21
ATOM     21  O   UNL     1      34.471 -12.315 -25.707  0.00  0.00    -0.471 OA
ATOM     22  C   UNL     1      33.641 -12.563 -26.835  0.00  0.00    +0.252 C 
ENDBRANCH  10  21
BRANCH   1  23
ATOM     23  C   UNL     1      32.853  -8.048 -21.710  0.00  0.00    +0.144 C 
BRANCH  23  25
ATOM     24  F   UNL     1      30.917  -8.004 -23.042  0.00  0.00    -0.232 F 
ATOM     25  C   UNL     1      31.727  -7.209 -22.292  0.00  0.00    +0.218 C 
ENDBRANCH  23  25
ENDBRANCH   1  23
TORSDOF 6
ENDMDL
MODEL 8
REMARK VINA RESULT:      -5.7      2.385      5.734
REMARK  Name = 51040949
REMARK  6 active torsions:
REMARK  status: ('A' for Active; 'I' for Inactive)
REMARK    1  A    between atoms: N_1  and  C_23
REMARK    2  A    between atoms: C_2  and  C_16
REMARK    3  A    between atoms: C_10  and  O_21
REMARK    4  A    between atoms: N_15  and  C_17
REMARK    5  A    between atoms: N_15  and  C_19
REMARK    6  A    between atoms: C_23  and  C_25
REMARK                            x       y       z     vdW  Elec       q    Type
REMARK                         _______ _______ _______ _____ _____    ______ ____
ROOT
ATOM      1  N   UNL     1      32.676  -8.258 -21.313  0.00  0.00    -0.328 N 
ATOM      2  C   UNL     1      31.752 -11.695 -22.152  0.00  0.00    +0.100 C 
ATOM      3  C   UNL     1      32.322 -10.317 -22.092  0.00  0.00    +0.002 A 
ATOM      4  C   UNL     1      31.992  -9.420 -21.097  0.00  0.00    +0.034 A 
ATOM      5  C   UNL     1      30.551 -11.854 -21.190  0.00  0.00    +0.014 C 
ATOM      6  C   UNL     1      31.031  -9.644 -19.987  0.00  0.00    +0.044 C 
ATOM      7  C   UNL     1      30.760 -11.151 -19.833  0.00  0.00    +0.007 C 
ATOM      8  C   UNL     1      33.247  -9.663 -22.960  0.00  0.00    +0.047 A 
ATOM      9  C   UNL     1      33.451  -8.378 -22.446  0.00  0.00    +0.062 A 
ATOM     10  C   UNL     1      33.933 -10.039 -24.132  0.00  0.00    +0.140 C 
ATOM     11  C   UNL     1      34.310  -7.452 -23.051  0.00  0.00    +0.017 C 
ATOM     12  C   UNL     1      34.793  -9.123 -24.746  0.00  0.00    +0.037 C 
ATOM     13  C   UNL     1      34.977  -7.850 -24.213  0.00  0.00    +0.005 C 
ENDROOT
BRANCH   2  16
ATOM     14  O   UNL     1      33.434 -12.587 -20.755  0.00  0.00    -0.275 OA
ATOM     15  N   UNL     1      33.035 -13.712 -22.750  0.00  0.00    -0.279 N 
ATOM     16  C   UNL     1      32.815 -12.698 -21.817  0.00  0.00    +0.229 C 
BRANCH  15  17
ATOM     17  C   UNL     1      34.037 -14.750 -22.550  0.00  0.00    +0.093 C 
ATOM     18  C   UNL     1      33.559 -15.802 -21.572  0.00  0.00    +0.023 C 
ENDBRANCH  15  17
BRANCH  15  19
ATOM     19  C   UNL     1      32.277 -13.805 -23.995  0.00  0.00    +0.093 C 
ATOM     20  C   UNL     1      33.013 -14.628 -25.033  0.00  0.00    +0.023 C 
ENDBRANCH  15  19
ENDBRANCH   2  16
BRANCH  10  21
ATOM     21  O   UNL     1      33.778 -11.280 -24.692  0.00  0.00    -0.471 OA
ATOM     22  C   UNL     1      34.355 -11.479 -25.977  0.00  0.00    +0.252 C 
ENDBRANCH  10  21
BRANCH   1  23
ATOM     23  C   UNL     1      32.589  -7.070 -20.490  0.00  0.00    +0.144 C 
BRANCH  23  25
ATOM     24  F   UNL     1      30.896  -6.619 -22.057  0.00  0.00    -0.232 F 
ATOM     25  C   UNL     1      31.649  -6.035 -21.086  0.00  0.00    +0.218 C 
ENDBRANCH  23  25
ENDBRANCH   1  23
TORSDOF 6
ENDMDL
MODEL 9
REMARK VINA RESULT:      -5.7      1.716      4.247
REMARK  Name = 51040949
REMARK  6 active torsions:
REMARK  status: ('A' for Active; 'I' for Inactive)
REMARK    1  A    between atoms: N_1  and  C_23
REMARK    2  A    between atoms: C_2  and  C_16
REMARK    3  A    between atoms: C_10  and  O_21
REMARK    4  A    between atoms: N_15  and  C_17
REMARK    5  A    between atoms: N_15  and  C_19
REMARK    6  A    between atoms: C_23  and  C_25
REMARK                            x       y       z     vdW  Elec       q    Type
REMARK                         _______ _______ _______ _____ _____    ______ ____
ROOT
ATOM      1  N   UNL     1      32.659 -13.070 -21.809  0.00  0.00    -0.328 N 
ATOM      2  C   UNL     1      32.671 -10.256 -24.143  0.00  0.00    +0.100 C 
ATOM      3  C   UNL     1      32.552 -11.169 -22.969  0.00  0.00    +0.002 A 
ATOM      4  C   UNL     1      32.865 -12.511 -23.038  0.00  0.00    +0.034 A 
ATOM      5  C   UNL     1      32.859 -11.046 -25.459  0.00  0.00    +0.014 C 
ATOM      6  C   UNL     1      33.315 -13.253 -24.242  0.00  0.00    +0.044 C 
ATOM      7  C   UNL     1      33.801 -12.259 -25.312  0.00  0.00    +0.007 C 
ATOM      8  C   UNL     1      32.129 -10.902 -21.633  0.00  0.00    +0.047 A 
ATOM      9  C   UNL     1      32.209 -12.109 -20.930  0.00  0.00    +0.062 A 
ATOM     10  C   UNL     1      31.687  -9.752 -20.949  0.00  0.00    +0.140 C 
ATOM     11  C   UNL     1      31.868 -12.218 -19.576  0.00  0.00    +0.017 C 
ATOM     12  C   UNL     1      31.342  -9.847 -19.597  0.00  0.00    +0.037 C 
ATOM     13  C   UNL     1      31.432 -11.062 -18.923  0.00  0.00    +0.005 C 
ENDROOT
BRANCH   2  16
ATOM     14  O   UNL     1      34.922  -9.771 -23.621  0.00  0.00    -0.275 OA
ATOM     15  N   UNL     1      33.559  -7.958 -24.130  0.00  0.00    -0.279 N 
ATOM     16  C   UNL     1      33.820  -9.315 -23.940  0.00  0.00    +0.229 C 
BRANCH  15  17
ATOM     17  C   UNL     1      34.585  -6.937 -23.965  0.00  0.00    +0.093 C 
ATOM     18  C   UNL     1      35.036  -6.381 -25.299  0.00  0.00    +0.023 C 
ENDBRANCH  15  17
BRANCH  15  19
ATOM     19  C   UNL     1      32.239  -7.462 -24.508  0.00  0.00    +0.093 C 
ATOM     20  C   UNL     1      32.054  -6.012 -24.108  0.00  0.00    +0.023 C 
ENDBRANCH  15  19
ENDBRANCH   2  16
BRANCH  10  21
ATOM     21  O   UNL     1      31.580  -8.537 -21.576  0.00  0.00    -0.471 OA
ATOM     22  C   UNL     1      32.056  -7.403 -20.860  0.00  0.00    +0.252 C 
ENDBRANCH  10  21
BRANCH   1  23
ATOM     23  C   UNL     1      32.866 -14.465 -21.479  0.00  0.00    +0.144 C 
BRANCH  23  25
ATOM     24  F   UNL     1      34.335 -15.486 -19.954  0.00  0.00    -0.232 F 
ATOM     25  C   UNL     1      34.309 -14.748 -21.096  0.00  0.00    +0.218 C 
ENDBRANCH  23  25
ENDBRANCH   1  23
TORSDOF 6
ENDMDL
