MODEL 1
REMARK VINA RESULT:      -9.3      0.000      0.000
REMARK  Name = 2273
REMARK  6 active torsions:
REMARK  status: ('A' for Active; 'I' for Inactive)
REMARK    1  A    between atoms: C_2  and  N_20
REMARK    2  A    between atoms: C_3  and  C_12
REMARK    3  A    between atoms: C_4  and  S_14
REMARK    4  A    between atoms: S_14  and  N_17
REMARK    5  A    between atoms: N_20  and  C_22
REMARK    6  A    between atoms: C_22  and  C_24
REMARK                            x       y       z     vdW  Elec       q    Type
REMARK                         _______ _______ _______ _____ _____    ______ ____
ROOT
ATOM      1 CL   UNL     1      38.094 -24.124 -14.630  0.00  0.00    -0.081 Cl
ATOM      2  C   UNL     1      34.255 -23.504 -15.521  0.00  0.00    +0.055 C 
ATOM      3  C   UNL     1      33.595 -23.849 -14.342  0.00  0.00    +0.080 C 
ATOM      4  C   UNL     1      35.714 -24.376 -13.310  0.00  0.00    +0.133 C 
ATOM      5  C   UNL     1      34.324 -24.285 -13.236  0.00  0.00    +0.032 C 
ATOM      6  C   UNL     1      35.645 -23.594 -15.594  0.00  0.00    +0.028 C 
ATOM      7  C   UNL     1      36.375 -24.031 -14.488  0.00  0.00    +0.077 C 
ENDROOT
BRANCH   3  12
ATOM      8  N   UNL     1      31.460 -22.701 -14.625  0.00  0.00    -0.110 NA
ATOM      9  N   UNL     1      31.413 -24.777 -13.723  0.00  0.00    -0.087 NA
ATOM     10  N   UNL     1      30.230 -23.134 -14.314  0.00  0.00    -0.140 N 
ATOM     11  N   UNL     1      30.155 -24.360 -13.777  0.00  0.00    -0.022 NA
ATOM     12  C   UNL     1      32.162 -23.764 -14.236  0.00  0.00    +0.075 C 
ATOM     13  H   UNL     1      29.430 -22.583 -14.470  0.00  0.00    +0.197 HD
ENDBRANCH   3  12
BRANCH   4  14
ATOM     14  S   UNL     1      36.578 -24.931 -11.889  0.00  0.00    +0.058 S 
ATOM     15  O   UNL     1      37.075 -26.271 -12.155  0.00  0.00    -0.153 OA
ATOM     16  O   UNL     1      37.498 -23.882 -11.477  0.00  0.00    -0.153 OA
BRANCH  14  17
ATOM     17  N   UNL     1      35.304 -25.025 -10.757  0.00  0.00    -0.203 NA
ATOM     18  H   UNL     1      35.228 -25.981 -10.409  0.00  0.00    +0.144 HD
ATOM     19  H   UNL     1      34.429 -24.757 -11.207  0.00  0.00    +0.144 HD
ENDBRANCH  14  17
ENDBRANCH   4  14
BRANCH   2  20
ATOM     20  N   UNL     1      33.541 -23.058 -16.657  0.00  0.00    -0.328 N 
ATOM     21  H   UNL     1      32.790 -22.436 -16.528  0.00  0.00    +0.147 HD
BRANCH  20  22
ATOM     22  C   UNL     1      33.866 -23.472 -17.985  0.00  0.00    +0.121 C 
BRANCH  22  24
ATOM     23  S   UNL     1      35.653 -21.770 -19.222  0.00  0.00    -0.089 S 
ATOM     24  C   UNL     1      34.066 -22.277 -18.876  0.00  0.00    +0.027 C 
ATOM     25  C   UNL     1      33.108 -21.510 -19.469  0.00  0.00    +0.004 C 
ATOM     26  C   UNL     1      33.690 -20.463 -20.241  0.00  0.00    +0.007 C 
ATOM     27  C   UNL     1      35.066 -20.489 -20.194  0.00  0.00    +0.035 C 
ENDBRANCH  22  24
ENDBRANCH  20  22
ENDBRANCH   2  20
TORSDOF 6
ENDMDL
MODEL 2
REMARK VINA RESULT:      -9.1      2.868      4.751
REMARK  Name = 2273
REMARK  6 active torsions:
REMARK  status: ('A' for Active; 'I' for Inactive)
REMARK    1  A    between atoms: C_2  and  N_20
REMARK    2  A    between atoms: C_3  and  C_12
REMARK    3  A    between atoms: C_4  and  S_14
REMARK    4  A    between atoms: S_14  and  N_17
REMARK    5  A    between atoms: N_20  and  C_22
REMARK    6  A    between atoms: C_22  and  C_24
REMARK                            x       y       z     vdW  Elec       q    Type
REMARK                         _______ _______ _______ _____ _____    ______ ____
ROOT
ATOM      1 CL   UNL     1      36.289 -24.836 -11.399  0.00  0.00    -0.081 Cl
ATOM      2  C   UNL     1      34.151 -23.530 -14.504  0.00  0.00    +0.055 C 
ATOM      3  C   UNL     1      35.052 -23.607 -15.565  0.00  0.00    +0.080 C 
ATOM      4  C   UNL     1      36.748 -24.449 -14.065  0.00  0.00    +0.133 C 
ATOM      5  C   UNL     1      36.351 -24.066 -15.347  0.00  0.00    +0.032 C 
ATOM      6  C   UNL     1      34.548 -23.914 -13.223  0.00  0.00    +0.028 C 
ATOM      7  C   UNL     1      35.847 -24.372 -13.004  0.00  0.00    +0.077 C 
ENDROOT
BRANCH   3  12
ATOM      8  N   UNL     1      33.522 -23.582 -17.466  0.00  0.00    -0.110 NA
ATOM      9  N   UNL     1      35.470 -22.448 -17.684  0.00  0.00    -0.087 NA
ATOM     10  N   UNL     1      33.672 -22.978 -18.653  0.00  0.00    -0.140 N 
ATOM     11  N   UNL     1      34.812 -22.294 -18.827  0.00  0.00    -0.022 NA
ATOM     12  C   UNL     1      34.671 -23.220 -16.899  0.00  0.00    +0.075 C 
ATOM     13  H   UNL     1      32.986 -23.034 -19.356  0.00  0.00    +0.197 HD
ENDBRANCH   3  12
BRANCH   4  14
ATOM     14  S   UNL     1      38.391 -25.017 -13.849  0.00  0.00    +0.058 S 
ATOM     15  O   UNL     1      38.988 -24.274 -12.752  0.00  0.00    -0.153 OA
ATOM     16  O   UNL     1      38.371 -26.471 -13.817  0.00  0.00    -0.153 OA
BRANCH  14  17
ATOM     17  N   UNL     1      39.101 -24.507 -15.315  0.00  0.00    -0.203 NA
ATOM     18  H   UNL     1      39.225 -25.311 -15.932  0.00  0.00    +0.144 HD
ATOM     19  H   UNL     1      40.009 -24.082 -15.124  0.00  0.00    +0.144 HD
ENDBRANCH  14  17
ENDBRANCH   4  14
BRANCH   2  20
ATOM     20  N   UNL     1      32.828 -23.069 -14.697  0.00  0.00    -0.328 N 
ATOM     21  H   UNL     1      32.662 -22.389 -15.389  0.00  0.00    +0.147 HD
BRANCH  20  22
ATOM     22  C   UNL     1      31.723 -23.548 -13.930  0.00  0.00    +0.121 C 
BRANCH  22  24
ATOM     23  S   UNL     1      29.953 -25.051 -15.423  0.00  0.00    -0.089 S 
ATOM     24  C   UNL     1      30.472 -23.570 -14.765  0.00  0.00    +0.027 C 
ATOM     25  C   UNL     1      29.663 -22.521 -15.080  0.00  0.00    +0.004 C 
ATOM     26  C   UNL     1      28.570 -22.938 -15.894  0.00  0.00    +0.007 C 
ATOM     27  C   UNL     1      28.606 -24.290 -16.156  0.00  0.00    +0.035 C 
ENDBRANCH  22  24
ENDBRANCH  20  22
ENDBRANCH   2  20
TORSDOF 6
ENDMDL
MODEL 3
REMARK VINA RESULT:      -9.1      4.307      6.680
REMARK  Name = 2273
REMARK  6 active torsions:
REMARK  status: ('A' for Active; 'I' for Inactive)
REMARK    1  A    between atoms: C_2  and  N_20
REMARK    2  A    between atoms: C_3  and  C_12
REMARK    3  A    between atoms: C_4  and  S_14
REMARK    4  A    between atoms: S_14  and  N_17
REMARK    5  A    between atoms: N_20  and  C_22
REMARK    6  A    between atoms: C_22  and  C_24
REMARK                            x       y       z     vdW  Elec       q    Type
REMARK                         _______ _______ _______ _____ _____    ______ ____
ROOT
ATOM      1 CL   UNL     1      30.419 -24.250 -13.045  0.00  0.00    -0.081 Cl
ATOM      2  C   UNL     1      33.462 -23.651 -15.554  0.00  0.00    +0.055 C 
ATOM      3  C   UNL     1      32.842 -23.115 -16.683  0.00  0.00    +0.080 C 
ATOM      4  C   UNL     1      30.699 -23.271 -15.581  0.00  0.00    +0.133 C 
ATOM      5  C   UNL     1      31.461 -22.926 -16.698  0.00  0.00    +0.032 C 
ATOM      6  C   UNL     1      32.699 -23.996 -14.439  0.00  0.00    +0.028 C 
ATOM      7  C   UNL     1      31.317 -23.807 -14.452  0.00  0.00    +0.077 C 
ENDROOT
BRANCH   3  12
ATOM      8  N   UNL     1      33.046 -22.428 -19.015  0.00  0.00    -0.110 NA
ATOM      9  N   UNL     1      34.962 -22.703 -17.842  0.00  0.00    -0.087 NA
ATOM     10  N   UNL     1      34.159 -22.184 -19.722  0.00  0.00    -0.140 N 
ATOM     11  N   UNL     1      35.318 -22.334 -19.066  0.00  0.00    -0.022 NA
ATOM     12  C   UNL     1      33.603 -22.748 -17.849  0.00  0.00    +0.075 C 
ATOM     13  H   UNL     1      34.126 -21.912 -20.667  0.00  0.00    +0.197 HD
ENDBRANCH   3  12
BRANCH   4  14
ATOM     14  S   UNL     1      28.967 -23.012 -15.656  0.00  0.00    +0.058 S 
ATOM     15  O   UNL     1      28.306 -24.277 -15.383  0.00  0.00    -0.153 OA
ATOM     16  O   UNL     1      28.648 -21.837 -14.859  0.00  0.00    -0.153 OA
BRANCH  14  17
ATOM     17  N   UNL     1      28.772 -22.628 -17.308  0.00  0.00    -0.203 NA
ATOM     18  H   UNL     1      27.840 -22.905 -17.614  0.00  0.00    +0.144 HD
ATOM     19  H   UNL     1      29.473 -23.127 -17.857  0.00  0.00    +0.144 HD
ENDBRANCH  14  17
ENDBRANCH   4  14
BRANCH   2  20
ATOM     20  N   UNL     1      34.861 -23.854 -15.512  0.00  0.00    -0.328 N 
ATOM     21  H   UNL     1      35.444 -23.214 -15.979  0.00  0.00    +0.147 HD
BRANCH  20  22
ATOM     22  C   UNL     1      35.462 -24.948 -14.819  0.00  0.00    +0.121 C 
BRANCH  22  24
ATOM     23  S   UNL     1      37.825 -25.195 -13.415  0.00  0.00    -0.089 S 
ATOM     24  C   UNL     1      36.321 -24.450 -13.690  0.00  0.00    +0.027 C 
ATOM     25  C   UNL     1      36.047 -23.438 -12.819  0.00  0.00    +0.004 C 
ATOM     26  C   UNL     1      37.108 -23.260 -11.884  0.00  0.00    +0.007 C 
ATOM     27  C   UNL     1      38.138 -24.150 -12.095  0.00  0.00    +0.035 C 
ENDBRANCH  22  24
ENDBRANCH  20  22
ENDBRANCH   2  20
TORSDOF 6
ENDMDL
MODEL 4
REMARK VINA RESULT:      -8.9      3.231      5.785
REMARK  Name = 2273
REMARK  6 active torsions:
REMARK  status: ('A' for Active; 'I' for Inactive)
REMARK    1  A    between atoms: C_2  and  N_20
REMARK    2  A    between atoms: C_3  and  C_12
REMARK    3  A    between atoms: C_4  and  S_14
REMARK    4  A    between atoms: S_14  and  N_17
REMARK    5  A    between atoms: N_20  and  C_22
REMARK    6  A    between atoms: C_22  and  C_24
REMARK                            x       y       z     vdW  Elec       q    Type
REMARK                         _______ _______ _______ _____ _____    ______ ____
ROOT
ATOM      1 CL   UNL     1      36.975 -22.049 -17.433  0.00  0.00    -0.081 Cl
ATOM      2  C   UNL     1      34.766 -23.329 -14.367  0.00  0.00    +0.055 C 
ATOM      3  C   UNL     1      33.520 -23.562 -14.949  0.00  0.00    +0.080 C 
ATOM      4  C   UNL     1      34.388 -22.859 -17.091  0.00  0.00    +0.133 C 
ATOM      5  C   UNL     1      33.330 -23.327 -16.310  0.00  0.00    +0.032 C 
ATOM      6  C   UNL     1      35.823 -22.862 -15.148  0.00  0.00    +0.028 C 
ATOM      7  C   UNL     1      35.634 -22.626 -16.510  0.00  0.00    +0.077 C 
ENDROOT
BRANCH   3  12
ATOM      8  N   UNL     1      31.875 -25.254 -14.328  0.00  0.00    -0.110 NA
ATOM      9  N   UNL     1      31.821 -23.290 -13.203  0.00  0.00    -0.087 NA
ATOM     10  N   UNL     1      30.917 -25.187 -13.392  0.00  0.00    -0.140 N 
ATOM     11  N   UNL     1      30.849 -24.041 -12.700  0.00  0.00    -0.022 NA
ATOM     12  C   UNL     1      32.410 -24.045 -14.169  0.00  0.00    +0.075 C 
ATOM     13  H   UNL     1      30.300 -25.935 -13.224  0.00  0.00    +0.197 HD
ENDBRANCH   3  12
BRANCH   4  14
ATOM     14  S   UNL     1      34.091 -22.581 -18.795  0.00  0.00    +0.058 S 
ATOM     15  O   UNL     1      34.994 -21.537 -19.249  0.00  0.00    -0.153 OA
ATOM     16  O   UNL     1      34.070 -23.869 -19.470  0.00  0.00    -0.153 OA
BRANCH  14  17
ATOM     17  N   UNL     1      32.502 -21.958 -18.746  0.00  0.00    -0.203 NA
ATOM     18  H   UNL     1      32.390 -21.253 -19.475  0.00  0.00    +0.144 HD
ATOM     19  H   UNL     1      32.332 -21.535 -17.833  0.00  0.00    +0.144 HD
ENDBRANCH  14  17
ENDBRANCH   4  14
BRANCH   2  20
ATOM     20  N   UNL     1      34.987 -23.559 -12.990  0.00  0.00    -0.328 N 
ATOM     21  H   UNL     1      34.813 -22.827 -12.356  0.00  0.00    +0.147 HD
BRANCH  20  22
ATOM     22  C   UNL     1      35.450 -24.810 -12.480  0.00  0.00    +0.121 C 
BRANCH  22  24
ATOM     23  S   UNL     1      37.022 -26.329 -14.164  0.00  0.00    -0.089 S 
ATOM     24  C   UNL     1      36.831 -25.109 -12.994  0.00  0.00    +0.027 C 
ATOM     25  C   UNL     1      38.002 -24.512 -12.635  0.00  0.00    +0.004 C 
ATOM     26  C   UNL     1      39.105 -25.070 -13.343  0.00  0.00    +0.007 C 
ATOM     27  C   UNL     1      38.714 -26.068 -14.208  0.00  0.00    +0.035 C 
ENDBRANCH  22  24
ENDBRANCH  20  22
ENDBRANCH   2  20
TORSDOF 6
ENDMDL
MODEL 5
REMARK VINA RESULT:      -8.2     10.710     13.191
REMARK  Name = 2273
REMARK  6 active torsions:
REMARK  status: ('A' for Active; 'I' for Inactive)
REMARK    1  A    between atoms: C_2  and  N_20
REMARK    2  A    between atoms: C_3  and  C_12
REMARK    3  A    between atoms: C_4  and  S_14
REMARK    4  A    between atoms: S_14  and  N_17
REMARK    5  A    between atoms: N_20  and  C_22
REMARK    6  A    between atoms: C_22  and  C_24
REMARK                            x       y       z     vdW  Elec       q    Type
REMARK                         _______ _______ _______ _____ _____    ______ ____
ROOT
ATOM      1 CL   UNL     1      34.915 -16.525 -20.294  0.00  0.00    -0.081 Cl
ATOM      2  C   UNL     1      33.629 -13.894 -23.001  0.00  0.00    +0.055 C 
ATOM      3  C   UNL     1      33.699 -14.608 -24.197  0.00  0.00    +0.080 C 
ATOM      4  C   UNL     1      34.530 -16.534 -22.999  0.00  0.00    +0.133 C 
ATOM      5  C   UNL     1      34.151 -15.927 -24.197  0.00  0.00    +0.032 C 
ATOM      6  C   UNL     1      34.008 -14.500 -21.804  0.00  0.00    +0.028 C 
ATOM      7  C   UNL     1      34.459 -15.820 -21.803  0.00  0.00    +0.077 C 
ENDROOT
BRANCH   3  12
ATOM      8  N   UNL     1      32.557 -14.627 -26.353  0.00  0.00    -0.110 NA
ATOM      9  N   UNL     1      33.702 -12.754 -25.800  0.00  0.00    -0.087 NA
ATOM     10  N   UNL     1      32.509 -13.663 -27.284  0.00  0.00    -0.140 N 
ATOM     11  N   UNL     1      33.173 -12.535 -26.998  0.00  0.00    -0.022 NA
ATOM     12  C   UNL     1      33.314 -14.009 -25.449  0.00  0.00    +0.075 C 
ATOM     13  H   UNL     1      32.015 -13.778 -28.127  0.00  0.00    +0.197 HD
ENDBRANCH   3  12
BRANCH   4  14
ATOM     14  S   UNL     1      35.089 -18.193 -23.059  0.00  0.00    +0.058 S 
ATOM     15  O   UNL     1      36.514 -18.203 -22.772  0.00  0.00    -0.153 OA
ATOM     16  O   UNL     1      34.182 -19.009 -22.266  0.00  0.00    -0.153 OA
BRANCH  14  17
ATOM     17  N   UNL     1      34.852 -18.551 -24.711  0.00  0.00    -0.203 NA
ATOM     18  H   UNL     1      33.853 -18.574 -24.915  0.00  0.00    +0.144 HD
ATOM     19  H   UNL     1      35.264 -19.460 -24.924  0.00  0.00    +0.144 HD
ENDBRANCH  14  17
ENDBRANCH   4  14
BRANCH   2  20
ATOM     20  N   UNL     1      33.175 -12.555 -22.973  0.00  0.00    -0.328 N 
ATOM     21  H   UNL     1      33.812 -11.836 -23.187  0.00  0.00    +0.147 HD
BRANCH  20  22
ATOM     22  C   UNL     1      31.830 -12.202 -22.646  0.00  0.00    +0.121 C 
BRANCH  22  24
ATOM     23  S   UNL     1      31.883  -9.675 -21.538  0.00  0.00    -0.089 S 
ATOM     24  C   UNL     1      31.793 -11.368 -21.395  0.00  0.00    +0.027 C 
ATOM     25  C   UNL     1      31.693 -11.801 -20.107  0.00  0.00    +0.004 C 
ATOM     26  C   UNL     1      31.690 -10.708 -19.193  0.00  0.00    +0.007 C 
ATOM     27  C   UNL     1      31.787  -9.494 -19.838  0.00  0.00    +0.035 C 
ENDBRANCH  22  24
ENDBRANCH  20  22
ENDBRANCH   2  20
TORSDOF 6
ENDMDL
MODEL 6
REMARK VINA RESULT:      -8.1     10.908     13.780
REMARK  Name = 2273
REMARK  6 active torsions:
REMARK  status: ('A' for Active; 'I' for Inactive)
REMARK    1  A    between atoms: C_2  and  N_20
REMARK    2  A    between atoms: C_3  and  C_12
REMARK    3  A    between atoms: C_4  and  S_14
REMARK    4  A    between atoms: S_14  and  N_17
REMARK    5  A    between atoms: N_20  and  C_22
REMARK    6  A    between atoms: C_22  and  C_24
REMARK                            x       y       z     vdW  Elec       q    Type
REMARK                         _______ _______ _______ _____ _____    ______ ____
ROOT
ATOM      1 CL   UNL     1      32.650 -15.337 -19.426  0.00  0.00    -0.081 Cl
ATOM      2  C   UNL     1      32.464 -12.941 -22.610  0.00  0.00    +0.055 C 
ATOM      3  C   UNL     1      33.291 -13.577 -23.536  0.00  0.00    +0.080 C 
ATOM      4  C   UNL     1      33.743 -15.325 -21.931  0.00  0.00    +0.133 C 
ATOM      5  C   UNL     1      33.931 -14.768 -23.197  0.00  0.00    +0.032 C 
ATOM      6  C   UNL     1      32.276 -13.497 -21.345  0.00  0.00    +0.028 C 
ATOM      7  C   UNL     1      32.917 -14.689 -21.005  0.00  0.00    +0.077 C 
ENDROOT
BRANCH   3  12
ATOM      8  N   UNL     1      34.006 -11.814 -25.063  0.00  0.00    -0.110 NA
ATOM      9  N   UNL     1      33.198 -13.719 -25.981  0.00  0.00    -0.087 NA
ATOM     10  N   UNL     1      33.989 -11.810 -26.403  0.00  0.00    -0.140 N 
ATOM     11  N   UNL     1      33.518 -12.919 -26.990  0.00  0.00    -0.022 NA
ATOM     12  C   UNL     1      33.503 -13.028 -24.850  0.00  0.00    +0.075 C 
ATOM     13  H   UNL     1      34.303 -11.037 -26.926  0.00  0.00    +0.197 HD
ENDBRANCH   3  12
BRANCH   4  14
ATOM     14  S   UNL     1      34.573 -16.823 -21.560  0.00  0.00    +0.058 S 
ATOM     15  O   UNL     1      35.390 -16.608 -20.377  0.00  0.00    -0.153 OA
ATOM     16  O   UNL     1      33.598 -17.902 -21.585  0.00  0.00    -0.153 OA
BRANCH  14  17
ATOM     17  N   UNL     1      35.594 -16.968 -22.920  0.00  0.00    -0.203 NA
ATOM     18  H   UNL     1      36.567 -16.881 -22.627  0.00  0.00    +0.144 HD
ATOM     19  H   UNL     1      35.373 -16.232 -23.591  0.00  0.00    +0.144 HD
ENDBRANCH  14  17
ENDBRANCH   4  14
BRANCH   2  20
ATOM     20  N   UNL     1      31.802 -11.732 -22.927  0.00  0.00    -0.328 N 
ATOM     21  H   UNL     1      31.786 -11.436 -23.866  0.00  0.00    +0.147 HD
BRANCH  20  22
ATOM     22  C   UNL     1      31.157 -10.924 -21.943  0.00  0.00    +0.121 C 
BRANCH  22  24
ATOM     23  S   UNL     1      32.694  -8.926 -23.066  0.00  0.00    -0.089 S 
ATOM     24  C   UNL     1      31.914  -9.641 -21.734  0.00  0.00    +0.027 C 
ATOM     25  C   UNL     1      32.069  -8.944 -20.574  0.00  0.00    +0.004 C 
ATOM     26  C   UNL     1      32.857  -7.774 -20.776  0.00  0.00    +0.007 C 
ATOM     27  C   UNL     1      33.262  -7.643 -22.086  0.00  0.00    +0.035 C 
ENDBRANCH  22  24
ENDBRANCH  20  22
ENDBRANCH   2  20
TORSDOF 6
ENDMDL
MODEL 7
REMARK VINA RESULT:      -8.1     10.135     13.246
REMARK  Name = 2273
REMARK  6 active torsions:
REMARK  status: ('A' for Active; 'I' for Inactive)
REMARK    1  A    between atoms: C_2  and  N_20
REMARK    2  A    between atoms: C_3  and  C_12
REMARK    3  A    between atoms: C_4  and  S_14
REMARK    4  A    between atoms: S_14  and  N_17
REMARK    5  A    between atoms: N_20  and  C_22
REMARK    6  A    between atoms: C_22  and  C_24
REMARK                            x       y       z     vdW  Elec       q    Type
REMARK                         _______ _______ _______ _____ _____    ______ ____
ROOT
ATOM      1 CL   UNL     1      31.646 -11.580 -19.569  0.00  0.00    -0.081 Cl
ATOM      2  C   UNL     1      32.902 -14.598 -21.855  0.00  0.00    +0.055 C 
ATOM      3  C   UNL     1      33.028 -14.012 -23.114  0.00  0.00    +0.080 C 
ATOM      4  C   UNL     1      32.297 -11.897 -22.203  0.00  0.00    +0.133 C 
ATOM      5  C   UNL     1      32.725 -12.662 -23.289  0.00  0.00    +0.032 C 
ATOM      6  C   UNL     1      32.474 -13.833 -20.770  0.00  0.00    +0.028 C 
ATOM      7  C   UNL     1      32.171 -12.483 -20.944  0.00  0.00    +0.077 C 
ENDROOT
BRANCH   3  12
ATOM      8  N   UNL     1      34.457 -15.665 -24.199  0.00  0.00    -0.110 NA
ATOM      9  N   UNL     1      32.900 -14.636 -25.480  0.00  0.00    -0.087 NA
ATOM     10  N   UNL     1      34.454 -16.063 -25.479  0.00  0.00    -0.140 N 
ATOM     11  N   UNL     1      33.547 -15.480 -26.275  0.00  0.00    -0.022 NA
ATOM     12  C   UNL     1      33.469 -14.775 -24.253  0.00  0.00    +0.075 C 
ATOM     13  H   UNL     1      35.082 -16.743 -25.815  0.00  0.00    +0.197 HD
ENDBRANCH   3  12
BRANCH   4  14
ATOM     14  S   UNL     1      31.930 -10.207 -22.482  0.00  0.00    +0.058 S 
ATOM     15  O   UNL     1      30.501 -10.084 -22.714  0.00  0.00    -0.153 OA
ATOM     16  O   UNL     1      32.568  -9.423 -21.435  0.00  0.00    -0.153 OA
BRANCH  14  17
ATOM     17  N   UNL     1      32.756  -9.939 -23.952  0.00  0.00    -0.203 NA
ATOM     18  H   UNL     1      32.123  -9.504 -24.624  0.00  0.00    +0.144 HD
ATOM     19  H   UNL     1      33.086 -10.830 -24.323  0.00  0.00    +0.144 HD
ENDBRANCH  14  17
ENDBRANCH   4  14
BRANCH   2  20
ATOM     20  N   UNL     1      33.202 -15.964 -21.649  0.00  0.00    -0.328 N 
ATOM     21  H   UNL     1      32.540 -16.639 -21.922  0.00  0.00    +0.147 HD
BRANCH  20  22
ATOM     22  C   UNL     1      34.427 -16.406 -21.062  0.00  0.00    +0.121 C 
BRANCH  22  24
ATOM     23  S   UNL     1      35.993 -18.675 -21.191  0.00  0.00    -0.089 S 
ATOM     24  C   UNL     1      34.483 -17.908 -21.028  0.00  0.00    +0.027 C 
ATOM     25  C   UNL     1      33.445 -18.778 -20.877  0.00  0.00    +0.004 C 
ATOM     26  C   UNL     1      33.896 -20.130 -20.895  0.00  0.00    +0.007 C 
ATOM     27  C   UNL     1      35.261 -20.217 -21.059  0.00  0.00    +0.035 C 
ENDBRANCH  22  24
ENDBRANCH  20  22
ENDBRANCH   2  20
TORSDOF 6
ENDMDL
MODEL 8
REMARK VINA RESULT:      -8.1     15.534     18.001
REMARK  Name = 2273
REMARK  6 active torsions:
REMARK  status: ('A' for Active; 'I' for Inactive)
REMARK    1  A    between atoms: C_2  and  N_20
REMARK    2  A    between atoms: C_3  and  C_12
REMARK    3  A    between atoms: C_4  and  S_14
REMARK    4  A    between atoms: S_14  and  N_17
REMARK    5  A    between atoms: N_20  and  C_22
REMARK    6  A    between atoms: C_22  and  C_24
REMARK                            x       y       z     vdW  Elec       q    Type
REMARK                         _______ _______ _______ _____ _____    ______ ____
ROOT
ATOM      1 CL   UNL     1      33.028  -5.191 -25.785  0.00  0.00    -0.081 Cl
ATOM      2  C   UNL     1      33.156  -8.282 -23.267  0.00  0.00    +0.055 C 
ATOM      3  C   UNL     1      32.353  -7.862 -22.207  0.00  0.00    +0.080 C 
ATOM      4  C   UNL     1      31.949  -5.769 -23.342  0.00  0.00    +0.133 C 
ATOM      5  C   UNL     1      31.750  -6.606 -22.243  0.00  0.00    +0.032 C 
ATOM      6  C   UNL     1      33.354  -7.445 -24.365  0.00  0.00    +0.028 C 
ATOM      7  C   UNL     1      32.751  -6.188 -24.402  0.00  0.00    +0.077 C 
ENDROOT
BRANCH   3  12
ATOM      8  N   UNL     1      32.419  -8.336 -19.815  0.00  0.00    -0.110 NA
ATOM      9  N   UNL     1      31.598  -9.951 -21.172  0.00  0.00    -0.087 NA
ATOM     10  N   UNL     1      32.030  -9.446 -19.170  0.00  0.00    -0.140 N 
ATOM     11  N   UNL     1      31.536 -10.429 -19.935  0.00  0.00    -0.022 NA
ATOM     12  C   UNL     1      32.128  -8.704 -21.061  0.00  0.00    +0.075 C 
ATOM     13  H   UNL     1      32.103  -9.533 -18.193  0.00  0.00    +0.197 HD
ENDBRANCH   3  12
BRANCH   4  14
ATOM     14  S   UNL     1      31.166  -4.201 -23.333  0.00  0.00    +0.058 S 
ATOM     15  O   UNL     1      32.182  -3.187 -23.103  0.00  0.00    -0.153 OA
ATOM     16  O   UNL     1      30.304  -4.115 -24.502  0.00  0.00    -0.153 OA
BRANCH  14  17
ATOM     17  N   UNL     1      30.192  -4.337 -21.938  0.00  0.00    -0.203 NA
ATOM     18  H   UNL     1      29.246  -4.021 -22.151  0.00  0.00    +0.144 HD
ATOM     19  H   UNL     1      30.584  -3.761 -21.193  0.00  0.00    +0.144 HD
ENDBRANCH  14  17
ENDBRANCH   4  14
BRANCH   2  20
ATOM     20  N   UNL     1      33.780  -9.551 -23.257  0.00  0.00    -0.328 N 
ATOM     21  H   UNL     1      33.685 -10.116 -22.457  0.00  0.00    +0.147 HD
BRANCH  20  22
ATOM     22  C   UNL     1      34.540 -10.047 -24.359  0.00  0.00    +0.121 C 
BRANCH  22  24
ATOM     23  S   UNL     1      33.505 -12.498 -23.626  0.00  0.00    -0.089 S 
ATOM     24  C   UNL     1      34.012 -11.382 -24.806  0.00  0.00    +0.027 C 
ATOM     25  C   UNL     1      33.879 -11.842 -26.081  0.00  0.00    +0.004 C 
ATOM     26  C   UNL     1      33.340 -13.160 -26.102  0.00  0.00    +0.007 C 
ATOM     27  C   UNL     1      33.090 -13.637 -24.834  0.00  0.00    +0.035 C 
ENDBRANCH  22  24
ENDBRANCH  20  22
ENDBRANCH   2  20
TORSDOF 6
ENDMDL
MODEL 9
REMARK VINA RESULT:      -7.8      4.872      7.547
REMARK  Name = 2273
REMARK  6 active torsions:
REMARK  status: ('A' for Active; 'I' for Inactive)
REMARK    1  A    between atoms: C_2  and  N_20
REMARK    2  A    between atoms: C_3  and  C_12
REMARK    3  A    between atoms: C_4  and  S_14
REMARK    4  A    between atoms: S_14  and  N_17
REMARK    5  A    between atoms: N_20  and  C_22
REMARK    6  A    between atoms: C_22  and  C_24
REMARK                            x       y       z     vdW  Elec       q    Type
REMARK                         _______ _______ _______ _____ _____    ______ ____
ROOT
ATOM      1 CL   UNL     1      32.700 -19.824 -21.449  0.00  0.00    -0.081 Cl
ATOM      2  C   UNL     1      33.901 -22.110 -18.409  0.00  0.00    +0.055 C 
ATOM      3  C   UNL     1      35.266 -21.837 -18.326  0.00  0.00    +0.080 C 
ATOM      4  C   UNL     1      35.073 -20.306 -20.184  0.00  0.00    +0.133 C 
ATOM      5  C   UNL     1      35.853 -20.936 -19.213  0.00  0.00    +0.032 C 
ATOM      6  C   UNL     1      33.122 -21.480 -19.379  0.00  0.00    +0.028 C 
ATOM      7  C   UNL     1      33.708 -20.578 -20.267  0.00  0.00    +0.077 C 
ENDROOT
BRANCH   3  12
ATOM      8  N   UNL     1      37.378 -22.161 -17.146  0.00  0.00    -0.110 NA
ATOM      9  N   UNL     1      35.624 -23.444 -16.510  0.00  0.00    -0.087 NA
ATOM     10  N   UNL     1      37.657 -23.013 -16.150  0.00  0.00    -0.140 N 
ATOM     11  N   UNL     1      36.647 -23.793 -15.740  0.00  0.00    -0.022 NA
ATOM     12  C   UNL     1      36.096 -22.471 -17.334  0.00  0.00    +0.075 C 
ATOM     13  H   UNL     1      38.552 -23.063 -15.743  0.00  0.00    +0.197 HD
ENDBRANCH   3  12
BRANCH   4  14
ATOM     14  S   UNL     1      35.864 -19.183 -21.272  0.00  0.00    +0.058 S 
ATOM     15  O   UNL     1      37.295 -19.239 -21.022  0.00  0.00    -0.153 OA
ATOM     16  O   UNL     1      35.351 -19.411 -22.614  0.00  0.00    -0.153 OA
BRANCH  14  17
ATOM     17  N   UNL     1      35.257 -17.696 -20.694  0.00  0.00    -0.203 NA
ATOM     18  H   UNL     1      34.281 -17.809 -20.419  0.00  0.00    +0.144 HD
ATOM     19  H   UNL     1      35.324 -16.992 -21.430  0.00  0.00    +0.144 HD
ENDBRANCH  14  17
ENDBRANCH   4  14
BRANCH   2  20
ATOM     20  N   UNL     1      33.280 -23.020 -17.522  0.00  0.00    -0.328 N 
ATOM     21  H   UNL     1      33.773 -23.829 -17.256  0.00  0.00    +0.147 HD
BRANCH  20  22
ATOM     22  C   UNL     1      31.969 -22.812 -16.996  0.00  0.00    +0.121 C 
BRANCH  22  24
ATOM     23  S   UNL     1      30.282 -24.469 -15.573  0.00  0.00    -0.089 S 
ATOM     24  C   UNL     1      31.758 -23.646 -15.762  0.00  0.00    +0.027 C 
ATOM     25  C   UNL     1      32.625 -23.839 -14.729  0.00  0.00    +0.004 C 
ATOM     26  C   UNL     1      32.065 -24.696 -13.738  0.00  0.00    +0.007 C 
ATOM     27  C   UNL     1      30.795 -25.112 -14.071  0.00  0.00    +0.035 C 
ENDBRANCH  22  24
ENDBRANCH  20  22
ENDBRANCH   2  20
TORSDOF 6
ENDMDL
