MODEL 1
REMARK VINA RESULT:     -10.8      0.000      0.000
REMARK  Name = 78357816
REMARK  8 active torsions:
REMARK  status: ('A' for Active; 'I' for Inactive)
REMARK    1  A    between atoms: C_1  and  C_19
REMARK    2  A    between atoms: C_9  and  O_11
REMARK    3  A    between atoms: C_10  and  O_15
REMARK    4  A    between atoms: O_11  and  C_14
REMARK    5  A    between atoms: O_15  and  C_18
REMARK    6  A    between atoms: C_19  and  C_23
REMARK    7  A    between atoms: C_19  and  C_26
REMARK    8  A    between atoms: C_19  and  O_29
REMARK                            x       y       z     vdW  Elec       q    Type
REMARK                         _______ _______ _______ _____ _____    ______ ____
ROOT
ATOM      1  C   UNL     1      34.524 -18.877 -21.695  0.00  0.00    +0.007 C 
ATOM      2  C   UNL     1      35.488 -19.504 -20.905  0.00  0.00    -0.002 C 
ATOM      3  C   UNL     1      33.190 -19.260 -21.600  0.00  0.00    -0.002 C 
ATOM      4  C   UNL     1      35.128 -20.524 -20.009  0.00  0.00    +0.003 C 
ATOM      5  C   UNL     1      33.771 -20.914 -19.914  0.00  0.00    +0.003 C 
ATOM      6  C   UNL     1      32.814 -20.272 -20.716  0.00  0.00    -0.000 C 
ATOM      7  C   UNL     1      36.086 -21.167 -19.206  0.00  0.00    +0.040 C 
ATOM      8  C   UNL     1      33.411 -21.935 -19.019  0.00  0.00    +0.040 C 
ATOM      9  C   UNL     1      35.710 -22.177 -18.322  0.00  0.00    +0.178 C 
ATOM     10  C   UNL     1      34.376 -22.561 -18.229  0.00  0.00    +0.178 C 
ENDROOT
BRANCH   9  11
ATOM     11  O   UNL     1      36.660 -22.783 -17.557  0.00  0.00    -0.421 OA
BRANCH  11  14
ATOM     12  F   UNL     1      38.241 -22.697 -15.938  0.00  0.00    -0.155 F 
ATOM     13  F   UNL     1      36.196 -22.128 -15.463  0.00  0.00    -0.155 F 
ATOM     14  C   UNL     1      37.147 -22.065 -16.431  0.00  0.00    +0.509 C 
ENDBRANCH  11  14
ENDBRANCH   9  11
BRANCH  10  15
ATOM     15  O   UNL     1      33.997 -23.549 -17.369  0.00  0.00    -0.421 OA
BRANCH  15  18
ATOM     16  F   UNL     1      31.897 -23.670 -16.595  0.00  0.00    -0.155 F 
ATOM     17  F   UNL     1      33.532 -23.816 -15.169  0.00  0.00    -0.155 F 
ATOM     18  C   UNL     1      33.131 -23.187 -16.300  0.00  0.00    +0.509 C 
ENDBRANCH  15  18
ENDBRANCH  10  15
BRANCH   1  19
ATOM     19  C   UNL     1      34.924 -17.796 -22.640  0.00  0.00    +0.145 C 
BRANCH  19  23
ATOM     20  N   UNL     1      34.997 -16.030 -20.842  0.00  0.00    -0.165 NA
ATOM     21  N   UNL     1      34.452 -14.808 -20.739  0.00  0.00    -0.157 N 
ATOM     22  N   UNL     1      33.701 -14.353 -21.756  0.00  0.00    -0.162 NA
ATOM     23  C   UNL     1      34.554 -16.405 -22.046  0.00  0.00    +0.126 C 
ATOM     24  C   UNL     1      33.767 -15.386 -22.601  0.00  0.00    +0.138 C 
ATOM     25  H   UNL     1      34.600 -14.257 -19.937  0.00  0.00    +0.197 HD
ENDBRANCH  19  23
BRANCH  19  26
ATOM     26  C   UNL     1      34.362 -17.919 -24.135  0.00  0.00    +0.034 C 
ATOM     27  C   UNL     1      34.666 -19.297 -24.757  0.00  0.00    +0.003 C 
ATOM     28  C   UNL     1      34.912 -16.852 -25.103  0.00  0.00    +0.003 C 
ENDBRANCH  19  26
BRANCH  19  29
ATOM     29  O   UNL     1      36.371 -17.794 -22.841  0.00  0.00    -0.377 OA
ATOM     30  H   UNL     1      36.651 -18.658 -23.184  0.00  0.00    +0.211 HD
ENDBRANCH  19  29
ENDBRANCH   1  19
TORSDOF 8
ENDMDL
MODEL 2
REMARK VINA RESULT:     -10.5      1.260      2.737
REMARK  Name = 78357816
REMARK  8 active torsions:
REMARK  status: ('A' for Active; 'I' for Inactive)
REMARK    1  A    between atoms: C_1  and  C_19
REMARK    2  A    between atoms: C_9  and  O_11
REMARK    3  A    between atoms: C_10  and  O_15
REMARK    4  A    between atoms: O_11  and  C_14
REMARK    5  A    between atoms: O_15  and  C_18
REMARK    6  A    between atoms: C_19  and  C_23
REMARK    7  A    between atoms: C_19  and  C_26
REMARK    8  A    between atoms: C_19  and  O_29
REMARK                            x       y       z     vdW  Elec       q    Type
REMARK                         _______ _______ _______ _____ _____    ______ ____
ROOT
ATOM      1  C   UNL     1      35.332 -19.055 -21.310  0.00  0.00    +0.007 C 
ATOM      2  C   UNL     1      34.178 -19.687 -20.847  0.00  0.00    -0.002 C 
ATOM      3  C   UNL     1      36.579 -19.441 -20.828  0.00  0.00    -0.002 C 
ATOM      4  C   UNL     1      34.258 -20.716 -19.893  0.00  0.00    +0.003 C 
ATOM      5  C   UNL     1      35.527 -21.108 -19.403  0.00  0.00    +0.003 C 
ATOM      6  C   UNL     1      36.677 -20.461 -19.881  0.00  0.00    -0.000 C 
ATOM      7  C   UNL     1      33.106 -21.363 -19.415  0.00  0.00    +0.040 C 
ATOM      8  C   UNL     1      35.606 -22.136 -18.450  0.00  0.00    +0.040 C 
ATOM      9  C   UNL     1      33.205 -22.383 -18.469  0.00  0.00    +0.178 C 
ATOM     10  C   UNL     1      34.451 -22.769 -17.987  0.00  0.00    +0.178 C 
ENDROOT
BRANCH   9  11
ATOM     11  O   UNL     1      32.070 -22.993 -18.023  0.00  0.00    -0.421 OA
BRANCH  11  14
ATOM     12  F   UNL     1      31.724 -23.791 -15.934  0.00  0.00    -0.155 F 
ATOM     13  F   UNL     1      30.319 -22.360 -16.775  0.00  0.00    -0.155 F 
ATOM     14  C   UNL     1      31.637 -22.680 -16.706  0.00  0.00    +0.509 C 
ENDBRANCH  11  14
ENDBRANCH   9  11
BRANCH  10  15
ATOM     15  O   UNL     1      34.559 -23.763 -17.061  0.00  0.00    -0.421 OA
BRANCH  15  18
ATOM     16  F   UNL     1      34.538 -22.523 -15.194  0.00  0.00    -0.155 F 
ATOM     17  F   UNL     1      35.277 -24.564 -15.069  0.00  0.00    -0.155 F 
ATOM     18  C   UNL     1      35.257 -23.464 -15.859  0.00  0.00    +0.509 C 
ENDBRANCH  15  18
ENDBRANCH  10  15
BRANCH   1  19
ATOM     19  C   UNL     1      35.229 -17.965 -22.321  0.00  0.00    +0.145 C 
BRANCH  19  23
ATOM     20  N   UNL     1      35.028 -16.242 -20.491  0.00  0.00    -0.165 NA
ATOM     21  N   UNL     1      34.234 -15.172 -20.326  0.00  0.00    -0.157 N 
ATOM     22  N   UNL     1      33.336 -14.887 -21.283  0.00  0.00    -0.162 NA
ATOM     23  C   UNL     1      34.600 -16.695 -21.673  0.00  0.00    +0.126 C 
ATOM     24  C   UNL     1      33.572 -15.872 -22.154  0.00  0.00    +0.138 C 
ATOM     25  H   UNL     1      34.310 -14.609 -19.522  0.00  0.00    +0.197 HD
ENDBRANCH  19  23
BRANCH  19  26
ATOM     26  C   UNL     1      34.455 -18.327 -23.677  0.00  0.00    +0.034 C 
ATOM     27  C   UNL     1      34.869 -19.705 -24.229  0.00  0.00    +0.003 C 
ATOM     28  C   UNL     1      34.660 -17.301 -24.810  0.00  0.00    +0.003 C 
ENDBRANCH  19  26
BRANCH  19  29
ATOM     29  O   UNL     1      36.552 -17.577 -22.802  0.00  0.00    -0.377 OA
ATOM     30  H   UNL     1      36.510 -16.684 -23.181  0.00  0.00    +0.211 HD
ENDBRANCH  19  29
ENDBRANCH   1  19
TORSDOF 8
ENDMDL
MODEL 3
REMARK VINA RESULT:      -9.8      5.496      8.878
REMARK  Name = 78357816
REMARK  8 active torsions:
REMARK  status: ('A' for Active; 'I' for Inactive)
REMARK    1  A    between atoms: C_1  and  C_19
REMARK    2  A    between atoms: C_9  and  O_11
REMARK    3  A    between atoms: C_10  and  O_15
REMARK    4  A    between atoms: O_11  and  C_14
REMARK    5  A    between atoms: O_15  and  C_18
REMARK    6  A    between atoms: C_19  and  C_23
REMARK    7  A    between atoms: C_19  and  C_26
REMARK    8  A    between atoms: C_19  and  O_29
REMARK                            x       y       z     vdW  Elec       q    Type
REMARK                         _______ _______ _______ _____ _____    ______ ____
ROOT
ATOM      1  C   UNL     1      36.110 -23.284 -15.049  0.00  0.00    +0.007 C 
ATOM      2  C   UNL     1      36.657 -22.615 -16.144  0.00  0.00    -0.002 C 
ATOM      3  C   UNL     1      34.778 -23.686 -15.073  0.00  0.00    -0.002 C 
ATOM      4  C   UNL     1      35.876 -22.338 -17.278  0.00  0.00    +0.003 C 
ATOM      5  C   UNL     1      34.521 -22.747 -17.302  0.00  0.00    +0.003 C 
ATOM      6  C   UNL     1      33.987 -23.419 -16.191  0.00  0.00    -0.000 C 
ATOM      7  C   UNL     1      36.411 -21.664 -18.390  0.00  0.00    +0.040 C 
ATOM      8  C   UNL     1      33.741 -22.469 -18.436  0.00  0.00    +0.040 C 
ATOM      9  C   UNL     1      35.621 -21.399 -19.508  0.00  0.00    +0.178 C 
ATOM     10  C   UNL     1      34.289 -21.800 -19.531  0.00  0.00    +0.178 C 
ENDROOT
BRANCH   9  11
ATOM     11  O   UNL     1      36.166 -20.743 -20.571  0.00  0.00    -0.421 OA
BRANCH  11  14
ATOM     12  F   UNL     1      35.947 -18.505 -20.830  0.00  0.00    -0.155 F 
ATOM     13  F   UNL     1      37.913 -19.414 -21.023  0.00  0.00    -0.155 F 
ATOM     14  C   UNL     1      36.751 -19.472 -20.323  0.00  0.00    +0.509 C 
ENDBRANCH  11  14
ENDBRANCH   9  11
BRANCH  10  15
ATOM     15  O   UNL     1      33.507 -21.545 -20.618  0.00  0.00    -0.421 OA
BRANCH  15  18
ATOM     16  F   UNL     1      32.313 -20.198 -19.281  0.00  0.00    -0.155 F 
ATOM     17  F   UNL     1      33.422 -19.302 -20.923  0.00  0.00    -0.155 F 
ATOM     18  C   UNL     1      32.685 -20.385 -20.574  0.00  0.00    +0.509 C 
ENDBRANCH  15  18
ENDBRANCH  10  15
BRANCH   1  19
ATOM     19  C   UNL     1      36.953 -23.569 -13.853  0.00  0.00    +0.145 C 
BRANCH  19  23
ATOM     20  N   UNL     1      39.065 -24.928 -13.632  0.00  0.00    -0.165 NA
ATOM     21  N   UNL     1      39.416 -26.148 -14.068  0.00  0.00    -0.157 N 
ATOM     22  N   UNL     1      38.520 -26.860 -14.771  0.00  0.00    -0.162 NA
ATOM     23  C   UNL     1      37.817 -24.841 -14.102  0.00  0.00    +0.126 C 
ATOM     24  C   UNL     1      37.486 -26.015 -14.793  0.00  0.00    +0.138 C 
ATOM     25  H   UNL     1      40.309 -26.514 -13.874  0.00  0.00    +0.197 HD
ENDBRANCH  19  23
BRANCH  19  26
ATOM     26  C   UNL     1      36.180 -23.697 -12.456  0.00  0.00    +0.034 C 
ATOM     27  C   UNL     1      36.912 -22.956 -11.319  0.00  0.00    +0.003 C 
ATOM     28  C   UNL     1      35.964 -25.150 -11.988  0.00  0.00    +0.003 C 
ENDBRANCH  19  26
BRANCH  19  29
ATOM     29  O   UNL     1      37.885 -22.472 -13.604  0.00  0.00    -0.377 OA
ATOM     30  H   UNL     1      37.536 -21.906 -12.896  0.00  0.00    +0.211 HD
ENDBRANCH  19  29
ENDBRANCH   1  19
TORSDOF 8
ENDMDL
MODEL 4
REMARK VINA RESULT:      -9.2      5.136      7.838
REMARK  Name = 78357816
REMARK  8 active torsions:
REMARK  status: ('A' for Active; 'I' for Inactive)
REMARK    1  A    between atoms: C_1  and  C_19
REMARK    2  A    between atoms: C_9  and  O_11
REMARK    3  A    between atoms: C_10  and  O_15
REMARK    4  A    between atoms: O_11  and  C_14
REMARK    5  A    between atoms: O_15  and  C_18
REMARK    6  A    between atoms: C_19  and  C_23
REMARK    7  A    between atoms: C_19  and  C_26
REMARK    8  A    between atoms: C_19  and  O_29
REMARK                            x       y       z     vdW  Elec       q    Type
REMARK                         _______ _______ _______ _____ _____    ______ ____
ROOT
ATOM      1  C   UNL     1      32.417 -12.348 -22.129  0.00  0.00    +0.007 C 
ATOM      2  C   UNL     1      32.666 -13.461 -21.326  0.00  0.00    -0.002 C 
ATOM      3  C   UNL     1      32.825 -12.343 -23.459  0.00  0.00    -0.002 C 
ATOM      4  C   UNL     1      33.329 -14.585 -21.845  0.00  0.00    +0.003 C 
ATOM      5  C   UNL     1      33.745 -14.580 -23.198  0.00  0.00    +0.003 C 
ATOM      6  C   UNL     1      33.485 -13.452 -23.992  0.00  0.00    -0.000 C 
ATOM      7  C   UNL     1      33.589 -15.715 -21.050  0.00  0.00    +0.040 C 
ATOM      8  C   UNL     1      34.407 -15.705 -23.716  0.00  0.00    +0.040 C 
ATOM      9  C   UNL     1      34.247 -16.822 -21.583  0.00  0.00    +0.178 C 
ATOM     10  C   UNL     1      34.656 -16.818 -22.912  0.00  0.00    +0.178 C 
ENDROOT
BRANCH   9  11
ATOM     11  O   UNL     1      34.486 -17.904 -20.788  0.00  0.00    -0.421 OA
BRANCH  11  14
ATOM     12  F   UNL     1      32.437 -18.831 -20.530  0.00  0.00    -0.155 F 
ATOM     13  F   UNL     1      34.207 -20.062 -20.248  0.00  0.00    -0.155 F 
ATOM     14  C   UNL     1      33.687 -19.060 -21.003  0.00  0.00    +0.509 C 
ENDBRANCH  11  14
ENDBRANCH   9  11
BRANCH  10  15
ATOM     15  O   UNL     1      35.302 -17.895 -23.443  0.00  0.00    -0.421 OA
BRANCH  15  18
ATOM     16  F   UNL     1      34.834 -18.184 -25.616  0.00  0.00    -0.155 F 
ATOM     17  F   UNL     1      35.082 -19.949 -24.371  0.00  0.00    -0.155 F 
ATOM     18  C   UNL     1      34.584 -18.689 -24.380  0.00  0.00    +0.509 C 
ENDBRANCH  15  18
ENDBRANCH  10  15
BRANCH   1  19
ATOM     19  C   UNL     1      31.713 -11.162 -21.562  0.00  0.00    +0.145 C 
BRANCH  19  23
ATOM     20  N   UNL     1      30.840  -9.286 -23.001  0.00  0.00    -0.165 NA
ATOM     21  N   UNL     1      31.445  -8.335 -23.730  0.00  0.00    -0.157 N 
ATOM     22  N   UNL     1      32.788  -8.304 -23.754  0.00  0.00    -0.162 NA
ATOM     23  C   UNL     1      31.896  -9.934 -22.503  0.00  0.00    +0.126 C 
ATOM     24  C   UNL     1      33.080  -9.337 -22.960  0.00  0.00    +0.138 C 
ATOM     25  H   UNL     1      30.917  -7.676 -24.236  0.00  0.00    +0.197 HD
ENDBRANCH  19  23
BRANCH  19  26
ATOM     26  C   UNL     1      32.099 -10.762 -20.059  0.00  0.00    +0.034 C 
ATOM     27  C   UNL     1      31.019 -11.198 -19.049  0.00  0.00    +0.003 C 
ATOM     28  C   UNL     1      32.334  -9.253 -19.851  0.00  0.00    +0.003 C 
ENDBRANCH  19  26
BRANCH  19  29
ATOM     29  O   UNL     1      30.277 -11.409 -21.469  0.00  0.00    -0.377 OA
ATOM     30  H   UNL     1      29.874 -11.305 -22.346  0.00  0.00    +0.211 HD
ENDBRANCH  19  29
ENDBRANCH   1  19
TORSDOF 8
ENDMDL
MODEL 5
REMARK VINA RESULT:      -9.2      6.680      9.830
REMARK  Name = 78357816
REMARK  8 active torsions:
REMARK  status: ('A' for Active; 'I' for Inactive)
REMARK    1  A    between atoms: C_1  and  C_19
REMARK    2  A    between atoms: C_9  and  O_11
REMARK    3  A    between atoms: C_10  and  O_15
REMARK    4  A    between atoms: O_11  and  C_14
REMARK    5  A    between atoms: O_15  and  C_18
REMARK    6  A    between atoms: C_19  and  C_23
REMARK    7  A    between atoms: C_19  and  C_26
REMARK    8  A    between atoms: C_19  and  O_29
REMARK                            x       y       z     vdW  Elec       q    Type
REMARK                         _______ _______ _______ _____ _____    ______ ____
ROOT
ATOM      1  C   UNL     1      33.269  -9.494 -23.435  0.00  0.00    +0.007 C 
ATOM      2  C   UNL     1      32.751 -10.526 -22.652  0.00  0.00    -0.002 C 
ATOM      3  C   UNL     1      33.999  -9.789 -24.581  0.00  0.00    -0.002 C 
ATOM      4  C   UNL     1      32.959 -11.869 -23.008  0.00  0.00    +0.003 C 
ATOM      5  C   UNL     1      33.703 -12.168 -24.175  0.00  0.00    +0.003 C 
ATOM      6  C   UNL     1      34.216 -11.117 -24.950  0.00  0.00    -0.000 C 
ATOM      7  C   UNL     1      32.445 -12.922 -22.232  0.00  0.00    +0.040 C 
ATOM      8  C   UNL     1      33.911 -13.511 -24.530  0.00  0.00    +0.040 C 
ATOM      9  C   UNL     1      32.661 -14.249 -22.601  0.00  0.00    +0.178 C 
ATOM     10  C   UNL     1      33.393 -14.544 -23.747  0.00  0.00    +0.178 C 
ENDROOT
BRANCH   9  11
ATOM     11  O   UNL     1      32.151 -15.249 -21.829  0.00  0.00    -0.421 OA
BRANCH  11  14
ATOM     12  F   UNL     1      32.350 -14.871 -19.605  0.00  0.00    -0.155 F 
ATOM     13  F   UNL     1      34.142 -15.167 -20.801  0.00  0.00    -0.155 F 
ATOM     14  C   UNL     1      32.860 -15.582 -20.642  0.00  0.00    +0.509 C 
ENDBRANCH  11  14
ENDBRANCH   9  11
BRANCH  10  15
ATOM     15  O   UNL     1      33.610 -15.837 -24.117  0.00  0.00    -0.421 OA
BRANCH  15  18
ATOM     16  F   UNL     1      34.835 -17.204 -22.829  0.00  0.00    -0.155 F 
ATOM     17  F   UNL     1      35.267 -17.132 -24.959  0.00  0.00    -0.155 F 
ATOM     18  C   UNL     1      34.911 -16.369 -23.897  0.00  0.00    +0.509 C 
ENDBRANCH  15  18
ENDBRANCH  10  15
BRANCH   1  19
ATOM     19  C   UNL     1      33.039  -8.075 -23.041  0.00  0.00    +0.145 C 
BRANCH  19  23
ATOM     20  N   UNL     1      33.329  -7.015 -20.772  0.00  0.00    -0.165 NA
ATOM     21  N   UNL     1      32.848  -7.316 -19.555  0.00  0.00    -0.157 N 
ATOM     22  N   UNL     1      32.040  -8.381 -19.430  0.00  0.00    -0.162 NA
ATOM     23  C   UNL     1      32.777  -7.983 -21.508  0.00  0.00    +0.126 C 
ATOM     24  C   UNL     1      31.993  -8.813 -20.693  0.00  0.00    +0.138 C 
ATOM     25  H   UNL     1      33.082  -6.766 -18.772  0.00  0.00    +0.197 HD
ENDBRANCH  19  23
BRANCH  19  26
ATOM     26  C   UNL     1      31.890  -7.295 -23.840  0.00  0.00    +0.034 C 
ATOM     27  C   UNL     1      32.456  -6.136 -24.684  0.00  0.00    +0.003 C 
ATOM     28  C   UNL     1      30.786  -6.706 -22.939  0.00  0.00    +0.003 C 
ENDBRANCH  19  26
BRANCH  19  29
ATOM     29  O   UNL     1      34.223  -7.264 -23.312  0.00  0.00    -0.377 OA
ATOM     30  H   UNL     1      34.178  -6.918 -24.218  0.00  0.00    +0.211 HD
ENDBRANCH  19  29
ENDBRANCH   1  19
TORSDOF 8
ENDMDL
MODEL 6
REMARK VINA RESULT:      -9.1      8.752     12.096
REMARK  Name = 78357816
REMARK  8 active torsions:
REMARK  status: ('A' for Active; 'I' for Inactive)
REMARK    1  A    between atoms: C_1  and  C_19
REMARK    2  A    between atoms: C_9  and  O_11
REMARK    3  A    between atoms: C_10  and  O_15
REMARK    4  A    between atoms: O_11  and  C_14
REMARK    5  A    between atoms: O_15  and  C_18
REMARK    6  A    between atoms: C_19  and  C_23
REMARK    7  A    between atoms: C_19  and  C_26
REMARK    8  A    between atoms: C_19  and  O_29
REMARK                            x       y       z     vdW  Elec       q    Type
REMARK                         _______ _______ _______ _____ _____    ______ ____
ROOT
ATOM      1  C   UNL     1      32.979 -13.025 -22.725  0.00  0.00    +0.007 C 
ATOM      2  C   UNL     1      33.479 -11.892 -23.368  0.00  0.00    -0.002 C 
ATOM      3  C   UNL     1      31.875 -12.919 -21.886  0.00  0.00    -0.002 C 
ATOM      4  C   UNL     1      32.879 -10.637 -23.177  0.00  0.00    +0.003 C 
ATOM      5  C   UNL     1      31.756 -10.529 -22.322  0.00  0.00    +0.003 C 
ATOM      6  C   UNL     1      31.266 -11.680 -21.684  0.00  0.00    -0.000 C 
ATOM      7  C   UNL     1      33.369  -9.485 -23.816  0.00  0.00    +0.040 C 
ATOM      8  C   UNL     1      31.156  -9.274 -22.132  0.00  0.00    +0.040 C 
ATOM      9  C   UNL     1      32.760  -8.247 -23.615  0.00  0.00    +0.178 C 
ATOM     10  C   UNL     1      31.657  -8.141 -22.775  0.00  0.00    +0.178 C 
ENDROOT
BRANCH   9  11
ATOM     11  O   UNL     1      33.257  -7.147 -24.247  0.00  0.00    -0.421 OA
BRANCH  11  14
ATOM     12  F   UNL     1      35.351  -7.045 -23.392  0.00  0.00    -0.155 F 
ATOM     13  F   UNL     1      34.907  -6.008 -25.252  0.00  0.00    -0.155 F 
ATOM     14  C   UNL     1      34.647  -7.140 -24.548  0.00  0.00    +0.509 C 
ENDBRANCH  11  14
ENDBRANCH   9  11
BRANCH  10  15
ATOM     15  O   UNL     1      31.054  -6.935 -22.571  0.00  0.00    -0.421 OA
BRANCH  15  18
ATOM     16  F   UNL     1      32.405  -5.263 -21.935  0.00  0.00    -0.155 F 
ATOM     17  F   UNL     1      30.463  -5.441 -20.975  0.00  0.00    -0.155 F 
ATOM     18  C   UNL     1      31.501  -6.161 -21.465  0.00  0.00    +0.509 C 
ENDBRANCH  15  18
ENDBRANCH  10  15
BRANCH   1  19
ATOM     19  C   UNL     1      33.629 -14.350 -22.939  0.00  0.00    +0.145 C 
BRANCH  19  23
ATOM     20  N   UNL     1      32.527 -14.196 -25.201  0.00  0.00    -0.165 NA
ATOM     21  N   UNL     1      32.630 -14.931 -26.320  0.00  0.00    -0.157 N 
ATOM     22  N   UNL     1      33.470 -15.979 -26.323  0.00  0.00    -0.162 NA
ATOM     23  C   UNL     1      33.385 -14.833 -24.399  0.00  0.00    +0.126 C 
ATOM     24  C   UNL     1      33.958 -15.916 -25.081  0.00  0.00    +0.138 C 
ATOM     25  H   UNL     1      32.104 -14.705 -27.120  0.00  0.00    +0.197 HD
ENDBRANCH  19  23
BRANCH  19  26
ATOM     26  C   UNL     1      33.232 -15.508 -21.905  0.00  0.00    +0.034 C 
ATOM     27  C   UNL     1      33.039 -14.967 -20.475  0.00  0.00    +0.003 C 
ATOM     28  C   UNL     1      34.259 -16.656 -21.823  0.00  0.00    +0.003 C 
ENDBRANCH  19  26
BRANCH  19  29
ATOM     29  O   UNL     1      35.076 -14.250 -22.767  0.00  0.00    -0.377 OA
ATOM     30  H   UNL     1      35.518 -14.521 -23.588  0.00  0.00    +0.211 HD
ENDBRANCH  19  29
ENDBRANCH   1  19
TORSDOF 8
ENDMDL
MODEL 7
REMARK VINA RESULT:      -8.9      7.081     10.094
REMARK  Name = 78357816
REMARK  8 active torsions:
REMARK  status: ('A' for Active; 'I' for Inactive)
REMARK    1  A    between atoms: C_1  and  C_19
REMARK    2  A    between atoms: C_9  and  O_11
REMARK    3  A    between atoms: C_10  and  O_15
REMARK    4  A    between atoms: O_11  and  C_14
REMARK    5  A    between atoms: O_15  and  C_18
REMARK    6  A    between atoms: C_19  and  C_23
REMARK    7  A    between atoms: C_19  and  C_26
REMARK    8  A    between atoms: C_19  and  O_29
REMARK                            x       y       z     vdW  Elec       q    Type
REMARK                         _______ _______ _______ _____ _____    ______ ____
ROOT
ATOM      1  C   UNL     1      31.969  -9.608 -22.192  0.00  0.00    +0.007 C 
ATOM      2  C   UNL     1      32.628 -10.452 -23.085  0.00  0.00    -0.002 C 
ATOM      3  C   UNL     1      31.422 -10.123 -21.021  0.00  0.00    -0.002 C 
ATOM      4  C   UNL     1      32.748 -11.826 -22.818  0.00  0.00    +0.003 C 
ATOM      5  C   UNL     1      32.192 -12.350 -21.626  0.00  0.00    +0.003 C 
ATOM      6  C   UNL     1      31.531 -11.485 -20.738  0.00  0.00    -0.000 C 
ATOM      7  C   UNL     1      33.409 -12.691 -23.706  0.00  0.00    +0.040 C 
ATOM      8  C   UNL     1      32.312 -13.723 -21.359  0.00  0.00    +0.040 C 
ATOM      9  C   UNL     1      33.519 -14.052 -23.423  0.00  0.00    +0.178 C 
ATOM     10  C   UNL     1      32.972 -14.568 -22.253  0.00  0.00    +0.178 C 
ENDROOT
BRANCH   9  11
ATOM     11  O   UNL     1      34.165 -14.868 -24.303  0.00  0.00    -0.421 OA
BRANCH  11  14
ATOM     12  F   UNL     1      33.782 -16.714 -25.557  0.00  0.00    -0.155 F 
ATOM     13  F   UNL     1      33.703 -14.753 -26.494  0.00  0.00    -0.155 F 
ATOM     14  C   UNL     1      33.395 -15.429 -25.358  0.00  0.00    +0.509 C 
ENDBRANCH  11  14
ENDBRANCH   9  11
BRANCH  10  15
ATOM     15  O   UNL     1      33.073 -15.896 -21.966  0.00  0.00    -0.421 OA
BRANCH  15  18
ATOM     16  F   UNL     1      35.106 -16.835 -22.083  0.00  0.00    -0.155 F 
ATOM     17  F   UNL     1      34.789 -15.234 -20.646  0.00  0.00    -0.155 F 
ATOM     18  C   UNL     1      34.202 -16.317 -21.211  0.00  0.00    +0.509 C 
ENDBRANCH  15  18
ENDBRANCH  10  15
BRANCH   1  19
ATOM     19  C   UNL     1      31.850  -8.153 -22.493  0.00  0.00    +0.145 C 
BRANCH  19  23
ATOM     20  N   UNL     1      34.351  -7.953 -22.739  0.00  0.00    -0.165 NA
ATOM     21  N   UNL     1      35.134  -7.334 -23.636  0.00  0.00    -0.157 N 
ATOM     22  N   UNL     1      34.550  -6.663 -24.642  0.00  0.00    -0.162 NA
ATOM     23  C   UNL     1      33.138  -7.651 -23.210  0.00  0.00    +0.126 C 
ATOM     24  C   UNL     1      33.259  -6.867 -24.367  0.00  0.00    +0.138 C 
ATOM     25  H   UNL     1      36.115  -7.374 -23.559  0.00  0.00    +0.197 HD
ENDBRANCH  19  23
BRANCH  19  26
ATOM     26  C   UNL     1      31.506  -7.198 -21.253  0.00  0.00    +0.034 C 
ATOM     27  C   UNL     1      31.146  -5.769 -21.704  0.00  0.00    +0.003 C 
ATOM     28  C   UNL     1      32.645  -7.076 -20.220  0.00  0.00    +0.003 C 
ENDBRANCH  19  26
BRANCH  19  29
ATOM     29  O   UNL     1      30.738  -7.902 -23.406  0.00  0.00    -0.377 OA
ATOM     30  H   UNL     1      30.163  -7.214 -23.035  0.00  0.00    +0.211 HD
ENDBRANCH  19  29
ENDBRANCH   1  19
TORSDOF 8
ENDMDL
MODEL 8
REMARK VINA RESULT:      -8.9      6.852      9.747
REMARK  Name = 78357816
REMARK  8 active torsions:
REMARK  status: ('A' for Active; 'I' for Inactive)
REMARK    1  A    between atoms: C_1  and  C_19
REMARK    2  A    between atoms: C_9  and  O_11
REMARK    3  A    between atoms: C_10  and  O_15
REMARK    4  A    between atoms: O_11  and  C_14
REMARK    5  A    between atoms: O_15  and  C_18
REMARK    6  A    between atoms: C_19  and  C_23
REMARK    7  A    between atoms: C_19  and  C_26
REMARK    8  A    between atoms: C_19  and  O_29
REMARK                            x       y       z     vdW  Elec       q    Type
REMARK                         _______ _______ _______ _____ _____    ______ ____
ROOT
ATOM      1  C   UNL     1      34.264 -16.245 -22.106  0.00  0.00    +0.007 C 
ATOM      2  C   UNL     1      34.490 -15.173 -22.970  0.00  0.00    -0.002 C 
ATOM      3  C   UNL     1      33.297 -16.145 -21.111  0.00  0.00    -0.002 C 
ATOM      4  C   UNL     1      33.750 -13.986 -22.849  0.00  0.00    +0.003 C 
ATOM      5  C   UNL     1      32.766 -13.885 -21.836  0.00  0.00    +0.003 C 
ATOM      6  C   UNL     1      32.551 -14.973 -20.976  0.00  0.00    -0.000 C 
ATOM      7  C   UNL     1      33.965 -12.897 -23.710  0.00  0.00    +0.040 C 
ATOM      8  C   UNL     1      32.025 -12.697 -21.715  0.00  0.00    +0.040 C 
ATOM      9  C   UNL     1      33.219 -11.726 -23.575  0.00  0.00    +0.178 C 
ATOM     10  C   UNL     1      32.252 -11.626 -22.580  0.00  0.00    +0.178 C 
ENDROOT
BRANCH   9  11
ATOM     11  O   UNL     1      33.449 -10.685 -24.424  0.00  0.00    -0.421 OA
BRANCH  11  14
ATOM     12  F   UNL     1      34.577  -8.723 -24.355  0.00  0.00    -0.155 F 
ATOM     13  F   UNL     1      35.377 -10.372 -25.526  0.00  0.00    -0.155 F 
ATOM     14  C   UNL     1      34.730 -10.071 -24.370  0.00  0.00    +0.509 C 
ENDBRANCH  11  14
ENDBRANCH   9  11
BRANCH  10  15
ATOM     15  O   UNL     1      31.518 -10.486 -22.438  0.00  0.00    -0.421 OA
BRANCH  15  18
ATOM     16  F   UNL     1      31.584  -8.313 -21.891  0.00  0.00    -0.155 F 
ATOM     17  F   UNL     1      31.283  -9.768 -20.304  0.00  0.00    -0.155 F 
ATOM     18  C   UNL     1      31.952  -9.547 -21.462  0.00  0.00    +0.509 C 
ENDBRANCH  15  18
ENDBRANCH  10  15
BRANCH   1  19
ATOM     19  C   UNL     1      35.060 -17.497 -22.249  0.00  0.00    +0.145 C 
BRANCH  19  23
ATOM     20  N   UNL     1      35.036 -19.467 -23.822  0.00  0.00    -0.165 NA
ATOM     21  N   UNL     1      34.593 -19.627 -25.079  0.00  0.00    -0.157 N 
ATOM     22  N   UNL     1      34.033 -18.575 -25.700  0.00  0.00    -0.162 NA
ATOM     23  C   UNL     1      34.734 -18.183 -23.608  0.00  0.00    +0.126 C 
ATOM     24  C   UNL     1      34.124 -17.642 -24.749  0.00  0.00    +0.138 C 
ATOM     25  H   UNL     1      34.675 -20.496 -25.535  0.00  0.00    +0.197 HD
ENDBRANCH  19  23
BRANCH  19  26
ATOM     26  C   UNL     1      34.931 -18.558 -21.055  0.00  0.00    +0.034 C 
ATOM     27  C   UNL     1      36.245 -19.330 -20.822  0.00  0.00    +0.003 C 
ATOM     28  C   UNL     1      33.819 -19.606 -21.263  0.00  0.00    +0.003 C 
ENDBRANCH  19  26
BRANCH  19  29
ATOM     29  O   UNL     1      36.491 -17.202 -22.261  0.00  0.00    -0.377 OA
ATOM     30  H   UNL     1      36.959 -17.852 -21.712  0.00  0.00    +0.211 HD
ENDBRANCH  19  29
ENDBRANCH   1  19
TORSDOF 8
ENDMDL
MODEL 9
REMARK VINA RESULT:      -8.6      5.144      7.864
REMARK  Name = 78357816
REMARK  8 active torsions:
REMARK  status: ('A' for Active; 'I' for Inactive)
REMARK    1  A    between atoms: C_1  and  C_19
REMARK    2  A    between atoms: C_9  and  O_11
REMARK    3  A    between atoms: C_10  and  O_15
REMARK    4  A    between atoms: O_11  and  C_14
REMARK    5  A    between atoms: O_15  and  C_18
REMARK    6  A    between atoms: C_19  and  C_23
REMARK    7  A    between atoms: C_19  and  C_26
REMARK    8  A    between atoms: C_19  and  O_29
REMARK                            x       y       z     vdW  Elec       q    Type
REMARK                         _______ _______ _______ _____ _____    ______ ____
ROOT
ATOM      1  C   UNL     1      32.277 -12.770 -21.278  0.00  0.00    +0.007 C 
ATOM      2  C   UNL     1      32.862 -13.281 -22.437  0.00  0.00    -0.002 C 
ATOM      3  C   UNL     1      32.280 -13.520 -20.107  0.00  0.00    -0.002 C 
ATOM      4  C   UNL     1      33.459 -14.553 -22.438  0.00  0.00    +0.003 C 
ATOM      5  C   UNL     1      33.462 -15.316 -21.245  0.00  0.00    +0.003 C 
ATOM      6  C   UNL     1      32.869 -14.786 -20.089  0.00  0.00    -0.000 C 
ATOM      7  C   UNL     1      34.053 -15.083 -23.595  0.00  0.00    +0.040 C 
ATOM      8  C   UNL     1      34.059 -16.587 -21.246  0.00  0.00    +0.040 C 
ATOM      9  C   UNL     1      34.642 -16.347 -23.577  0.00  0.00    +0.178 C 
ATOM     10  C   UNL     1      34.644 -17.098 -22.405  0.00  0.00    +0.178 C 
ENDROOT
BRANCH   9  11
ATOM     11  O   UNL     1      35.210 -16.837 -24.715  0.00  0.00    -0.421 OA
BRANCH  11  14
ATOM     12  F   UNL     1      33.261 -16.689 -25.858  0.00  0.00    -0.155 F 
ATOM     13  F   UNL     1      33.899 -18.618 -25.082  0.00  0.00    -0.155 F 
ATOM     14  C   UNL     1      34.350 -17.471 -25.652  0.00  0.00    +0.509 C 
ENDBRANCH  11  14
ENDBRANCH   9  11
BRANCH  10  15
ATOM     15  O   UNL     1      35.216 -18.335 -22.376  0.00  0.00    -0.421 OA
BRANCH  15  18
ATOM     16  F   UNL     1      33.558 -19.762 -21.884  0.00  0.00    -0.155 F 
ATOM     17  F   UNL     1      35.586 -20.302 -21.316  0.00  0.00    -0.155 F 
ATOM     18  C   UNL     1      34.727 -19.258 -21.411  0.00  0.00    +0.509 C 
ENDBRANCH  15  18
ENDBRANCH  10  15
BRANCH   1  19
ATOM     19  C   UNL     1      31.647 -11.419 -21.296  0.00  0.00    +0.145 C 
BRANCH  19  23
ATOM     20  N   UNL     1      31.455  -9.619 -23.051  0.00  0.00    -0.165 NA
ATOM     21  N   UNL     1      32.276  -9.204 -24.029  0.00  0.00    -0.157 N 
ATOM     22  N   UNL     1      33.463  -9.817 -24.172  0.00  0.00    -0.162 NA
ATOM     23  C   UNL     1      32.182 -10.598 -22.508  0.00  0.00    +0.126 C 
ATOM     24  C   UNL     1      33.403 -10.718 -23.188  0.00  0.00    +0.138 C 
ATOM     25  H   UNL     1      32.014  -8.467 -24.626  0.00  0.00    +0.197 HD
ENDBRANCH  19  23
BRANCH  19  26
ATOM     26  C   UNL     1      31.778 -10.558 -19.952  0.00  0.00    +0.034 C 
ATOM     27  C   UNL     1      30.476 -10.572 -19.126  0.00  0.00    +0.003 C 
ATOM     28  C   UNL     1      32.154  -9.081 -20.185  0.00  0.00    +0.003 C 
ENDBRANCH  19  26
BRANCH  19  29
ATOM     29  O   UNL     1      30.201 -11.525 -21.469  0.00  0.00    -0.377 OA
ATOM     30  H   UNL     1      30.004 -11.846 -22.364  0.00  0.00    +0.211 HD
ENDBRANCH  19  29
ENDBRANCH   1  19
TORSDOF 8
ENDMDL
