MODEL 1
REMARK VINA RESULT:      -8.9      0.000      0.000
REMARK  Name = 3494
REMARK  6 active torsions:
REMARK  status: ('A' for Active; 'I' for Inactive)
REMARK    1  A    between atoms: C_1  and  C_2
REMARK    2  A    between atoms: C_1  and  C_8
REMARK    3  A    between atoms: C_1  and  O_13
REMARK    4  A    between atoms: C_1  and  C_16
REMARK    5  A    between atoms: C_16  and  O_17
REMARK    6  A    between atoms: O_17  and  C_20
REMARK                            x       y       z     vdW  Elec       q    Type
REMARK                         _______ _______ _______ _____ _____    ______ ____
ROOT
ATOM      1  C   UNL     1      33.994 -23.012 -17.271  0.00  0.00    +0.196 C 
ENDROOT
BRANCH   1   2
ATOM      2  C   UNL     1      34.245 -22.096 -18.461  0.00  0.00    +0.012 C 
ATOM      3  C   UNL     1      33.167 -21.499 -19.081  0.00  0.00    -0.002 C 
ATOM      4  C   UNL     1      35.542 -21.892 -18.884  0.00  0.00    -0.002 C 
ATOM      5  C   UNL     1      33.395 -20.660 -20.171  0.00  0.00    -0.000 C 
ATOM      6  C   UNL     1      35.771 -21.053 -19.975  0.00  0.00    -0.000 C 
ATOM      7  C   UNL     1      34.698 -20.436 -20.618  0.00  0.00    -0.000 C 
ENDBRANCH   1   2
BRANCH   1   8
ATOM      8  C   UNL     1      32.781 -22.683 -16.418  0.00  0.00    +0.039 C 
ATOM      9  C   UNL     1      31.514 -23.404 -16.869  0.00  0.00    +0.003 C 
ATOM     10  C   UNL     1      32.920 -23.144 -14.971  0.00  0.00    +0.003 C 
ATOM     11  C   UNL     1      30.586 -23.312 -15.663  0.00  0.00    +0.000 C 
ATOM     12  C   UNL     1      31.490 -23.132 -14.442  0.00  0.00    +0.000 C 
ENDBRANCH   1   8
BRANCH   1  13
ATOM     13  O   UNL     1      33.784 -24.326 -17.797  0.00  0.00    -0.373 OA
ATOM     14  H   UNL     1      32.937 -24.672 -17.475  0.00  0.00    +0.211 HD
ENDBRANCH   1  13
BRANCH   1  16
ATOM     15  O   UNL     1      35.867 -22.105 -16.000  0.00  0.00    -0.247 OA
ATOM     16  C   UNL     1      35.222 -23.082 -16.365  0.00  0.00    +0.345 C 
BRANCH  16  17
ATOM     17  O   UNL     1      35.500 -24.380 -16.025  0.00  0.00    -0.453 OA
BRANCH  17  20
ATOM     18  N   UNL     1      36.879 -24.618 -12.659  0.00  0.00    +0.390 N 
ATOM     19  C   UNL     1      36.217 -23.797 -13.783  0.00  0.00    -0.029 C 
ATOM     20  C   UNL     1      36.517 -24.564 -15.060  0.00  0.00    +0.147 C 
ATOM     21  C   UNL     1      37.348 -25.931 -13.317  0.00  0.00    -0.069 C 
ATOM     22  C   UNL     1      36.557 -26.007 -14.604  0.00  0.00    +0.019 C 
ATOM     23  C   UNL     1      38.063 -23.870 -12.069  0.00  0.00    -0.096 C 
ATOM     24  C   UNL     1      35.871 -24.909 -11.556  0.00  0.00    -0.096 C 
ENDBRANCH  17  20
ENDBRANCH  16  17
ENDBRANCH   1  16
TORSDOF 6
ENDMDL
MODEL 2
REMARK VINA RESULT:      -8.8      2.445      6.510
REMARK  Name = 3494
REMARK  6 active torsions:
REMARK  status: ('A' for Active; 'I' for Inactive)
REMARK    1  A    between atoms: C_1  and  C_2
REMARK    2  A    between atoms: C_1  and  C_8
REMARK    3  A    between atoms: C_1  and  O_13
REMARK    4  A    between atoms: C_1  and  C_16
REMARK    5  A    between atoms: C_16  and  O_17
REMARK    6  A    between atoms: O_17  and  C_20
REMARK                            x       y       z     vdW  Elec       q    Type
REMARK                         _______ _______ _______ _____ _____    ______ ____
ROOT
ATOM      1  C   UNL     1      35.231 -24.083 -14.901  0.00  0.00    +0.196 C 
ENDROOT
BRANCH   1   2
ATOM      2  C   UNL     1      36.312 -24.249 -13.841  0.00  0.00    +0.012 C 
ATOM      3  C   UNL     1      36.548 -23.212 -12.963  0.00  0.00    -0.002 C 
ATOM      4  C   UNL     1      37.022 -25.431 -13.793  0.00  0.00    -0.002 C 
ATOM      5  C   UNL     1      37.537 -23.363 -11.992  0.00  0.00    -0.000 C 
ATOM      6  C   UNL     1      38.012 -25.582 -12.822  0.00  0.00    -0.000 C 
ATOM      7  C   UNL     1      38.270 -24.549 -11.921  0.00  0.00    -0.000 C 
ENDBRANCH   1   2
BRANCH   1   8
ATOM      8  C   UNL     1      35.388 -22.894 -15.834  0.00  0.00    +0.039 C 
ATOM      9  C   UNL     1      36.834 -22.643 -16.252  0.00  0.00    +0.003 C 
ATOM     10  C   UNL     1      34.690 -23.085 -17.176  0.00  0.00    +0.003 C 
ATOM     11  C   UNL     1      36.715 -21.759 -17.488  0.00  0.00    +0.000 C 
ATOM     12  C   UNL     1      35.329 -22.034 -18.077  0.00  0.00    +0.000 C 
ENDBRANCH   1   8
BRANCH   1  13
ATOM     13  O   UNL     1      35.269 -25.256 -15.719  0.00  0.00    -0.373 OA
ATOM     14  H   UNL     1      34.414 -25.367 -16.164  0.00  0.00    +0.211 HD
ENDBRANCH   1  13
BRANCH   1  16
ATOM     15  O   UNL     1      33.641 -23.871 -13.065  0.00  0.00    -0.247 OA
ATOM     16  C   UNL     1      33.844 -24.023 -14.265  0.00  0.00    +0.345 C 
BRANCH  16  17
ATOM     17  O   UNL     1      32.868 -24.165 -15.217  0.00  0.00    -0.453 OA
BRANCH  17  20
ATOM     18  N   UNL     1      29.296 -23.595 -15.675  0.00  0.00    +0.390 N 
ATOM     19  C   UNL     1      30.764 -23.211 -15.953  0.00  0.00    -0.029 C 
ATOM     20  C   UNL     1      31.555 -23.829 -14.813  0.00  0.00    +0.147 C 
ATOM     21  C   UNL     1      29.338 -24.594 -14.503  0.00  0.00    -0.069 C 
ATOM     22  C   UNL     1      30.771 -25.079 -14.475  0.00  0.00    +0.019 C 
ATOM     23  C   UNL     1      28.480 -22.370 -15.296  0.00  0.00    -0.096 C 
ATOM     24  C   UNL     1      28.681 -24.246 -16.905  0.00  0.00    -0.096 C 
ENDBRANCH  17  20
ENDBRANCH  16  17
ENDBRANCH   1  16
TORSDOF 6
ENDMDL
MODEL 3
REMARK VINA RESULT:      -8.7      8.226     11.349
REMARK  Name = 3494
REMARK  6 active torsions:
REMARK  status: ('A' for Active; 'I' for Inactive)
REMARK    1  A    between atoms: C_1  and  C_2
REMARK    2  A    between atoms: C_1  and  C_8
REMARK    3  A    between atoms: C_1  and  O_13
REMARK    4  A    between atoms: C_1  and  C_16
REMARK    5  A    between atoms: C_16  and  O_17
REMARK    6  A    between atoms: O_17  and  C_20
REMARK                            x       y       z     vdW  Elec       q    Type
REMARK                         _______ _______ _______ _____ _____    ______ ____
ROOT
ATOM      1  C   UNL     1      32.983 -13.446 -23.029  0.00  0.00    +0.196 C 
ENDROOT
BRANCH   1   2
ATOM      2  C   UNL     1      33.394 -12.921 -24.398  0.00  0.00    +0.012 C 
ATOM      3  C   UNL     1      33.071 -13.659 -25.519  0.00  0.00    -0.002 C 
ATOM      4  C   UNL     1      34.077 -11.725 -24.477  0.00  0.00    -0.002 C 
ATOM      5  C   UNL     1      33.447 -13.180 -26.773  0.00  0.00    -0.000 C 
ATOM      6  C   UNL     1      34.453 -11.245 -25.731  0.00  0.00    -0.000 C 
ATOM      7  C   UNL     1      34.139 -11.972 -26.880  0.00  0.00    -0.000 C 
ENDBRANCH   1   2
BRANCH   1   8
ATOM      8  C   UNL     1      32.703 -12.395 -21.968  0.00  0.00    +0.039 C 
ATOM      9  C   UNL     1      31.553 -11.462 -22.335  0.00  0.00    +0.003 C 
ATOM     10  C   UNL     1      32.231 -12.988 -20.645  0.00  0.00    +0.003 C 
ATOM     11  C   UNL     1      31.150 -10.830 -21.007  0.00  0.00    +0.000 C 
ATOM     12  C   UNL     1      31.597 -11.807 -19.917  0.00  0.00    +0.000 C 
ENDBRANCH   1   8
BRANCH   1  13
ATOM     13  O   UNL     1      31.770 -14.181 -23.213  0.00  0.00    -0.373 OA
ATOM     14  H   UNL     1      31.931 -15.120 -23.033  0.00  0.00    +0.211 HD
ENDBRANCH   1  13
BRANCH   1  16
ATOM     15  O   UNL     1      35.014 -14.091 -21.844  0.00  0.00    -0.247 OA
ATOM     16  C   UNL     1      34.023 -14.423 -22.483  0.00  0.00    +0.345 C 
BRANCH  16  17
ATOM     17  O   UNL     1      33.693 -15.713 -22.810  0.00  0.00    -0.453 OA
BRANCH  17  20
ATOM     18  N   UNL     1      35.183 -18.836 -21.664  0.00  0.00    +0.390 N 
ATOM     19  C   UNL     1      34.578 -17.450 -21.367  0.00  0.00    -0.029 C 
ATOM     20  C   UNL     1      34.723 -16.671 -22.664  0.00  0.00    +0.147 C 
ATOM     21  C   UNL     1      35.457 -18.860 -23.180  0.00  0.00    -0.069 C 
ATOM     22  C   UNL     1      34.605 -17.738 -23.732  0.00  0.00    +0.019 C 
ATOM     23  C   UNL     1      36.476 -19.037 -20.891  0.00  0.00    -0.096 C 
ATOM     24  C   UNL     1      34.199 -19.933 -21.285  0.00  0.00    -0.096 C 
ENDBRANCH  17  20
ENDBRANCH  16  17
ENDBRANCH   1  16
TORSDOF 6
ENDMDL
MODEL 4
REMARK VINA RESULT:      -8.6      9.704     13.445
REMARK  Name = 3494
REMARK  6 active torsions:
REMARK  status: ('A' for Active; 'I' for Inactive)
REMARK    1  A    between atoms: C_1  and  C_2
REMARK    2  A    between atoms: C_1  and  C_8
REMARK    3  A    between atoms: C_1  and  O_13
REMARK    4  A    between atoms: C_1  and  C_16
REMARK    5  A    between atoms: C_16  and  O_17
REMARK    6  A    between atoms: O_17  and  C_20
REMARK                            x       y       z     vdW  Elec       q    Type
REMARK                         _______ _______ _______ _____ _____    ______ ____
ROOT
ATOM      1  C   UNL     1      33.666 -14.227 -23.161  0.00  0.00    +0.196 C 
ENDROOT
BRANCH   1   2
ATOM      2  C   UNL     1      33.507 -13.852 -24.628  0.00  0.00    +0.012 C 
ATOM      3  C   UNL     1      32.888 -14.743 -25.480  0.00  0.00    -0.002 C 
ATOM      4  C   UNL     1      33.987 -12.633 -25.061  0.00  0.00    -0.002 C 
ATOM      5  C   UNL     1      32.742 -14.400 -26.824  0.00  0.00    -0.000 C 
ATOM      6  C   UNL     1      33.842 -12.290 -26.405  0.00  0.00    -0.000 C 
ATOM      7  C   UNL     1      33.219 -13.174 -27.287  0.00  0.00    -0.000 C 
ENDBRANCH   1   2
BRANCH   1   8
ATOM      8  C   UNL     1      33.940 -15.693 -22.873  0.00  0.00    +0.039 C 
ATOM      9  C   UNL     1      34.957 -16.314 -23.827  0.00  0.00    +0.003 C 
ATOM     10  C   UNL     1      34.586 -15.928 -21.511  0.00  0.00    +0.003 C 
ATOM     11  C   UNL     1      35.417 -17.577 -23.107  0.00  0.00    +0.000 C 
ATOM     12  C   UNL     1      35.168 -17.334 -21.618  0.00  0.00    +0.000 C 
ENDBRANCH   1   8
BRANCH   1  13
ATOM     13  O   UNL     1      34.788 -13.492 -22.664  0.00  0.00    -0.373 OA
ATOM     14  H   UNL     1      34.474 -12.730 -22.152  0.00  0.00    +0.211 HD
ENDBRANCH   1  13
BRANCH   1  16
ATOM     15  O   UNL     1      31.993 -14.416 -21.397  0.00  0.00    -0.247 OA
ATOM     16  C   UNL     1      32.448 -13.791 -22.348  0.00  0.00    +0.345 C 
BRANCH  16  17
ATOM     17  O   UNL     1      31.939 -12.615 -22.833  0.00  0.00    -0.453 OA
BRANCH  17  20
ATOM     18  N   UNL     1      32.160  -9.022 -22.252  0.00  0.00    +0.390 N 
ATOM     19  C   UNL     1      32.516 -10.272 -23.081  0.00  0.00    -0.029 C 
ATOM     20  C   UNL     1      32.316 -11.443 -22.135  0.00  0.00    +0.147 C 
ATOM     21  C   UNL     1      31.569  -9.549 -20.929  0.00  0.00    -0.069 C 
ATOM     22  C   UNL     1      31.190 -10.981 -21.234  0.00  0.00    +0.019 C 
ATOM     23  C   UNL     1      33.399  -8.184 -21.980  0.00  0.00    -0.096 C 
ATOM     24  C   UNL     1      31.135  -8.174 -22.990  0.00  0.00    -0.096 C 
ENDBRANCH  17  20
ENDBRANCH  16  17
ENDBRANCH   1  16
TORSDOF 6
ENDMDL
MODEL 5
REMARK VINA RESULT:      -8.5      2.046      4.581
REMARK  Name = 3494
REMARK  6 active torsions:
REMARK  status: ('A' for Active; 'I' for Inactive)
REMARK    1  A    between atoms: C_1  and  C_2
REMARK    2  A    between atoms: C_1  and  C_8
REMARK    3  A    between atoms: C_1  and  O_13
REMARK    4  A    between atoms: C_1  and  C_16
REMARK    5  A    between atoms: C_16  and  O_17
REMARK    6  A    between atoms: O_17  and  C_20
REMARK                            x       y       z     vdW  Elec       q    Type
REMARK                         _______ _______ _______ _____ _____    ______ ____
ROOT
ATOM      1  C   UNL     1      32.215 -23.340 -15.019  0.00  0.00    +0.196 C 
ENDROOT
BRANCH   1   2
ATOM      2  C   UNL     1      30.726 -23.403 -15.328  0.00  0.00    +0.012 C 
ATOM      3  C   UNL     1      30.208 -24.557 -15.879  0.00  0.00    -0.002 C 
ATOM      4  C   UNL     1      29.940 -22.304 -15.050  0.00  0.00    -0.002 C 
ATOM      5  C   UNL     1      28.844 -24.615 -16.163  0.00  0.00    -0.000 C 
ATOM      6  C   UNL     1      28.575 -22.362 -15.334  0.00  0.00    -0.000 C 
ATOM      7  C   UNL     1      28.027 -23.517 -15.891  0.00  0.00    -0.000 C 
ENDBRANCH   1   2
BRANCH   1   8
ATOM      8  C   UNL     1      33.151 -23.499 -16.205  0.00  0.00    +0.039 C 
ATOM      9  C   UNL     1      32.623 -22.848 -17.480  0.00  0.00    +0.003 C 
ATOM     10  C   UNL     1      34.491 -22.798 -16.012  0.00  0.00    +0.003 C 
ATOM     11  C   UNL     1      33.856 -22.717 -18.367  0.00  0.00    +0.000 C 
ATOM     12  C   UNL     1      35.060 -22.698 -17.424  0.00  0.00    +0.000 C 
ENDBRANCH   1   8
BRANCH   1  13
ATOM     13  O   UNL     1      32.469 -22.046 -14.464  0.00  0.00    -0.373 OA
ATOM     14  H   UNL     1      32.346 -21.371 -15.149  0.00  0.00    +0.211 HD
ENDBRANCH   1  13
BRANCH   1  16
ATOM     15  O   UNL     1      32.174 -25.518 -13.923  0.00  0.00    -0.247 OA
ATOM     16  C   UNL     1      32.598 -24.368 -13.956  0.00  0.00    +0.345 C 
BRANCH  16  17
ATOM     17  O   UNL     1      33.471 -23.826 -13.050  0.00  0.00    -0.453 OA
BRANCH  17  20
ATOM     18  N   UNL     1      36.873 -25.087 -13.416  0.00  0.00    +0.390 N 
ATOM     19  C   UNL     1      35.432 -24.939 -13.945  0.00  0.00    -0.029 C 
ATOM     20  C   UNL     1      34.593 -24.621 -12.718  0.00  0.00    +0.147 C 
ATOM     21  C   UNL     1      36.828 -24.640 -11.942  0.00  0.00    -0.069 C 
ATOM     22  C   UNL     1      35.544 -23.847 -11.831  0.00  0.00    +0.019 C 
ATOM     23  C   UNL     1      37.338 -26.531 -13.516  0.00  0.00    -0.096 C 
ATOM     24  C   UNL     1      37.819 -24.200 -14.212  0.00  0.00    -0.096 C 
ENDBRANCH  17  20
ENDBRANCH  16  17
ENDBRANCH   1  16
TORSDOF 6
ENDMDL
MODEL 6
REMARK VINA RESULT:      -8.4     11.107     14.042
REMARK  Name = 3494
REMARK  6 active torsions:
REMARK  status: ('A' for Active; 'I' for Inactive)
REMARK    1  A    between atoms: C_1  and  C_2
REMARK    2  A    between atoms: C_1  and  C_8
REMARK    3  A    between atoms: C_1  and  O_13
REMARK    4  A    between atoms: C_1  and  C_16
REMARK    5  A    between atoms: C_16  and  O_17
REMARK    6  A    between atoms: O_17  and  C_20
REMARK                            x       y       z     vdW  Elec       q    Type
REMARK                         _______ _______ _______ _____ _____    ______ ____
ROOT
ATOM      1  C   UNL     1      31.990 -10.156 -22.613  0.00  0.00    +0.196 C 
ENDROOT
BRANCH   1   2
ATOM      2  C   UNL     1      32.251  -8.772 -23.194  0.00  0.00    +0.012 C 
ATOM      3  C   UNL     1      33.544  -8.293 -23.219  0.00  0.00    -0.002 C 
ATOM      4  C   UNL     1      31.186  -8.040 -23.677  0.00  0.00    -0.002 C 
ATOM      5  C   UNL     1      33.783  -7.026 -23.750  0.00  0.00    -0.000 C 
ATOM      6  C   UNL     1      31.424  -6.773 -24.208  0.00  0.00    -0.000 C 
ATOM      7  C   UNL     1      32.723  -6.265 -24.245  0.00  0.00    -0.000 C 
ENDBRANCH   1   2
BRANCH   1   8
ATOM      8  C   UNL     1      32.203 -10.302 -21.117  0.00  0.00    +0.039 C 
ATOM      9  C   UNL     1      32.209  -8.968 -20.376  0.00  0.00    +0.003 C 
ATOM     10  C   UNL     1      31.076 -11.056 -20.419  0.00  0.00    +0.003 C 
ATOM     11  C   UNL     1      31.970  -9.351 -18.920  0.00  0.00    +0.000 C 
ATOM     12  C   UNL     1      31.252 -10.702 -18.947  0.00  0.00    +0.000 C 
ENDBRANCH   1   8
BRANCH   1  13
ATOM     13  O   UNL     1      30.616 -10.460 -22.867  0.00  0.00    -0.373 OA
ATOM     14  H   UNL     1      30.315  -9.971 -23.649  0.00  0.00    +0.211 HD
ENDBRANCH   1  13
BRANCH   1  16
ATOM     15  O   UNL     1      33.804 -10.971 -24.025  0.00  0.00    -0.247 OA
ATOM     16  C   UNL     1      32.824 -11.216 -23.330  0.00  0.00    +0.345 C 
BRANCH  16  17
ATOM     17  O   UNL     1      32.324 -12.469 -23.089  0.00  0.00    -0.453 OA
BRANCH  17  20
ATOM     18  N   UNL     1      33.476 -15.448 -21.330  0.00  0.00    +0.390 N 
ATOM     19  C   UNL     1      32.942 -14.002 -21.313  0.00  0.00    -0.029 C 
ATOM     20  C   UNL     1      33.266 -13.446 -22.690  0.00  0.00    +0.147 C 
ATOM     21  C   UNL     1      33.894 -15.725 -22.787  0.00  0.00    -0.069 C 
ATOM     22  C   UNL     1      33.180 -14.660 -23.590  0.00  0.00    +0.019 C 
ATOM     23  C   UNL     1      34.670 -15.593 -20.401  0.00  0.00    -0.096 C 
ATOM     24  C   UNL     1      32.386 -16.417 -20.897  0.00  0.00    -0.096 C 
ENDBRANCH  17  20
ENDBRANCH  16  17
ENDBRANCH   1  16
TORSDOF 6
ENDMDL
MODEL 7
REMARK VINA RESULT:      -8.3     11.013     14.670
REMARK  Name = 3494
REMARK  6 active torsions:
REMARK  status: ('A' for Active; 'I' for Inactive)
REMARK    1  A    between atoms: C_1  and  C_2
REMARK    2  A    between atoms: C_1  and  C_8
REMARK    3  A    between atoms: C_1  and  O_13
REMARK    4  A    between atoms: C_1  and  C_16
REMARK    5  A    between atoms: C_16  and  O_17
REMARK    6  A    between atoms: O_17  and  C_20
REMARK                            x       y       z     vdW  Elec       q    Type
REMARK                         _______ _______ _______ _____ _____    ______ ____
ROOT
ATOM      1  C   UNL     1      33.196 -12.943 -23.118  0.00  0.00    +0.196 C 
ENDROOT
BRANCH   1   2
ATOM      2  C   UNL     1      33.249 -13.117 -24.630  0.00  0.00    +0.012 C 
ATOM      3  C   UNL     1      33.761 -12.095 -25.401  0.00  0.00    -0.002 C 
ATOM      4  C   UNL     1      32.781 -14.291 -25.183  0.00  0.00    -0.002 C 
ATOM      5  C   UNL     1      33.809 -12.253 -26.786  0.00  0.00    -0.000 C 
ATOM      6  C   UNL     1      32.828 -14.450 -26.567  0.00  0.00    -0.000 C 
ATOM      7  C   UNL     1      33.343 -13.431 -27.369  0.00  0.00    -0.000 C 
ENDBRANCH   1   2
BRANCH   1   8
ATOM      8  C   UNL     1      32.829 -14.179 -22.316  0.00  0.00    +0.039 C 
ATOM      9  C   UNL     1      33.939 -15.226 -22.283  0.00  0.00    +0.003 C 
ATOM     10  C   UNL     1      32.610 -13.892 -20.834  0.00  0.00    +0.003 C 
ATOM     11  C   UNL     1      33.572 -16.118 -21.102  0.00  0.00    +0.000 C 
ATOM     12  C   UNL     1      32.706 -15.263 -20.175  0.00  0.00    +0.000 C 
ENDBRANCH   1   8
BRANCH   1  13
ATOM     13  O   UNL     1      34.507 -12.553 -22.700  0.00  0.00    -0.373 OA
ATOM     14  H   UNL     1      34.984 -13.328 -22.365  0.00  0.00    +0.211 HD
ENDBRANCH   1  13
BRANCH   1  16
ATOM     15  O   UNL     1      31.025 -11.916 -22.697  0.00  0.00    -0.247 OA
ATOM     16  C   UNL     1      32.246 -11.811 -22.730  0.00  0.00    +0.345 C 
BRANCH  16  17
ATOM     17  O   UNL     1      32.946 -10.672 -22.431  0.00  0.00    -0.453 OA
BRANCH  17  20
ATOM     18  N   UNL     1      32.079  -7.212 -23.184  0.00  0.00    +0.390 N 
ATOM     19  C   UNL     1      31.696  -8.605 -22.646  0.00  0.00    -0.029 C 
ATOM     20  C   UNL     1      32.703  -9.557 -23.268  0.00  0.00    +0.147 C 
ATOM     21  C   UNL     1      33.418  -7.400 -23.923  0.00  0.00    -0.069 C 
ATOM     22  C   UNL     1      33.953  -8.714 -23.398  0.00  0.00    +0.019 C 
ATOM     23  C   UNL     1      31.017  -6.691 -24.139  0.00  0.00    -0.096 C 
ATOM     24  C   UNL     1      32.241  -6.229 -22.033  0.00  0.00    -0.096 C 
ENDBRANCH  17  20
ENDBRANCH  16  17
ENDBRANCH   1  16
TORSDOF 6
ENDMDL
MODEL 8
REMARK VINA RESULT:      -8.3     14.814     18.354
REMARK  Name = 3494
REMARK  6 active torsions:
REMARK  status: ('A' for Active; 'I' for Inactive)
REMARK    1  A    between atoms: C_1  and  C_2
REMARK    2  A    between atoms: C_1  and  C_8
REMARK    3  A    between atoms: C_1  and  O_13
REMARK    4  A    between atoms: C_1  and  C_16
REMARK    5  A    between atoms: C_16  and  O_17
REMARK    6  A    between atoms: O_17  and  C_20
REMARK                            x       y       z     vdW  Elec       q    Type
REMARK                         _______ _______ _______ _____ _____    ______ ____
ROOT
ATOM      1  C   UNL     1      32.479  -8.331 -22.398  0.00  0.00    +0.196 C 
ENDROOT
BRANCH   1   2
ATOM      2  C   UNL     1      33.318  -9.181 -23.343  0.00  0.00    +0.012 C 
ATOM      3  C   UNL     1      34.498  -8.663 -23.834  0.00  0.00    -0.002 C 
ATOM      4  C   UNL     1      32.871 -10.441 -23.681  0.00  0.00    -0.002 C 
ATOM      5  C   UNL     1      35.267  -9.440 -24.700  0.00  0.00    -0.000 C 
ATOM      6  C   UNL     1      33.639 -11.219 -24.547  0.00  0.00    -0.000 C 
ATOM      7  C   UNL     1      34.837 -10.719 -25.057  0.00  0.00    -0.000 C 
ENDBRANCH   1   2
BRANCH   1   8
ATOM      8  C   UNL     1      31.690  -9.086 -21.343  0.00  0.00    +0.039 C 
ATOM      9  C   UNL     1      31.558 -10.577 -21.642  0.00  0.00    +0.003 C 
ATOM     10  C   UNL     1      32.363  -9.088 -19.974  0.00  0.00    +0.003 C 
ATOM     11  C   UNL     1      31.170 -11.191 -20.302  0.00  0.00    +0.000 C 
ATOM     12  C   UNL     1      31.677 -10.227 -19.228  0.00  0.00    +0.000 C 
ENDBRANCH   1   8
BRANCH   1  13
ATOM     13  O   UNL     1      33.384  -7.471 -21.700  0.00  0.00    -0.373 OA
ATOM     14  H   UNL     1      34.282  -7.832 -21.757  0.00  0.00    +0.211 HD
ENDBRANCH   1  13
BRANCH   1  16
ATOM     15  O   UNL     1      30.507  -7.835 -23.744  0.00  0.00    -0.247 OA
ATOM     16  C   UNL     1      31.517  -7.434 -23.176  0.00  0.00    +0.345 C 
BRANCH  16  17
ATOM     17  O   UNL     1      31.942  -6.132 -23.151  0.00  0.00    -0.453 OA
BRANCH  17  20
ATOM     18  N   UNL     1      31.438  -2.987 -24.926  0.00  0.00    +0.390 N 
ATOM     19  C   UNL     1      31.214  -3.882 -23.691  0.00  0.00    -0.029 C 
ATOM     20  C   UNL     1      31.449  -5.300 -24.184  0.00  0.00    +0.147 C 
ATOM     21  C   UNL     1      31.998  -3.915 -26.022  0.00  0.00    -0.069 C 
ATOM     22  C   UNL     1      32.493  -5.129 -25.267  0.00  0.00    +0.019 C 
ATOM     23  C   UNL     1      30.131  -2.360 -25.383  0.00  0.00    -0.096 C 
ATOM     24  C   UNL     1      32.436  -1.884 -24.604  0.00  0.00    -0.096 C 
ENDBRANCH  17  20
ENDBRANCH  16  17
ENDBRANCH   1  16
TORSDOF 6
ENDMDL
MODEL 9
REMARK VINA RESULT:      -8.3      8.769     12.179
REMARK  Name = 3494
REMARK  6 active torsions:
REMARK  status: ('A' for Active; 'I' for Inactive)
REMARK    1  A    between atoms: C_1  and  C_2
REMARK    2  A    between atoms: C_1  and  C_8
REMARK    3  A    between atoms: C_1  and  O_13
REMARK    4  A    between atoms: C_1  and  C_16
REMARK    5  A    between atoms: C_16  and  O_17
REMARK    6  A    between atoms: O_17  and  C_20
REMARK                            x       y       z     vdW  Elec       q    Type
REMARK                         _______ _______ _______ _____ _____    ______ ____
ROOT
ATOM      1  C   UNL     1      34.041 -15.132 -22.599  0.00  0.00    +0.196 C 
ENDROOT
BRANCH   1   2
ATOM      2  C   UNL     1      33.721 -14.647 -24.007  0.00  0.00    +0.012 C 
ATOM      3  C   UNL     1      33.779 -13.296 -24.276  0.00  0.00    -0.002 C 
ATOM      4  C   UNL     1      33.381 -15.574 -24.970  0.00  0.00    -0.002 C 
ATOM      5  C   UNL     1      33.486 -12.851 -25.564  0.00  0.00    -0.000 C 
ATOM      6  C   UNL     1      33.087 -15.131 -26.259  0.00  0.00    -0.000 C 
ATOM      7  C   UNL     1      33.140 -13.769 -26.557  0.00  0.00    -0.000 C 
ENDBRANCH   1   2
BRANCH   1   8
ATOM      8  C   UNL     1      34.415 -16.598 -22.466  0.00  0.00    +0.039 C 
ATOM      9  C   UNL     1      35.616 -16.991 -23.321  0.00  0.00    +0.003 C 
ATOM     10  C   UNL     1      34.877 -16.976 -21.063  0.00  0.00    +0.003 C 
ATOM     11  C   UNL     1      36.092 -18.305 -22.710  0.00  0.00    +0.000 C 
ATOM     12  C   UNL     1      35.605 -18.301 -21.260  0.00  0.00    +0.000 C 
ENDBRANCH   1   8
BRANCH   1  13
ATOM     13  O   UNL     1      35.167 -14.375 -22.146  0.00  0.00    -0.373 OA
ATOM     14  H   UNL     1      34.953 -13.429 -22.172  0.00  0.00    +0.211 HD
ENDBRANCH   1  13
BRANCH   1  16
ATOM     15  O   UNL     1      31.908 -15.560 -21.497  0.00  0.00    -0.247 OA
ATOM     16  C   UNL     1      32.886 -14.836 -21.643  0.00  0.00    +0.345 C 
BRANCH  16  17
ATOM     17  O   UNL     1      33.097 -13.655 -20.981  0.00  0.00    -0.453 OA
BRANCH  17  20
ATOM     18  N   UNL     1      31.303 -10.604 -20.103  0.00  0.00    +0.390 N 
ATOM     19  C   UNL     1      32.196 -11.798 -19.708  0.00  0.00    -0.029 C 
ATOM     20  C   UNL     1      31.956 -12.843 -20.783  0.00  0.00    +0.147 C 
ATOM     21  C   UNL     1      30.751 -10.938 -21.503  0.00  0.00    -0.069 C 
ATOM     22  C   UNL     1      31.675 -12.018 -22.021  0.00  0.00    +0.019 C 
ATOM     23  C   UNL     1      30.163 -10.432 -19.113  0.00  0.00    -0.096 C 
ATOM     24  C   UNL     1      32.124  -9.324 -20.149  0.00  0.00    -0.096 C 
ENDBRANCH  17  20
ENDBRANCH  16  17
ENDBRANCH   1  16
TORSDOF 6
ENDMDL
