MODEL 1
REMARK VINA RESULT:      -4.8      0.000      0.000
REMARK  Name = 7347
REMARK  4 active torsions:
REMARK  status: ('A' for Active; 'I' for Inactive)
REMARK    1  A    between atoms: S_1  and  C_3
REMARK    2  A    between atoms: S_1  and  C_8
REMARK    3  A    between atoms: C_3  and  N_4
REMARK    4  A    between atoms: C_8  and  N_9
REMARK                            x       y       z     vdW  Elec       q    Type
REMARK                         _______ _______ _______ _____ _____    ______ ____
ROOT
ATOM      1  S   UNL     1      36.043 -18.913 -21.071  0.00  0.00    -0.044 S 
ENDROOT
BRANCH   1   3
ATOM      2  S   UNL     1      34.913 -18.987 -23.834  0.00  0.00    -0.028 S 
ATOM      3  C   UNL     1      35.211 -18.103 -22.423  0.00  0.00    +0.117 C 
BRANCH   3   4
ATOM      4  N   UNL     1      34.876 -16.747 -22.226  0.00  0.00    -0.294 N 
ATOM      5  C   UNL     1      34.728 -16.121 -20.909  0.00  0.00    +0.113 C 
ATOM      6  C   UNL     1      34.647 -15.827 -23.342  0.00  0.00    +0.113 C 
ENDBRANCH   3   4
ENDBRANCH   1   3
BRANCH   1   8
ATOM      7  S   UNL     1      33.134 -19.583 -20.955  0.00  0.00    -0.028 S 
ATOM      8  C   UNL     1      34.725 -19.992 -20.548  0.00  0.00    +0.117 C 
BRANCH   8   9
ATOM      9  N   UNL     1      35.107 -21.121 -19.794  0.00  0.00    -0.294 N 
ATOM     10  C   UNL     1      36.488 -21.418 -19.403  0.00  0.00    +0.113 C 
ATOM     11  C   UNL     1      34.138 -22.117 -19.327  0.00  0.00    +0.113 C 
ENDBRANCH   8   9
ENDBRANCH   1   8
TORSDOF 4
ENDMDL
MODEL 2
REMARK VINA RESULT:      -4.7      0.078      4.934
REMARK  Name = 7347
REMARK  4 active torsions:
REMARK  status: ('A' for Active; 'I' for Inactive)
REMARK    1  A    between atoms: S_1  and  C_3
REMARK    2  A    between atoms: S_1  and  C_8
REMARK    3  A    between atoms: C_3  and  N_4
REMARK    4  A    between atoms: C_8  and  N_9
REMARK                            x       y       z     vdW  Elec       q    Type
REMARK                         _______ _______ _______ _____ _____    ______ ____
ROOT
ATOM      1  S   UNL     1      36.047 -18.879 -21.096  0.00  0.00    -0.044 S 
ENDROOT
BRANCH   1   3
ATOM      2  S   UNL     1      33.154 -19.602 -20.948  0.00  0.00    -0.028 S 
ATOM      3  C   UNL     1      34.756 -19.988 -20.568  0.00  0.00    +0.117 C 
BRANCH   3   4
ATOM      4  N   UNL     1      35.169 -21.118 -19.832  0.00  0.00    -0.294 N 
ATOM      5  C   UNL     1      36.561 -21.400 -19.471  0.00  0.00    +0.113 C 
ATOM      6  C   UNL     1      34.223 -22.128 -19.350  0.00  0.00    +0.113 C 
ENDBRANCH   3   4
ENDBRANCH   1   3
BRANCH   1   8
ATOM      7  S   UNL     1      34.905 -19.054 -23.851  0.00  0.00    -0.028 S 
ATOM      8  C   UNL     1      35.207 -18.120 -22.472  0.00  0.00    +0.117 C 
BRANCH   8   9
ATOM      9  N   UNL     1      34.868 -16.759 -22.322  0.00  0.00    -0.294 N 
ATOM     10  C   UNL     1      34.608 -15.849 -23.442  0.00  0.00    +0.113 C 
ATOM     11  C   UNL     1      34.746 -16.122 -21.007  0.00  0.00    +0.113 C 
ENDBRANCH   8   9
ENDBRANCH   1   8
TORSDOF 4
ENDMDL
MODEL 3
REMARK VINA RESULT:      -4.7      7.182      9.285
REMARK  Name = 7347
REMARK  4 active torsions:
REMARK  status: ('A' for Active; 'I' for Inactive)
REMARK    1  A    between atoms: S_1  and  C_3
REMARK    2  A    between atoms: S_1  and  C_8
REMARK    3  A    between atoms: C_3  and  N_4
REMARK    4  A    between atoms: C_8  and  N_9
REMARK                            x       y       z     vdW  Elec       q    Type
REMARK                         _______ _______ _______ _____ _____    ______ ____
ROOT
ATOM      1  S   UNL     1      36.378 -25.465 -14.783  0.00  0.00    -0.044 S 
ENDROOT
BRANCH   1   3
ATOM      2  S   UNL     1      37.177 -22.758 -15.756  0.00  0.00    -0.028 S 
ATOM      3  C   UNL     1      35.939 -23.861 -15.422  0.00  0.00    +0.117 C 
BRANCH   3   4
ATOM      4  N   UNL     1      34.560 -23.610 -15.581  0.00  0.00    -0.294 N 
ATOM      5  C   UNL     1      33.572 -23.733 -14.505  0.00  0.00    +0.113 C 
ATOM      6  C   UNL     1      33.982 -23.192 -16.861  0.00  0.00    +0.113 C 
ENDBRANCH   3   4
ENDBRANCH   1   3
BRANCH   1   8
ATOM      7  S   UNL     1      39.109 -25.354 -13.577  0.00  0.00    -0.028 S 
ATOM      8  C   UNL     1      37.469 -24.946 -13.473  0.00  0.00    +0.117 C 
BRANCH   8   9
ATOM      9  N   UNL     1      36.873 -24.241 -12.408  0.00  0.00    -0.294 N 
ATOM     10  C   UNL     1      35.675 -24.693 -11.693  0.00  0.00    +0.113 C 
ATOM     11  C   UNL     1      37.406 -22.968 -11.914  0.00  0.00    +0.113 C 
ENDBRANCH   8   9
ENDBRANCH   1   8
TORSDOF 4
ENDMDL
MODEL 4
REMARK VINA RESULT:      -4.7      7.183      9.752
REMARK  Name = 7347
REMARK  4 active torsions:
REMARK  status: ('A' for Active; 'I' for Inactive)
REMARK    1  A    between atoms: S_1  and  C_3
REMARK    2  A    between atoms: S_1  and  C_8
REMARK    3  A    between atoms: C_3  and  N_4
REMARK    4  A    between atoms: C_8  and  N_9
REMARK                            x       y       z     vdW  Elec       q    Type
REMARK                         _______ _______ _______ _____ _____    ______ ____
ROOT
ATOM      1  S   UNL     1      36.377 -25.461 -14.773  0.00  0.00    -0.044 S 
ENDROOT
BRANCH   1   3
ATOM      2  S   UNL     1      39.111 -25.347 -13.577  0.00  0.00    -0.028 S 
ATOM      3  C   UNL     1      37.472 -24.941 -13.468  0.00  0.00    +0.117 C 
BRANCH   3   4
ATOM      4  N   UNL     1      36.878 -24.236 -12.400  0.00  0.00    -0.294 N 
ATOM      5  C   UNL     1      35.685 -24.690 -11.679  0.00  0.00    +0.113 C 
ATOM      6  C   UNL     1      37.412 -22.964 -11.907  0.00  0.00    +0.113 C 
ENDBRANCH   3   4
ENDBRANCH   1   3
BRANCH   1   8
ATOM      7  S   UNL     1      37.189 -22.756 -15.747  0.00  0.00    -0.028 S 
ATOM      8  C   UNL     1      35.946 -23.858 -15.422  0.00  0.00    +0.117 C 
BRANCH   8   9
ATOM      9  N   UNL     1      34.570 -23.607 -15.597  0.00  0.00    -0.294 N 
ATOM     10  C   UNL     1      33.966 -23.195 -16.869  0.00  0.00    +0.113 C 
ATOM     11  C   UNL     1      33.603 -23.737 -14.504  0.00  0.00    +0.113 C 
ENDBRANCH   8   9
ENDBRANCH   1   8
TORSDOF 4
ENDMDL
MODEL 5
REMARK VINA RESULT:      -4.6      2.629      3.564
REMARK  Name = 7347
REMARK  4 active torsions:
REMARK  status: ('A' for Active; 'I' for Inactive)
REMARK    1  A    between atoms: S_1  and  C_3
REMARK    2  A    between atoms: S_1  and  C_8
REMARK    3  A    between atoms: C_3  and  N_4
REMARK    4  A    between atoms: C_8  and  N_9
REMARK                            x       y       z     vdW  Elec       q    Type
REMARK                         _______ _______ _______ _____ _____    ______ ____
ROOT
ATOM      1  S   UNL     1      35.142 -15.854 -22.829  0.00  0.00    -0.044 S 
ENDROOT
BRANCH   1   3
ATOM      2  S   UNL     1      34.399 -17.782 -24.984  0.00  0.00    -0.028 S 
ATOM      3  C   UNL     1      34.254 -16.230 -24.327  0.00  0.00    +0.117 C 
BRANCH   3   4
ATOM      4  N   UNL     1      33.498 -15.177 -24.884  0.00  0.00    -0.294 N 
ATOM      5  C   UNL     1      33.177 -13.934 -24.178  0.00  0.00    +0.113 C 
ATOM      6  C   UNL     1      32.961 -15.234 -26.246  0.00  0.00    +0.113 C 
ENDBRANCH   3   4
ENDBRANCH   1   3
BRANCH   1   8
ATOM      7  S   UNL     1      32.773 -15.961 -21.013  0.00  0.00    -0.028 S 
ATOM      8  C   UNL     1      34.118 -16.746 -21.675  0.00  0.00    +0.117 C 
BRANCH   8   9
ATOM      9  N   UNL     1      34.525 -18.061 -21.369  0.00  0.00    -0.294 N 
ATOM     10  C   UNL     1      33.598 -19.169 -21.116  0.00  0.00    +0.113 C 
ATOM     11  C   UNL     1      35.937 -18.443 -21.274  0.00  0.00    +0.113 C 
ENDBRANCH   8   9
ENDBRANCH   1   8
TORSDOF 4
ENDMDL
MODEL 6
REMARK VINA RESULT:      -4.6      2.682      5.812
REMARK  Name = 7347
REMARK  4 active torsions:
REMARK  status: ('A' for Active; 'I' for Inactive)
REMARK    1  A    between atoms: S_1  and  C_3
REMARK    2  A    between atoms: S_1  and  C_8
REMARK    3  A    between atoms: C_3  and  N_4
REMARK    4  A    between atoms: C_8  and  N_9
REMARK                            x       y       z     vdW  Elec       q    Type
REMARK                         _______ _______ _______ _____ _____    ______ ____
ROOT
ATOM      1  S   UNL     1      34.981 -15.644 -22.656  0.00  0.00    -0.044 S 
ENDROOT
BRANCH   1   3
ATOM      2  S   UNL     1      32.553 -15.965 -20.948  0.00  0.00    -0.028 S 
ATOM      3  C   UNL     1      33.963 -16.644 -21.588  0.00  0.00    +0.117 C 
BRANCH   3   4
ATOM      4  N   UNL     1      34.430 -17.950 -21.326  0.00  0.00    -0.294 N 
ATOM      5  C   UNL     1      33.557 -19.096 -21.058  0.00  0.00    +0.113 C 
ATOM      6  C   UNL     1      35.856 -18.282 -21.303  0.00  0.00    +0.113 C 
ENDBRANCH   3   4
ENDBRANCH   1   3
BRANCH   1   8
ATOM      7  S   UNL     1      34.501 -17.562 -24.896  0.00  0.00    -0.028 S 
ATOM      8  C   UNL     1      34.211 -16.040 -24.214  0.00  0.00    +0.117 C 
BRANCH   8   9
ATOM      9  N   UNL     1      33.420 -15.027 -24.792  0.00  0.00    -0.294 N 
ATOM     10  C   UNL     1      32.973 -13.827 -24.079  0.00  0.00    +0.113 C 
ATOM     11  C   UNL     1      32.964 -15.086 -26.184  0.00  0.00    +0.113 C 
ENDBRANCH   8   9
ENDBRANCH   1   8
TORSDOF 4
ENDMDL
MODEL 7
REMARK VINA RESULT:      -4.6      7.722      9.419
REMARK  Name = 7347
REMARK  4 active torsions:
REMARK  status: ('A' for Active; 'I' for Inactive)
REMARK    1  A    between atoms: S_1  and  C_3
REMARK    2  A    between atoms: S_1  and  C_8
REMARK    3  A    between atoms: C_3  and  N_4
REMARK    4  A    between atoms: C_8  and  N_9
REMARK                            x       y       z     vdW  Elec       q    Type
REMARK                         _______ _______ _______ _____ _____    ______ ____
ROOT
ATOM      1  S   UNL     1      35.973 -25.447 -15.021  0.00  0.00    -0.044 S 
ENDROOT
BRANCH   1   3
ATOM      2  S   UNL     1      35.242 -24.041 -12.490  0.00  0.00    -0.028 S 
ATOM      3  C   UNL     1      34.882 -24.373 -14.109  0.00  0.00    +0.117 C 
BRANCH   3   4
ATOM      4  N   UNL     1      33.757 -23.887 -14.809  0.00  0.00    -0.294 N 
ATOM      5  C   UNL     1      33.791 -23.426 -16.200  0.00  0.00    +0.113 C 
ATOM      6  C   UNL     1      32.430 -23.803 -14.196  0.00  0.00    +0.113 C 
ENDBRANCH   3   4
ENDBRANCH   1   3
BRANCH   1   8
ATOM      7  S   UNL     1      37.425 -22.906 -15.620  0.00  0.00    -0.028 S 
ATOM      8  C   UNL     1      37.453 -24.458 -14.945  0.00  0.00    +0.117 C 
BRANCH   8   9
ATOM      9  N   UNL     1      38.574 -25.061 -14.339  0.00  0.00    -0.294 N 
ATOM     10  C   UNL     1      38.583 -25.588 -12.970  0.00  0.00    +0.113 C 
ATOM     11  C   UNL     1      39.854 -25.217 -15.036  0.00  0.00    +0.113 C 
ENDBRANCH   8   9
ENDBRANCH   1   8
TORSDOF 4
ENDMDL
MODEL 8
REMARK VINA RESULT:      -4.6      7.732      9.616
REMARK  Name = 7347
REMARK  4 active torsions:
REMARK  status: ('A' for Active; 'I' for Inactive)
REMARK    1  A    between atoms: S_1  and  C_3
REMARK    2  A    between atoms: S_1  and  C_8
REMARK    3  A    between atoms: C_3  and  N_4
REMARK    4  A    between atoms: C_8  and  N_9
REMARK                            x       y       z     vdW  Elec       q    Type
REMARK                         _______ _______ _______ _____ _____    ______ ____
ROOT
ATOM      1  S   UNL     1      35.923 -25.401 -15.017  0.00  0.00    -0.044 S 
ENDROOT
BRANCH   1   3
ATOM      2  S   UNL     1      37.425 -22.892 -15.622  0.00  0.00    -0.028 S 
ATOM      3  C   UNL     1      37.425 -24.444 -14.948  0.00  0.00    +0.117 C 
BRANCH   3   4
ATOM      4  N   UNL     1      38.537 -25.071 -14.348  0.00  0.00    -0.294 N 
ATOM      5  C   UNL     1      38.520 -25.668 -13.009  0.00  0.00    +0.113 C 
ATOM      6  C   UNL     1      39.830 -25.186 -15.025  0.00  0.00    +0.113 C 
ENDBRANCH   3   4
ENDBRANCH   1   3
BRANCH   1   8
ATOM      7  S   UNL     1      35.253 -24.016 -12.456  0.00  0.00    -0.028 S 
ATOM      8  C   UNL     1      34.867 -24.317 -14.076  0.00  0.00    +0.117 C 
BRANCH   8   9
ATOM      9  N   UNL     1      33.746 -23.797 -14.755  0.00  0.00    -0.294 N 
ATOM     10  C   UNL     1      32.444 -23.556 -14.126  0.00  0.00    +0.113 C 
ATOM     11  C   UNL     1      33.784 -23.446 -16.177  0.00  0.00    +0.113 C 
ENDBRANCH   8   9
ENDBRANCH   1   8
TORSDOF 4
ENDMDL
MODEL 9
REMARK VINA RESULT:      -4.6      6.997      9.654
REMARK  Name = 7347
REMARK  4 active torsions:
REMARK  status: ('A' for Active; 'I' for Inactive)
REMARK    1  A    between atoms: S_1  and  C_3
REMARK    2  A    between atoms: S_1  and  C_8
REMARK    3  A    between atoms: C_3  and  N_4
REMARK    4  A    between atoms: C_8  and  N_9
REMARK                            x       y       z     vdW  Elec       q    Type
REMARK                         _______ _______ _______ _____ _____    ______ ____
ROOT
ATOM      1  S   UNL     1      35.485 -24.285 -13.599  0.00  0.00    -0.044 S 
ENDROOT
BRANCH   1   3
ATOM      2  S   UNL     1      36.746 -26.515 -15.132  0.00  0.00    -0.028 S 
ATOM      3  C   UNL     1      36.910 -25.283 -13.985  0.00  0.00    +0.117 C 
BRANCH   3   4
ATOM      4  N   UNL     1      38.090 -24.985 -13.272  0.00  0.00    -0.294 N 
ATOM      5  C   UNL     1      38.135 -24.143 -12.073  0.00  0.00    +0.113 C 
ATOM      6  C   UNL     1      39.399 -25.504 -13.673  0.00  0.00    +0.113 C 
ENDBRANCH   3   4
ENDBRANCH   1   3
BRANCH   1   8
ATOM      7  S   UNL     1      36.733 -22.676 -15.784  0.00  0.00    -0.028 S 
ATOM      8  C   UNL     1      35.346 -23.401 -15.141  0.00  0.00    +0.117 C 
BRANCH   8   9
ATOM      9  N   UNL     1      34.059 -23.347 -15.713  0.00  0.00    -0.294 N 
ATOM     10  C   UNL     1      32.814 -23.470 -14.948  0.00  0.00    +0.113 C 
ATOM     11  C   UNL     1      33.848 -23.159 -17.151  0.00  0.00    +0.113 C 
ENDBRANCH   8   9
ENDBRANCH   1   8
TORSDOF 4
ENDMDL
