MODEL 1
REMARK VINA RESULT:      -7.0      0.000      0.000
REMARK  Name = 440917
REMARK  1 active torsions:
REMARK  status: ('A' for Active; 'I' for Inactive)
REMARK    1  A    between atoms: C_1  and  C_8
REMARK                            x       y       z     vdW  Elec       q    Type
REMARK                         _______ _______ _______ _____ _____    ______ ____
ROOT
ATOM      1  C   UNL     1      34.698 -19.641 -21.587  0.00  0.00    +0.023 C 
ATOM      2  C   UNL     1      33.392 -19.457 -20.804  0.00  0.00    +0.009 C 
ATOM      3  C   UNL     1      35.822 -20.095 -20.642  0.00  0.00    +0.029 C 
ATOM      4  C   UNL     1      32.971 -20.758 -20.112  0.00  0.00    +0.022 C 
ATOM      5  C   UNL     1      34.110 -21.481 -19.439  0.00  0.00    -0.048 C 
ATOM      6  C   UNL     1      35.393 -21.161 -19.675  0.00  0.00    -0.034 C 
ATOM      7  C   UNL     1      33.727 -22.580 -18.492  0.00  0.00    +0.026 C 
ENDROOT
BRANCH   1   8
ATOM      8  C   UNL     1      35.080 -18.383 -22.307  0.00  0.00    -0.044 C 
ATOM      9  C   UNL     1      35.141 -17.137 -21.474  0.00  0.00    +0.026 C 
ATOM     10  C   UNL     1      35.352 -18.372 -23.620  0.00  0.00    -0.009 C 
ENDBRANCH   1   8
TORSDOF 1
ENDMDL
MODEL 2
REMARK VINA RESULT:      -6.9      0.428      1.953
REMARK  Name = 440917
REMARK  1 active torsions:
REMARK  status: ('A' for Active; 'I' for Inactive)
REMARK    1  A    between atoms: C_1  and  C_8
REMARK                            x       y       z     vdW  Elec       q    Type
REMARK                         _______ _______ _______ _____ _____    ______ ____
ROOT
ATOM      1  C   UNL     1      34.649 -19.109 -20.980  0.00  0.00    +0.023 C 
ATOM      2  C   UNL     1      35.671 -20.252 -20.935  0.00  0.00    +0.009 C 
ATOM      3  C   UNL     1      33.221 -19.678 -21.004  0.00  0.00    +0.029 C 
ATOM      4  C   UNL     1      35.462 -21.135 -19.699  0.00  0.00    +0.022 C 
ATOM      5  C   UNL     1      34.015 -21.462 -19.427  0.00  0.00    -0.048 C 
ATOM      6  C   UNL     1      33.013 -20.807 -20.035  0.00  0.00    -0.034 C 
ATOM      7  C   UNL     1      33.760 -22.559 -18.437  0.00  0.00    +0.026 C 
ENDROOT
BRANCH   1   8
ATOM      8  C   UNL     1      34.888 -18.215 -22.159  0.00  0.00    -0.044 C 
ATOM      9  C   UNL     1      34.992 -18.893 -23.493  0.00  0.00    +0.026 C 
ATOM     10  C   UNL     1      35.003 -16.885 -22.028  0.00  0.00    -0.009 C 
ENDBRANCH   1   8
TORSDOF 1
ENDMDL
MODEL 3
REMARK VINA RESULT:      -6.6      1.097      4.586
REMARK  Name = 440917
REMARK  1 active torsions:
REMARK  status: ('A' for Active; 'I' for Inactive)
REMARK    1  A    between atoms: C_1  and  C_8
REMARK                            x       y       z     vdW  Elec       q    Type
REMARK                         _______ _______ _______ _____ _____    ______ ____
ROOT
ATOM      1  C   UNL     1      35.480 -20.718 -20.418  0.00  0.00    +0.023 C 
ATOM      2  C   UNL     1      36.582 -19.655 -20.349  0.00  0.00    +0.009 C 
ATOM      3  C   UNL     1      34.106 -20.046 -20.573  0.00  0.00    +0.029 C 
ATOM      4  C   UNL     1      36.590 -18.781 -21.609  0.00  0.00    +0.022 C 
ATOM      5  C   UNL     1      35.215 -18.353 -22.057  0.00  0.00    -0.048 C 
ATOM      6  C   UNL     1      34.101 -18.923 -21.569  0.00  0.00    -0.034 C 
ATOM      7  C   UNL     1      35.164 -17.258 -23.080  0.00  0.00    +0.026 C 
ENDROOT
BRANCH   1   8
ATOM      8  C   UNL     1      35.507 -21.607 -19.211  0.00  0.00    -0.044 C 
ATOM      9  C   UNL     1      34.292 -22.458 -18.990  0.00  0.00    +0.026 C 
ATOM     10  C   UNL     1      36.557 -21.639 -18.378  0.00  0.00    -0.009 C 
ENDBRANCH   1   8
TORSDOF 1
ENDMDL
MODEL 4
REMARK VINA RESULT:      -6.6      1.240      4.769
REMARK  Name = 440917
REMARK  1 active torsions:
REMARK  status: ('A' for Active; 'I' for Inactive)
REMARK    1  A    between atoms: C_1  and  C_8
REMARK                            x       y       z     vdW  Elec       q    Type
REMARK                         _______ _______ _______ _____ _____    ______ ____
ROOT
ATOM      1  C   UNL     1      34.299 -19.175 -21.748  0.00  0.00    +0.023 C 
ATOM      2  C   UNL     1      34.941 -19.643 -23.059  0.00  0.00    +0.009 C 
ATOM      3  C   UNL     1      34.807 -17.770 -21.383  0.00  0.00    +0.029 C 
ATOM      4  C   UNL     1      34.623 -18.680 -24.209  0.00  0.00    +0.022 C 
ATOM      5  C   UNL     1      34.752 -17.226 -23.832  0.00  0.00    -0.048 C 
ATOM      6  C   UNL     1      34.850 -16.830 -22.553  0.00  0.00    -0.034 C 
ATOM      7  C   UNL     1      34.761 -16.247 -24.969  0.00  0.00    +0.026 C 
ENDROOT
BRANCH   1   8
ATOM      8  C   UNL     1      34.565 -20.145 -20.637  0.00  0.00    -0.044 C 
ATOM      9  C   UNL     1      33.358 -20.723 -19.961  0.00  0.00    +0.026 C 
ATOM     10  C   UNL     1      35.811 -20.476 -20.268  0.00  0.00    -0.009 C 
ENDBRANCH   1   8
TORSDOF 1
ENDMDL
MODEL 5
REMARK VINA RESULT:      -6.5      0.913      4.790
REMARK  Name = 440917
REMARK  1 active torsions:
REMARK  status: ('A' for Active; 'I' for Inactive)
REMARK    1  A    between atoms: C_1  and  C_8
REMARK                            x       y       z     vdW  Elec       q    Type
REMARK                         _______ _______ _______ _____ _____    ______ ____
ROOT
ATOM      1  C   UNL     1      34.351 -21.875 -19.367  0.00  0.00    +0.023 C 
ATOM      2  C   UNL     1      35.646 -21.059 -19.463  0.00  0.00    +0.009 C 
ATOM      3  C   UNL     1      33.133 -20.962 -19.587  0.00  0.00    +0.029 C 
ATOM      4  C   UNL     1      35.771 -20.376 -20.830  0.00  0.00    +0.022 C 
ATOM      5  C   UNL     1      34.491 -19.738 -21.307  0.00  0.00    -0.048 C 
ATOM      6  C   UNL     1      33.308 -20.000 -20.726  0.00  0.00    -0.034 C 
ATOM      7  C   UNL     1      34.613 -18.798 -22.469  0.00  0.00    +0.026 C 
ENDROOT
BRANCH   1   8
ATOM      8  C   UNL     1      34.255 -22.587 -18.051  0.00  0.00    -0.044 C 
ATOM      9  C   UNL     1      35.471 -22.522 -17.175  0.00  0.00    +0.026 C 
ATOM     10  C   UNL     1      33.147 -23.244 -17.680  0.00  0.00    -0.009 C 
ENDBRANCH   1   8
TORSDOF 1
ENDMDL
MODEL 6
REMARK VINA RESULT:      -6.4      1.438      4.886
REMARK  Name = 440917
REMARK  1 active torsions:
REMARK  status: ('A' for Active; 'I' for Inactive)
REMARK    1  A    between atoms: C_1  and  C_8
REMARK                            x       y       z     vdW  Elec       q    Type
REMARK                         _______ _______ _______ _____ _____    ______ ____
ROOT
ATOM      1  C   UNL     1      35.423 -18.788 -22.039  0.00  0.00    +0.023 C 
ATOM      2  C   UNL     1      34.659 -17.498 -21.720  0.00  0.00    +0.009 C 
ATOM      3  C   UNL     1      34.870 -19.427 -23.324  0.00  0.00    +0.029 C 
ATOM      4  C   UNL     1      34.768 -16.489 -22.869  0.00  0.00    +0.022 C 
ATOM      5  C   UNL     1      34.588 -17.105 -24.234  0.00  0.00    -0.048 C 
ATOM      6  C   UNL     1      34.620 -18.435 -24.422  0.00  0.00    -0.034 C 
ATOM      7  C   UNL     1      34.373 -16.147 -25.368  0.00  0.00    +0.026 C 
ENDROOT
BRANCH   1   8
ATOM      8  C   UNL     1      35.362 -19.752 -20.893  0.00  0.00    -0.044 C 
ATOM      9  C   UNL     1      33.991 -20.194 -20.474  0.00  0.00    +0.026 C 
ATOM     10  C   UNL     1      36.468 -20.194 -20.277  0.00  0.00    -0.009 C 
ENDBRANCH   1   8
TORSDOF 1
ENDMDL
MODEL 7
REMARK VINA RESULT:      -6.3      2.185      5.488
REMARK  Name = 440917
REMARK  1 active torsions:
REMARK  status: ('A' for Active; 'I' for Inactive)
REMARK    1  A    between atoms: C_1  and  C_8
REMARK                            x       y       z     vdW  Elec       q    Type
REMARK                         _______ _______ _______ _____ _____    ______ ____
ROOT
ATOM      1  C   UNL     1      34.468 -17.429 -21.811  0.00  0.00    +0.023 C 
ATOM      2  C   UNL     1      35.050 -17.133 -23.198  0.00  0.00    +0.009 C 
ATOM      3  C   UNL     1      34.709 -16.236 -20.871  0.00  0.00    +0.029 C 
ATOM      4  C   UNL     1      34.419 -15.877 -23.810  0.00  0.00    +0.022 C 
ATOM      5  C   UNL     1      34.282 -14.734 -22.836  0.00  0.00    -0.048 C 
ATOM      6  C   UNL     1      34.432 -14.906 -21.513  0.00  0.00    -0.034 C 
ATOM      7  C   UNL     1      33.968 -13.393 -23.431  0.00  0.00    +0.026 C 
ENDROOT
BRANCH   1   8
ATOM      8  C   UNL     1      35.046 -18.687 -21.237  0.00  0.00    -0.044 C 
ATOM      9  C   UNL     1      34.059 -19.732 -20.809  0.00  0.00    +0.026 C 
ATOM     10  C   UNL     1      36.369 -18.867 -21.112  0.00  0.00    -0.009 C 
ENDBRANCH   1   8
TORSDOF 1
ENDMDL
MODEL 8
REMARK VINA RESULT:      -6.2      9.553     11.459
REMARK  Name = 440917
REMARK  1 active torsions:
REMARK  status: ('A' for Active; 'I' for Inactive)
REMARK    1  A    between atoms: C_1  and  C_8
REMARK                            x       y       z     vdW  Elec       q    Type
REMARK                         _______ _______ _______ _____ _____    ______ ____
ROOT
ATOM      1  C   UNL     1      34.276  -9.883 -23.889  0.00  0.00    +0.023 C 
ATOM      2  C   UNL     1      32.769  -9.977 -23.623  0.00  0.00    +0.009 C 
ATOM      3  C   UNL     1      34.701  -8.410 -24.008  0.00  0.00    +0.029 C 
ATOM      4  C   UNL     1      32.385  -9.238 -22.336  0.00  0.00    +0.022 C 
ATOM      5  C   UNL     1      33.052  -7.894 -22.188  0.00  0.00    -0.048 C 
ATOM      6  C   UNL     1      34.087  -7.526 -22.960  0.00  0.00    -0.034 C 
ATOM      7  C   UNL     1      32.493  -6.992 -21.127  0.00  0.00    +0.026 C 
ENDROOT
BRANCH   1   8
ATOM      8  C   UNL     1      34.659 -10.650 -25.118  0.00  0.00    -0.044 C 
ATOM      9  C   UNL     1      33.855 -11.883 -25.404  0.00  0.00    +0.026 C 
ATOM     10  C   UNL     1      35.663 -10.257 -25.915  0.00  0.00    -0.009 C 
ENDBRANCH   1   8
TORSDOF 1
ENDMDL
MODEL 9
REMARK VINA RESULT:      -6.2      2.202      5.514
REMARK  Name = 440917
REMARK  1 active torsions:
REMARK  status: ('A' for Active; 'I' for Inactive)
REMARK    1  A    between atoms: C_1  and  C_8
REMARK                            x       y       z     vdW  Elec       q    Type
REMARK                         _______ _______ _______ _____ _____    ______ ____
ROOT
ATOM      1  C   UNL     1      35.269 -17.186 -21.831  0.00  0.00    +0.023 C 
ATOM      2  C   UNL     1      34.380 -16.264 -20.988  0.00  0.00    +0.009 C 
ATOM      3  C   UNL     1      34.773 -17.213 -23.286  0.00  0.00    +0.029 C 
ATOM      4  C   UNL     1      34.376 -14.835 -21.543  0.00  0.00    +0.022 C 
ATOM      5  C   UNL     1      34.248 -14.770 -23.045  0.00  0.00    -0.048 C 
ATOM      6  C   UNL     1      34.415 -15.856 -23.819  0.00  0.00    -0.034 C 
ATOM      7  C   UNL     1      33.927 -13.424 -23.624  0.00  0.00    +0.026 C 
ENDROOT
BRANCH   1   8
ATOM      8  C   UNL     1      35.315 -18.569 -21.256  0.00  0.00    -0.044 C 
ATOM      9  C   UNL     1      33.995 -19.264 -21.099  0.00  0.00    +0.026 C 
ATOM     10  C   UNL     1      36.470 -19.151 -20.901  0.00  0.00    -0.009 C 
ENDBRANCH   1   8
TORSDOF 1
ENDMDL
