MODEL 1
REMARK VINA RESULT:     -10.4      0.000      0.000
REMARK  Name = 5311100
REMARK  16 active torsions:
REMARK  status: ('A' for Active; 'I' for Inactive)
REMARK    1  A    between atoms: C_1  and  C_27
REMARK    2  A    between atoms: C_2  and  C_10
REMARK    3  A    between atoms: C_3  and  O_6
REMARK    4  A    between atoms: C_4  and  O_8
REMARK    5  A    between atoms: C_11  and  C_12
REMARK    6  A    between atoms: C_12  and  O_13
REMARK    7  A    between atoms: C_12  and  C_15
REMARK    8  A    between atoms: C_15  and  O_16
REMARK    9  A    between atoms: O_16  and  C_17
REMARK   10  A    between atoms: C_20  and  C_26
REMARK   11  A    between atoms: C_27  and  C_28
REMARK   12  A    between atoms: C_29  and  C_30
REMARK   13  A    between atoms: C_30  and  C_31
REMARK   14  A    between atoms: C_31  and  C_32
REMARK   15  A    between atoms: C_32  and  C_34
REMARK   16  A    between atoms: C_34  and  O_35
REMARK                            x       y       z     vdW  Elec       q    Type
REMARK                         _______ _______ _______ _____ _____    ______ ____
ROOT
ATOM      1  C   UNL     1      36.408 -24.120 -13.203  0.00  0.00    +0.038 C 
ATOM      2  C   UNL     1      36.731 -24.551 -14.643  0.00  0.00    +0.051 C 
ATOM      3  C   UNL     1      37.303 -25.046 -12.375  0.00  0.00    +0.114 C 
ATOM      4  C   UNL     1      38.247 -24.818 -14.616  0.00  0.00    +0.117 C 
ATOM      5  C   UNL     1      38.625 -25.043 -13.143  0.00  0.00    +0.059 C 
ENDROOT
BRANCH   3   6
ATOM      6  O   UNL     1      36.787 -26.369 -12.289  0.00  0.00    -0.384 OA
ATOM      7  H   UNL     1      36.230 -26.550 -13.063  0.00  0.00    +0.210 HD
ENDBRANCH   3   6
BRANCH   4   8
ATOM      8  O   UNL     1      38.555 -25.983 -15.371  0.00  0.00    -0.384 OA
ATOM      9  H   UNL     1      39.465 -26.261 -15.178  0.00  0.00    +0.210 HD
ENDBRANCH   4   8
BRANCH   2  10
ATOM     10  C   UNL     1      36.357 -23.531 -15.672  0.00  0.00    -0.026 C 
ATOM     11  C   UNL     1      37.106 -22.458 -15.968  0.00  0.00    +0.002 C 
BRANCH  11  12
ATOM     12  C   UNL     1      36.726 -21.434 -17.001  0.00  0.00    +0.176 C 
BRANCH  12  13
ATOM     13  O   UNL     1      37.677 -20.375 -16.927  0.00  0.00    -0.376 OA
ATOM     14  H   UNL     1      38.275 -20.530 -16.179  0.00  0.00    +0.211 HD
ENDBRANCH  12  13
BRANCH  12  15
ATOM     15  C   UNL     1      36.743 -22.023 -18.408  0.00  0.00    +0.239 C 
BRANCH  15  16
ATOM     16  O   UNL     1      35.416 -22.269 -18.847  0.00  0.00    -0.472 OA
BRANCH  16  17
ATOM     17  C   UNL     1      34.831 -21.305 -19.627  0.00  0.00    +0.139 C 
ATOM     18  C   UNL     1      35.625 -20.420 -20.357  0.00  0.00    +0.041 C 
ATOM     19  C   UNL     1      33.441 -21.208 -19.690  0.00  0.00    +0.037 C 
ATOM     20  C   UNL     1      35.030 -19.440 -21.149  0.00  0.00    +0.074 C 
ATOM     21  C   UNL     1      32.845 -20.227 -20.482  0.00  0.00    +0.003 C 
ATOM     22  C   UNL     1      33.639 -19.342 -21.212  0.00  0.00    +0.004 C 
BRANCH  20  26
ATOM     23  F   UNL     1      35.650 -17.180 -21.632  0.00  0.00    -0.166 F 
ATOM     24  F   UNL     1      37.219 -18.673 -21.733  0.00  0.00    -0.166 F 
ATOM     25  F   UNL     1      35.687 -18.604 -23.275  0.00  0.00    -0.166 F 
ATOM     26  C   UNL     1      35.879 -18.494 -21.929  0.00  0.00    +0.419 C 
ENDBRANCH  20  26
ENDBRANCH  16  17
ENDBRANCH  15  16
ENDBRANCH  12  15
ENDBRANCH  11  12
ENDBRANCH   2  10
BRANCH   1  27
ATOM     27  C   UNL     1      34.929 -24.231 -12.855  0.00  0.00    +0.028 C 
BRANCH  27  28
ATOM     28  C   UNL     1      34.033 -24.847 -13.894  0.00  0.00    -0.031 C 
ATOM     29  C   UNL     1      32.833 -24.402 -14.297  0.00  0.00    -0.031 C 
BRANCH  29  30
ATOM     30  C   UNL     1      32.176 -23.169 -13.747  0.00  0.00    +0.026 C 
BRANCH  30  31
ATOM     31  C   UNL     1      30.690 -23.048 -14.111  0.00  0.00    +0.016 C 
BRANCH  31  32
ATOM     32  C   UNL     1      30.306 -23.769 -15.407  0.00  0.00    +0.110 C 
BRANCH  32  34
ATOM     33  O   UNL     1      29.087 -22.401 -17.011  0.00  0.00    -0.250 OA
ATOM     34  C   UNL     1      30.148 -22.844 -16.594  0.00  0.00    +0.314 C 
BRANCH  34  35
ATOM     35  O   UNL     1      31.341 -22.586 -17.191  0.00  0.00    -0.480 OA
ATOM     36  H   UNL     1      32.124 -22.550 -16.677  0.00  0.00    +0.295 HD
ENDBRANCH  34  35
ENDBRANCH  32  34
ENDBRANCH  31  32
ENDBRANCH  30  31
ENDBRANCH  29  30
ENDBRANCH  27  28
ENDBRANCH   1  27
TORSDOF 16
ENDMDL
MODEL 2
REMARK VINA RESULT:     -10.0      2.013      5.526
REMARK  Name = 5311100
REMARK  16 active torsions:
REMARK  status: ('A' for Active; 'I' for Inactive)
REMARK    1  A    between atoms: C_1  and  C_27
REMARK    2  A    between atoms: C_2  and  C_10
REMARK    3  A    between atoms: C_3  and  O_6
REMARK    4  A    between atoms: C_4  and  O_8
REMARK    5  A    between atoms: C_11  and  C_12
REMARK    6  A    between atoms: C_12  and  O_13
REMARK    7  A    between atoms: C_12  and  C_15
REMARK    8  A    between atoms: C_15  and  O_16
REMARK    9  A    between atoms: O_16  and  C_17
REMARK   10  A    between atoms: C_20  and  C_26
REMARK   11  A    between atoms: C_27  and  C_28
REMARK   12  A    between atoms: C_29  and  C_30
REMARK   13  A    between atoms: C_30  and  C_31
REMARK   14  A    between atoms: C_31  and  C_32
REMARK   15  A    between atoms: C_32  and  C_34
REMARK   16  A    between atoms: C_34  and  O_35
REMARK                            x       y       z     vdW  Elec       q    Type
REMARK                         _______ _______ _______ _____ _____    ______ ____
ROOT
ATOM      1  C   UNL     1      32.014 -24.361 -14.556  0.00  0.00    +0.038 C 
ATOM      2  C   UNL     1      31.094 -23.501 -15.438  0.00  0.00    +0.051 C 
ATOM      3  C   UNL     1      31.012 -25.191 -13.749  0.00  0.00    +0.114 C 
ATOM      4  C   UNL     1      29.954 -24.460 -15.826  0.00  0.00    +0.117 C 
ATOM      5  C   UNL     1      29.967 -25.595 -14.789  0.00  0.00    +0.059 C 
ENDROOT
BRANCH   3   6
ATOM      6  O   UNL     1      30.403 -24.444 -12.703  0.00  0.00    -0.384 OA
ATOM      7  H   UNL     1      29.745 -23.838 -13.079  0.00  0.00    +0.210 HD
ENDBRANCH   3   6
BRANCH   4   8
ATOM      8  O   UNL     1      28.705 -23.783 -15.777  0.00  0.00    -0.384 OA
ATOM      9  H   UNL     1      28.190 -23.998 -16.572  0.00  0.00    +0.210 HD
ENDBRANCH   4   8
BRANCH   2  10
ATOM     10  C   UNL     1      31.781 -22.927 -16.637  0.00  0.00    -0.026 C 
ATOM     11  C   UNL     1      32.991 -23.317 -17.064  0.00  0.00    +0.002 C 
BRANCH  11  12
ATOM     12  C   UNL     1      33.680 -22.738 -18.268  0.00  0.00    +0.176 C 
BRANCH  12  13
ATOM     13  O   UNL     1      33.815 -23.781 -19.229  0.00  0.00    -0.376 OA
ATOM     14  H   UNL     1      32.958 -23.942 -19.655  0.00  0.00    +0.211 HD
ENDBRANCH  12  13
BRANCH  12  15
ATOM     15  C   UNL     1      32.874 -21.596 -18.881  0.00  0.00    +0.239 C 
BRANCH  15  16
ATOM     16  O   UNL     1      33.240 -21.420 -20.240  0.00  0.00    -0.472 OA
BRANCH  16  17
ATOM     17  C   UNL     1      34.160 -20.440 -20.513  0.00  0.00    +0.139 C 
ATOM     18  C   UNL     1      33.733 -19.164 -20.881  0.00  0.00    +0.041 C 
ATOM     19  C   UNL     1      35.524 -20.720 -20.423  0.00  0.00    +0.037 C 
ATOM     20  C   UNL     1      34.669 -18.169 -21.160  0.00  0.00    +0.074 C 
ATOM     21  C   UNL     1      36.460 -19.725 -20.701  0.00  0.00    +0.003 C 
ATOM     22  C   UNL     1      36.033 -18.449 -21.069  0.00  0.00    +0.004 C 
BRANCH  20  26
ATOM     23  F   UNL     1      34.127 -16.625 -22.906  0.00  0.00    -0.166 F 
ATOM     24  F   UNL     1      32.975 -16.482 -21.074  0.00  0.00    -0.166 F 
ATOM     25  F   UNL     1      35.048 -15.823 -21.107  0.00  0.00    -0.166 F 
ATOM     26  C   UNL     1      34.213 -16.805 -21.554  0.00  0.00    +0.419 C 
ENDBRANCH  20  26
ENDBRANCH  16  17
ENDBRANCH  15  16
ENDBRANCH  12  15
ENDBRANCH  11  12
ENDBRANCH   2  10
BRANCH   1  27
ATOM     27  C   UNL     1      32.962 -23.541 -13.690  0.00  0.00    +0.028 C 
BRANCH  27  28
ATOM     28  C   UNL     1      34.152 -24.261 -13.119  0.00  0.00    -0.031 C 
ATOM     29  C   UNL     1      35.424 -24.191 -13.543  0.00  0.00    -0.031 C 
BRANCH  29  30
ATOM     30  C   UNL     1      35.867 -23.347 -14.703  0.00  0.00    +0.026 C 
BRANCH  30  31
ATOM     31  C   UNL     1      37.219 -23.773 -15.293  0.00  0.00    +0.016 C 
BRANCH  31  32
ATOM     32  C   UNL     1      38.078 -24.610 -14.340  0.00  0.00    +0.110 C 
BRANCH  32  34
ATOM     33  O   UNL     1      39.290 -26.715 -14.505  0.00  0.00    -0.250 OA
ATOM     34  C   UNL     1      38.341 -26.016 -14.833  0.00  0.00    +0.314 C 
BRANCH  34  35
ATOM     35  O   UNL     1      37.409 -26.413 -15.738  0.00  0.00    -0.480 OA
ATOM     36  H   UNL     1      37.452 -27.273 -16.108  0.00  0.00    +0.295 HD
ENDBRANCH  34  35
ENDBRANCH  32  34
ENDBRANCH  31  32
ENDBRANCH  30  31
ENDBRANCH  29  30
ENDBRANCH  27  28
ENDBRANCH   1  27
TORSDOF 16
ENDMDL
MODEL 3
REMARK VINA RESULT:      -9.9      2.173      3.236
REMARK  Name = 5311100
REMARK  16 active torsions:
REMARK  status: ('A' for Active; 'I' for Inactive)
REMARK    1  A    between atoms: C_1  and  C_27
REMARK    2  A    between atoms: C_2  and  C_10
REMARK    3  A    between atoms: C_3  and  O_6
REMARK    4  A    between atoms: C_4  and  O_8
REMARK    5  A    between atoms: C_11  and  C_12
REMARK    6  A    between atoms: C_12  and  O_13
REMARK    7  A    between atoms: C_12  and  C_15
REMARK    8  A    between atoms: C_15  and  O_16
REMARK    9  A    between atoms: O_16  and  C_17
REMARK   10  A    between atoms: C_20  and  C_26
REMARK   11  A    between atoms: C_27  and  C_28
REMARK   12  A    between atoms: C_29  and  C_30
REMARK   13  A    between atoms: C_30  and  C_31
REMARK   14  A    between atoms: C_31  and  C_32
REMARK   15  A    between atoms: C_32  and  C_34
REMARK   16  A    between atoms: C_34  and  O_35
REMARK                            x       y       z     vdW  Elec       q    Type
REMARK                         _______ _______ _______ _____ _____    ______ ____
ROOT
ATOM      1  C   UNL     1      34.006 -23.571 -14.540  0.00  0.00    +0.038 C 
ATOM      2  C   UNL     1      34.746 -23.829 -15.863  0.00  0.00    +0.051 C 
ATOM      3  C   UNL     1      35.133 -23.682 -13.508  0.00  0.00    +0.114 C 
ATOM      4  C   UNL     1      36.092 -23.106 -15.678  0.00  0.00    +0.117 C 
ATOM      5  C   UNL     1      36.291 -22.931 -14.164  0.00  0.00    +0.059 C 
ENDROOT
BRANCH   3   6
ATOM      6  O   UNL     1      35.504 -25.030 -13.249  0.00  0.00    -0.384 OA
ATOM      7  H   UNL     1      34.783 -25.480 -12.779  0.00  0.00    +0.210 HD
ENDBRANCH   3   6
BRANCH   4   8
ATOM      8  O   UNL     1      37.150 -23.894 -16.210  0.00  0.00    -0.384 OA
ATOM      9  H   UNL     1      37.750 -24.156 -15.493  0.00  0.00    +0.210 HD
ENDBRANCH   4   8
BRANCH   2  10
ATOM     10  C   UNL     1      34.005 -23.342 -17.067  0.00  0.00    -0.026 C 
ATOM     11  C   UNL     1      34.533 -22.522 -17.989  0.00  0.00    +0.002 C 
BRANCH  11  12
ATOM     12  C   UNL     1      33.785 -22.033 -19.198  0.00  0.00    +0.176 C 
BRANCH  12  13
ATOM     13  O   UNL     1      32.518 -21.553 -18.756  0.00  0.00    -0.376 OA
ATOM     14  H   UNL     1      32.281 -20.757 -19.256  0.00  0.00    +0.211 HD
ENDBRANCH  12  13
BRANCH  12  15
ATOM     15  C   UNL     1      34.530 -20.901 -19.899  0.00  0.00    +0.239 C 
BRANCH  15  16
ATOM     16  O   UNL     1      33.625 -20.135 -20.679  0.00  0.00    -0.472 OA
BRANCH  16  17
ATOM     17  C   UNL     1      34.158 -19.113 -21.422  0.00  0.00    +0.139 C 
ATOM     18  C   UNL     1      33.962 -17.789 -21.030  0.00  0.00    +0.041 C 
ATOM     19  C   UNL     1      34.895 -19.398 -22.572  0.00  0.00    +0.037 C 
ATOM     20  C   UNL     1      34.503 -16.750 -21.786  0.00  0.00    +0.074 C 
ATOM     21  C   UNL     1      35.436 -18.359 -23.329  0.00  0.00    +0.003 C 
ATOM     22  C   UNL     1      35.241 -17.035 -22.936  0.00  0.00    +0.004 C 
BRANCH  20  26
ATOM     23  F   UNL     1      32.988 -15.027 -21.108  0.00  0.00    -0.166 F 
ATOM     24  F   UNL     1      34.971 -14.995 -20.230  0.00  0.00    -0.166 F 
ATOM     25  F   UNL     1      34.698 -14.441 -22.316  0.00  0.00    -0.166 F 
ATOM     26  C   UNL     1      34.294 -15.334 -21.367  0.00  0.00    +0.419 C 
ENDBRANCH  20  26
ENDBRANCH  16  17
ENDBRANCH  15  16
ENDBRANCH  12  15
ENDBRANCH  11  12
ENDBRANCH   2  10
BRANCH   1  27
ATOM     27  C   UNL     1      32.856 -24.537 -14.291  0.00  0.00    +0.028 C 
BRANCH  27  28
ATOM     28  C   UNL     1      31.663 -23.996 -13.551  0.00  0.00    -0.031 C 
ATOM     29  C   UNL     1      30.375 -24.323 -13.739  0.00  0.00    -0.031 C 
BRANCH  29  30
ATOM     30  C   UNL     1      29.911 -25.322 -14.759  0.00  0.00    +0.026 C 
BRANCH  30  31
ATOM     31  C   UNL     1      28.869 -24.764 -15.737  0.00  0.00    +0.016 C 
BRANCH  31  32
ATOM     32  C   UNL     1      29.069 -23.286 -16.083  0.00  0.00    +0.110 C 
BRANCH  32  34
ATOM     33  O   UNL     1      27.626 -21.568 -17.030  0.00  0.00    -0.250 OA
ATOM     34  C   UNL     1      28.011 -22.728 -17.011  0.00  0.00    +0.314 C 
BRANCH  34  35
ATOM     35  O   UNL     1      27.489 -23.693 -17.813  0.00  0.00    -0.480 OA
ATOM     36  H   UNL     1      27.751 -23.747 -18.712  0.00  0.00    +0.295 HD
ENDBRANCH  34  35
ENDBRANCH  32  34
ENDBRANCH  31  32
ENDBRANCH  30  31
ENDBRANCH  29  30
ENDBRANCH  27  28
ENDBRANCH   1  27
TORSDOF 16
ENDMDL
MODEL 4
REMARK VINA RESULT:      -9.8      5.956     10.370
REMARK  Name = 5311100
REMARK  16 active torsions:
REMARK  status: ('A' for Active; 'I' for Inactive)
REMARK    1  A    between atoms: C_1  and  C_27
REMARK    2  A    between atoms: C_2  and  C_10
REMARK    3  A    between atoms: C_3  and  O_6
REMARK    4  A    between atoms: C_4  and  O_8
REMARK    5  A    between atoms: C_11  and  C_12
REMARK    6  A    between atoms: C_12  and  O_13
REMARK    7  A    between atoms: C_12  and  C_15
REMARK    8  A    between atoms: C_15  and  O_16
REMARK    9  A    between atoms: O_16  and  C_17
REMARK   10  A    between atoms: C_20  and  C_26
REMARK   11  A    between atoms: C_27  and  C_28
REMARK   12  A    between atoms: C_29  and  C_30
REMARK   13  A    between atoms: C_30  and  C_31
REMARK   14  A    between atoms: C_31  and  C_32
REMARK   15  A    between atoms: C_32  and  C_34
REMARK   16  A    between atoms: C_34  and  O_35
REMARK                            x       y       z     vdW  Elec       q    Type
REMARK                         _______ _______ _______ _____ _____    ______ ____
ROOT
ATOM      1  C   UNL     1      33.950 -16.665 -22.252  0.00  0.00    +0.038 C 
ATOM      2  C   UNL     1      34.622 -18.040 -22.093  0.00  0.00    +0.051 C 
ATOM      3  C   UNL     1      34.432 -16.223 -23.636  0.00  0.00    +0.114 C 
ATOM      4  C   UNL     1      34.527 -18.660 -23.499  0.00  0.00    +0.117 C 
ATOM      5  C   UNL     1      34.311 -17.494 -24.477  0.00  0.00    +0.059 C 
ENDROOT
BRANCH   3   6
ATOM      6  O   UNL     1      35.780 -15.767 -23.624  0.00  0.00    -0.384 OA
ATOM      7  H   UNL     1      35.792 -14.798 -23.569  0.00  0.00    +0.210 HD
ENDBRANCH   3   6
BRANCH   4   8
ATOM      8  O   UNL     1      35.737 -19.335 -23.820  0.00  0.00    -0.384 OA
ATOM      9  H   UNL     1      35.945 -19.975 -23.121  0.00  0.00    +0.210 HD
ENDBRANCH   4   8
BRANCH   2  10
ATOM     10  C   UNL     1      33.981 -18.902 -21.052  0.00  0.00    -0.026 C 
ATOM     11  C   UNL     1      34.435 -20.116 -20.705  0.00  0.00    +0.002 C 
BRANCH  11  12
ATOM     12  C   UNL     1      33.788 -20.982 -19.659  0.00  0.00    +0.176 C 
BRANCH  12  13
ATOM     13  O   UNL     1      32.685 -21.644 -20.271  0.00  0.00    -0.376 OA
ATOM     14  H   UNL     1      31.856 -21.261 -19.944  0.00  0.00    +0.211 HD
ENDBRANCH  12  13
BRANCH  12  15
ATOM     15  C   UNL     1      34.759 -22.026 -19.116  0.00  0.00    +0.239 C 
BRANCH  15  16
ATOM     16  O   UNL     1      34.046 -23.183 -18.705  0.00  0.00    -0.472 OA
BRANCH  16  17
ATOM     17  C   UNL     1      33.584 -23.200 -17.414  0.00  0.00    +0.139 C 
ATOM     18  C   UNL     1      32.211 -23.186 -17.164  0.00  0.00    +0.041 C 
ATOM     19  C   UNL     1      34.486 -23.231 -16.350  0.00  0.00    +0.037 C 
ATOM     20  C   UNL     1      31.742 -23.202 -15.851  0.00  0.00    +0.074 C 
ATOM     21  C   UNL     1      34.016 -23.248 -15.038  0.00  0.00    +0.003 C 
ATOM     22  C   UNL     1      32.644 -23.234 -14.787  0.00  0.00    +0.004 C 
BRANCH  20  26
ATOM     23  F   UNL     1      29.952 -22.760 -14.326  0.00  0.00    -0.166 F 
ATOM     24  F   UNL     1      29.574 -22.371 -16.426  0.00  0.00    -0.166 F 
ATOM     25  F   UNL     1      29.705 -24.421 -15.709  0.00  0.00    -0.166 F 
ATOM     26  C   UNL     1      30.275 -23.187 -15.584  0.00  0.00    +0.419 C 
ENDBRANCH  20  26
ENDBRANCH  16  17
ENDBRANCH  15  16
ENDBRANCH  12  15
ENDBRANCH  11  12
ENDBRANCH   2  10
BRANCH   1  27
ATOM     27  C   UNL     1      34.306 -15.686 -21.141  0.00  0.00    +0.028 C 
BRANCH  27  28
ATOM     28  C   UNL     1      33.170 -15.167 -20.304  0.00  0.00    -0.031 C 
ATOM     29  C   UNL     1      32.300 -14.198 -20.627  0.00  0.00    -0.031 C 
BRANCH  29  30
ATOM     30  C   UNL     1      32.332 -13.454 -21.930  0.00  0.00    +0.026 C 
BRANCH  30  31
ATOM     31  C   UNL     1      31.833 -12.006 -21.825  0.00  0.00    +0.016 C 
BRANCH  31  32
ATOM     32  C   UNL     1      31.509 -11.562 -20.395  0.00  0.00    +0.110 C 
BRANCH  32  34
ATOM     33  O   UNL     1      32.223  -9.680 -19.025  0.00  0.00    -0.250 OA
ATOM     34  C   UNL     1      31.867 -10.120 -20.109  0.00  0.00    +0.314 C 
BRANCH  34  35
ATOM     35  O   UNL     1      31.701  -9.335 -21.206  0.00  0.00    -0.480 OA
ATOM     36  H   UNL     1      30.857  -9.264 -21.608  0.00  0.00    +0.295 HD
ENDBRANCH  34  35
ENDBRANCH  32  34
ENDBRANCH  31  32
ENDBRANCH  30  31
ENDBRANCH  29  30
ENDBRANCH  27  28
ENDBRANCH   1  27
TORSDOF 16
ENDMDL
MODEL 5
REMARK VINA RESULT:      -9.7      2.218      5.170
REMARK  Name = 5311100
REMARK  16 active torsions:
REMARK  status: ('A' for Active; 'I' for Inactive)
REMARK    1  A    between atoms: C_1  and  C_27
REMARK    2  A    between atoms: C_2  and  C_10
REMARK    3  A    between atoms: C_3  and  O_6
REMARK    4  A    between atoms: C_4  and  O_8
REMARK    5  A    between atoms: C_11  and  C_12
REMARK    6  A    between atoms: C_12  and  O_13
REMARK    7  A    between atoms: C_12  and  C_15
REMARK    8  A    between atoms: C_15  and  O_16
REMARK    9  A    between atoms: O_16  and  C_17
REMARK   10  A    between atoms: C_20  and  C_26
REMARK   11  A    between atoms: C_27  and  C_28
REMARK   12  A    between atoms: C_29  and  C_30
REMARK   13  A    between atoms: C_30  and  C_31
REMARK   14  A    between atoms: C_31  and  C_32
REMARK   15  A    between atoms: C_32  and  C_34
REMARK   16  A    between atoms: C_34  and  O_35
REMARK                            x       y       z     vdW  Elec       q    Type
REMARK                         _______ _______ _______ _____ _____    ______ ____
ROOT
ATOM      1  C   UNL     1      33.795 -24.130 -14.985  0.00  0.00    +0.038 C 
ATOM      2  C   UNL     1      32.895 -23.268 -15.886  0.00  0.00    +0.051 C 
ATOM      3  C   UNL     1      32.896 -24.383 -13.771  0.00  0.00    +0.114 C 
ATOM      4  C   UNL     1      31.497 -23.888 -15.711  0.00  0.00    +0.117 C 
ATOM      5  C   UNL     1      31.533 -24.681 -14.395  0.00  0.00    +0.059 C 
ENDROOT
BRANCH   3   6
ATOM      6  O   UNL     1      32.808 -23.253 -12.912  0.00  0.00    -0.384 OA
ATOM      7  H   UNL     1      33.217 -23.463 -12.058  0.00  0.00    +0.210 HD
ENDBRANCH   3   6
BRANCH   4   8
ATOM      8  O   UNL     1      30.514 -22.864 -15.625  0.00  0.00    -0.384 OA
ATOM      9  H   UNL     1      29.665 -23.253 -15.361  0.00  0.00    +0.210 HD
ENDBRANCH   4   8
BRANCH   2  10
ATOM     10  C   UNL     1      33.328 -23.247 -17.318  0.00  0.00    -0.026 C 
ATOM     11  C   UNL     1      34.100 -22.288 -17.852  0.00  0.00    +0.002 C 
BRANCH  11  12
ATOM     12  C   UNL     1      34.531 -22.269 -19.292  0.00  0.00    +0.176 C 
BRANCH  12  13
ATOM     13  O   UNL     1      34.014 -23.443 -19.912  0.00  0.00    -0.376 OA
ATOM     14  H   UNL     1      33.510 -23.957 -19.262  0.00  0.00    +0.211 HD
ENDBRANCH  12  13
BRANCH  12  15
ATOM     15  C   UNL     1      33.996 -21.041 -20.022  0.00  0.00    +0.239 C 
BRANCH  15  16
ATOM     16  O   UNL     1      35.023 -20.072 -20.158  0.00  0.00    -0.472 OA
BRANCH  16  17
ATOM     17  C   UNL     1      34.928 -19.212 -21.223  0.00  0.00    +0.139 C 
ATOM     18  C   UNL     1      34.703 -17.853 -21.005  0.00  0.00    +0.041 C 
ATOM     19  C   UNL     1      35.057 -19.698 -22.525  0.00  0.00    +0.037 C 
ATOM     20  C   UNL     1      34.606 -16.980 -22.088  0.00  0.00    +0.074 C 
ATOM     21  C   UNL     1      34.959 -18.825 -23.607  0.00  0.00    +0.003 C 
ATOM     22  C   UNL     1      34.734 -17.466 -23.390  0.00  0.00    +0.004 C 
BRANCH  20  26
ATOM     23  F   UNL     1      33.040 -15.192 -21.810  0.00  0.00    -0.166 F 
ATOM     24  F   UNL     1      34.887 -15.067 -20.680  0.00  0.00    -0.166 F 
ATOM     25  F   UNL     1      34.907 -14.742 -22.830  0.00  0.00    -0.166 F 
ATOM     26  C   UNL     1      34.364 -15.527 -21.855  0.00  0.00    +0.419 C 
ENDBRANCH  20  26
ENDBRANCH  16  17
ENDBRANCH  15  16
ENDBRANCH  12  15
ENDBRANCH  11  12
ENDBRANCH   2  10
BRANCH   1  27
ATOM     27  C   UNL     1      35.118 -23.463 -14.634  0.00  0.00    +0.028 C 
BRANCH  27  28
ATOM     28  C   UNL     1      36.346 -23.984 -15.328  0.00  0.00    -0.031 C 
ATOM     29  C   UNL     1      37.092 -25.042 -14.972  0.00  0.00    -0.031 C 
BRANCH  29  30
ATOM     30  C   UNL     1      36.799 -25.900 -13.776  0.00  0.00    +0.026 C 
BRANCH  30  31
ATOM     31  C   UNL     1      37.695 -25.597 -12.567  0.00  0.00    +0.016 C 
BRANCH  31  32
ATOM     32  C   UNL     1      37.310 -24.321 -11.811  0.00  0.00    +0.110 C 
BRANCH  32  34
ATOM     33  O   UNL     1      34.981 -24.894 -11.390  0.00  0.00    -0.250 OA
ATOM     34  C   UNL     1      36.050 -24.460 -10.985  0.00  0.00    +0.314 C 
BRANCH  34  35
ATOM     35  O   UNL     1      36.226 -23.996  -9.720  0.00  0.00    -0.480 OA
ATOM     36  H   UNL     1      35.528 -23.547  -9.284  0.00  0.00    +0.295 HD
ENDBRANCH  34  35
ENDBRANCH  32  34
ENDBRANCH  31  32
ENDBRANCH  30  31
ENDBRANCH  29  30
ENDBRANCH  27  28
ENDBRANCH   1  27
TORSDOF 16
ENDMDL
MODEL 6
REMARK VINA RESULT:      -9.7      5.646     10.529
REMARK  Name = 5311100
REMARK  16 active torsions:
REMARK  status: ('A' for Active; 'I' for Inactive)
REMARK    1  A    between atoms: C_1  and  C_27
REMARK    2  A    between atoms: C_2  and  C_10
REMARK    3  A    between atoms: C_3  and  O_6
REMARK    4  A    between atoms: C_4  and  O_8
REMARK    5  A    between atoms: C_11  and  C_12
REMARK    6  A    between atoms: C_12  and  O_13
REMARK    7  A    between atoms: C_12  and  C_15
REMARK    8  A    between atoms: C_15  and  O_16
REMARK    9  A    between atoms: O_16  and  C_17
REMARK   10  A    between atoms: C_20  and  C_26
REMARK   11  A    between atoms: C_27  and  C_28
REMARK   12  A    between atoms: C_29  and  C_30
REMARK   13  A    between atoms: C_30  and  C_31
REMARK   14  A    between atoms: C_31  and  C_32
REMARK   15  A    between atoms: C_32  and  C_34
REMARK   16  A    between atoms: C_34  and  O_35
REMARK                            x       y       z     vdW  Elec       q    Type
REMARK                         _______ _______ _______ _____ _____    ______ ____
ROOT
ATOM      1  C   UNL     1      33.873 -16.828 -22.406  0.00  0.00    +0.038 C 
ATOM      2  C   UNL     1      34.640 -18.127 -22.109  0.00  0.00    +0.051 C 
ATOM      3  C   UNL     1      34.450 -16.409 -23.762  0.00  0.00    +0.114 C 
ATOM      4  C   UNL     1      34.738 -18.818 -23.481  0.00  0.00    +0.117 C 
ATOM      5  C   UNL     1      34.522 -17.724 -24.538  0.00  0.00    +0.059 C 
ENDROOT
BRANCH   3   6
ATOM      6  O   UNL     1      35.746 -15.833 -23.648  0.00  0.00    -0.384 OA
ATOM      7  H   UNL     1      36.402 -16.537 -23.523  0.00  0.00    +0.210 HD
ENDBRANCH   3   6
BRANCH   4   8
ATOM      8  O   UNL     1      36.027 -19.396 -23.649  0.00  0.00    -0.384 OA
ATOM      9  H   UNL     1      36.518 -18.898 -24.322  0.00  0.00    +0.210 HD
ENDBRANCH   4   8
BRANCH   2  10
ATOM     10  C   UNL     1      33.975 -18.994 -21.087  0.00  0.00    -0.026 C 
ATOM     11  C   UNL     1      34.485 -20.154 -20.647  0.00  0.00    +0.002 C 
BRANCH  11  12
ATOM     12  C   UNL     1      33.814 -21.025 -19.620  0.00  0.00    +0.176 C 
BRANCH  12  13
ATOM     13  O   UNL     1      32.685 -21.632 -20.243  0.00  0.00    -0.376 OA
ATOM     14  H   UNL     1      32.885 -22.560 -20.440  0.00  0.00    +0.211 HD
ENDBRANCH  12  13
BRANCH  12  15
ATOM     15  C   UNL     1      34.751 -22.116 -19.111  0.00  0.00    +0.239 C 
BRANCH  15  16
ATOM     16  O   UNL     1      33.997 -23.242 -18.688  0.00  0.00    -0.472 OA
BRANCH  16  17
ATOM     17  C   UNL     1      33.541 -23.232 -17.395  0.00  0.00    +0.139 C 
ATOM     18  C   UNL     1      32.170 -23.219 -17.138  0.00  0.00    +0.041 C 
ATOM     19  C   UNL     1      34.448 -23.234 -16.335  0.00  0.00    +0.037 C 
ATOM     20  C   UNL     1      31.706 -23.208 -15.823  0.00  0.00    +0.074 C 
ATOM     21  C   UNL     1      33.985 -23.223 -15.020  0.00  0.00    +0.003 C 
ATOM     22  C   UNL     1      32.614 -23.210 -14.763  0.00  0.00    +0.004 C 
BRANCH  20  26
ATOM     23  F   UNL     1      29.536 -22.366 -16.377  0.00  0.00    -0.166 F 
ATOM     24  F   UNL     1      29.647 -24.417 -15.682  0.00  0.00    -0.166 F 
ATOM     25  F   UNL     1      29.948 -22.779 -14.282  0.00  0.00    -0.166 F 
ATOM     26  C   UNL     1      30.240 -23.193 -15.549  0.00  0.00    +0.419 C 
ENDBRANCH  20  26
ENDBRANCH  16  17
ENDBRANCH  15  16
ENDBRANCH  12  15
ENDBRANCH  11  12
ENDBRANCH   2  10
BRANCH   1  27
ATOM     27  C   UNL     1      34.032 -15.769 -21.323  0.00  0.00    +0.028 C 
BRANCH  27  28
ATOM     28  C   UNL     1      32.805 -14.978 -20.963  0.00  0.00    -0.031 C 
ATOM     29  C   UNL     1      32.381 -13.837 -21.527  0.00  0.00    -0.031 C 
BRANCH  29  30
ATOM     30  C   UNL     1      33.099 -13.148 -22.651  0.00  0.00    +0.026 C 
BRANCH  30  31
ATOM     31  C   UNL     1      32.591 -13.550 -24.043  0.00  0.00    +0.016 C 
BRANCH  31  32
ATOM     32  C   UNL     1      33.521 -13.134 -25.187  0.00  0.00    +0.110 C 
BRANCH  32  34
ATOM     33  O   UNL     1      33.493 -13.309 -27.616  0.00  0.00    -0.250 OA
ATOM     34  C   UNL     1      33.151 -13.740 -26.524  0.00  0.00    +0.314 C 
BRANCH  34  35
ATOM     35  O   UNL     1      32.339 -14.820 -26.377  0.00  0.00    -0.480 OA
ATOM     36  H   UNL     1      32.131 -15.353 -27.119  0.00  0.00    +0.295 HD
ENDBRANCH  34  35
ENDBRANCH  32  34
ENDBRANCH  31  32
ENDBRANCH  30  31
ENDBRANCH  29  30
ENDBRANCH  27  28
ENDBRANCH   1  27
TORSDOF 16
ENDMDL
MODEL 7
REMARK VINA RESULT:      -9.7      7.171     12.233
REMARK  Name = 5311100
REMARK  16 active torsions:
REMARK  status: ('A' for Active; 'I' for Inactive)
REMARK    1  A    between atoms: C_1  and  C_27
REMARK    2  A    between atoms: C_2  and  C_10
REMARK    3  A    between atoms: C_3  and  O_6
REMARK    4  A    between atoms: C_4  and  O_8
REMARK    5  A    between atoms: C_11  and  C_12
REMARK    6  A    between atoms: C_12  and  O_13
REMARK    7  A    between atoms: C_12  and  C_15
REMARK    8  A    between atoms: C_15  and  O_16
REMARK    9  A    between atoms: O_16  and  C_17
REMARK   10  A    between atoms: C_20  and  C_26
REMARK   11  A    between atoms: C_27  and  C_28
REMARK   12  A    between atoms: C_29  and  C_30
REMARK   13  A    between atoms: C_30  and  C_31
REMARK   14  A    between atoms: C_31  and  C_32
REMARK   15  A    between atoms: C_32  and  C_34
REMARK   16  A    between atoms: C_34  and  O_35
REMARK                            x       y       z     vdW  Elec       q    Type
REMARK                         _______ _______ _______ _____ _____    ______ ____
ROOT
ATOM      1  C   UNL     1      32.919 -13.844 -24.553  0.00  0.00    +0.038 C 
ATOM      2  C   UNL     1      34.006 -14.914 -24.356  0.00  0.00    +0.051 C 
ATOM      3  C   UNL     1      32.788 -13.788 -26.077  0.00  0.00    +0.114 C 
ATOM      4  C   UNL     1      33.687 -15.965 -25.434  0.00  0.00    +0.117 C 
ATOM      5  C   UNL     1      32.825 -15.258 -26.492  0.00  0.00    +0.059 C 
ENDROOT
BRANCH   3   6
ATOM      6  O   UNL     1      33.856 -13.076 -26.690  0.00  0.00    -0.384 OA
ATOM      7  H   UNL     1      34.539 -13.703 -26.979  0.00  0.00    +0.210 HD
ENDBRANCH   3   6
BRANCH   4   8
ATOM      8  O   UNL     1      34.889 -16.434 -26.033  0.00  0.00    -0.384 OA
ATOM      9  H   UNL     1      34.805 -17.381 -26.226  0.00  0.00    +0.210 HD
ENDBRANCH   4   8
BRANCH   2  10
ATOM     10  C   UNL     1      34.023 -15.504 -22.981  0.00  0.00    -0.026 C 
ATOM     11  C   UNL     1      34.996 -16.307 -22.524  0.00  0.00    +0.002 C 
BRANCH  11  12
ATOM     12  C   UNL     1      35.010 -16.900 -21.143  0.00  0.00    +0.176 C 
BRANCH  12  13
ATOM     13  O   UNL     1      34.920 -15.824 -20.212  0.00  0.00    -0.376 OA
ATOM     14  H   UNL     1      34.685 -15.009 -20.682  0.00  0.00    +0.211 HD
ENDBRANCH  12  13
BRANCH  12  15
ATOM     15  C   UNL     1      33.834 -17.847 -20.926  0.00  0.00    +0.239 C 
BRANCH  15  16
ATOM     16  O   UNL     1      34.137 -19.126 -21.461  0.00  0.00    -0.472 OA
BRANCH  16  17
ATOM     17  C   UNL     1      34.732 -20.027 -20.616  0.00  0.00    +0.139 C 
ATOM     18  C   UNL     1      33.950 -20.914 -19.876  0.00  0.00    +0.041 C 
ATOM     19  C   UNL     1      36.122 -20.057 -20.495  0.00  0.00    +0.037 C 
ATOM     20  C   UNL     1      34.556 -21.828 -19.016  0.00  0.00    +0.074 C 
ATOM     21  C   UNL     1      36.728 -20.972 -19.635  0.00  0.00    +0.003 C 
ATOM     22  C   UNL     1      35.946 -21.858 -18.896  0.00  0.00    +0.004 C 
BRANCH  20  26
ATOM     23  F   UNL     1      33.534 -23.984 -18.834  0.00  0.00    -0.166 F 
ATOM     24  F   UNL     1      34.241 -23.073 -16.998  0.00  0.00    -0.166 F 
ATOM     25  F   UNL     1      32.465 -22.293 -17.983  0.00  0.00    -0.166 F 
ATOM     26  C   UNL     1      33.719 -22.776 -18.225  0.00  0.00    +0.419 C 
ENDBRANCH  20  26
ENDBRANCH  16  17
ENDBRANCH  15  16
ENDBRANCH  12  15
ENDBRANCH  11  12
ENDBRANCH   2  10
BRANCH   1  27
ATOM     27  C   UNL     1      33.268 -12.503 -23.921  0.00  0.00    +0.028 C 
BRANCH  27  28
ATOM     28  C   UNL     1      32.461 -12.088 -22.722  0.00  0.00    -0.031 C 
ATOM     29  C   UNL     1      32.057 -10.848 -22.405  0.00  0.00    -0.031 C 
BRANCH  29  30
ATOM     30  C   UNL     1      32.362  -9.637 -23.237  0.00  0.00    +0.026 C 
BRANCH  30  31
ATOM     31  C   UNL     1      32.998  -8.487 -22.443  0.00  0.00    +0.016 C 
BRANCH  31  32
ATOM     32  C   UNL     1      32.047  -7.822 -21.444  0.00  0.00    +0.110 C 
BRANCH  32  34
ATOM     33  O   UNL     1      31.975  -9.061 -19.349  0.00  0.00    -0.250 OA
ATOM     34  C   UNL     1      32.386  -8.109 -19.997  0.00  0.00    +0.314 C 
BRANCH  34  35
ATOM     35  O   UNL     1      33.182  -7.144 -19.467  0.00  0.00    -0.480 OA
ATOM     36  H   UNL     1      32.914  -6.689 -18.691  0.00  0.00    +0.295 HD
ENDBRANCH  34  35
ENDBRANCH  32  34
ENDBRANCH  31  32
ENDBRANCH  30  31
ENDBRANCH  29  30
ENDBRANCH  27  28
ENDBRANCH   1  27
TORSDOF 16
ENDMDL
MODEL 8
REMARK VINA RESULT:      -9.6      5.835     10.286
REMARK  Name = 5311100
REMARK  16 active torsions:
REMARK  status: ('A' for Active; 'I' for Inactive)
REMARK    1  A    between atoms: C_1  and  C_27
REMARK    2  A    between atoms: C_2  and  C_10
REMARK    3  A    between atoms: C_3  and  O_6
REMARK    4  A    between atoms: C_4  and  O_8
REMARK    5  A    between atoms: C_11  and  C_12
REMARK    6  A    between atoms: C_12  and  O_13
REMARK    7  A    between atoms: C_12  and  C_15
REMARK    8  A    between atoms: C_15  and  O_16
REMARK    9  A    between atoms: O_16  and  C_17
REMARK   10  A    between atoms: C_20  and  C_26
REMARK   11  A    between atoms: C_27  and  C_28
REMARK   12  A    between atoms: C_29  and  C_30
REMARK   13  A    between atoms: C_30  and  C_31
REMARK   14  A    between atoms: C_31  and  C_32
REMARK   15  A    between atoms: C_32  and  C_34
REMARK   16  A    between atoms: C_34  and  O_35
REMARK                            x       y       z     vdW  Elec       q    Type
REMARK                         _______ _______ _______ _____ _____    ______ ____
ROOT
ATOM      1  C   UNL     1      33.998 -16.795 -22.316  0.00  0.00    +0.038 C 
ATOM      2  C   UNL     1      34.615 -18.195 -22.162  0.00  0.00    +0.051 C 
ATOM      3  C   UNL     1      34.493 -16.369 -23.701  0.00  0.00    +0.114 C 
ATOM      4  C   UNL     1      34.492 -18.807 -23.569  0.00  0.00    +0.117 C 
ATOM      5  C   UNL     1      34.320 -17.632 -24.544  0.00  0.00    +0.059 C 
ENDROOT
BRANCH   3   6
ATOM      6  O   UNL     1      35.858 -15.966 -23.692  0.00  0.00    -0.384 OA
ATOM      7  H   UNL     1      36.291 -16.275 -24.504  0.00  0.00    +0.210 HD
ENDBRANCH   3   6
BRANCH   4   8
ATOM      8  O   UNL     1      35.673 -19.529 -23.896  0.00  0.00    -0.384 OA
ATOM      9  H   UNL     1      35.816 -19.498 -24.855  0.00  0.00    +0.210 HD
ENDBRANCH   4   8
BRANCH   2  10
ATOM     10  C   UNL     1      33.944 -19.033 -21.121  0.00  0.00    -0.026 C 
ATOM     11  C   UNL     1      34.455 -20.177 -20.640  0.00  0.00    +0.002 C 
BRANCH  11  12
ATOM     12  C   UNL     1      33.777 -21.019 -19.594  0.00  0.00    +0.176 C 
BRANCH  12  13
ATOM     13  O   UNL     1      32.693 -21.696 -20.223  0.00  0.00    -0.376 OA
ATOM     14  H   UNL     1      32.544 -22.548 -19.782  0.00  0.00    +0.211 HD
ENDBRANCH  12  13
BRANCH  12  15
ATOM     15  C   UNL     1      34.732 -22.050 -18.998  0.00  0.00    +0.239 C 
BRANCH  15  16
ATOM     16  O   UNL     1      34.012 -23.210 -18.612  0.00  0.00    -0.472 OA
BRANCH  16  17
ATOM     17  C   UNL     1      33.579 -23.267 -17.312  0.00  0.00    +0.139 C 
ATOM     18  C   UNL     1      34.487 -23.521 -16.284  0.00  0.00    +0.041 C 
ATOM     19  C   UNL     1      32.229 -23.073 -17.017  0.00  0.00    +0.037 C 
ATOM     20  C   UNL     1      34.047 -23.580 -14.962  0.00  0.00    +0.074 C 
ATOM     21  C   UNL     1      31.788 -23.132 -15.695  0.00  0.00    +0.003 C 
ATOM     22  C   UNL     1      32.697 -23.385 -14.667  0.00  0.00    +0.004 C 
BRANCH  20  26
ATOM     23  F   UNL     1      34.440 -23.927 -12.628  0.00  0.00    -0.166 F 
ATOM     24  F   UNL     1      35.696 -25.028 -14.011  0.00  0.00    -0.166 F 
ATOM     25  F   UNL     1      35.977 -22.885 -13.760  0.00  0.00    -0.166 F 
ATOM     26  C   UNL     1      35.018 -23.851 -13.864  0.00  0.00    +0.419 C 
ENDBRANCH  20  26
ENDBRANCH  16  17
ENDBRANCH  15  16
ENDBRANCH  12  15
ENDBRANCH  11  12
ENDBRANCH   2  10
BRANCH   1  27
ATOM     27  C   UNL     1      34.396 -15.832 -21.205  0.00  0.00    +0.028 C 
BRANCH  27  28
ATOM     28  C   UNL     1      33.299 -15.362 -20.290  0.00  0.00    -0.031 C 
ATOM     29  C   UNL     1      32.464 -14.331 -20.487  0.00  0.00    -0.031 C 
BRANCH  29  30
ATOM     30  C   UNL     1      32.500 -13.453 -21.705  0.00  0.00    +0.026 C 
BRANCH  30  31
ATOM     31  C   UNL     1      31.679 -12.164 -21.560  0.00  0.00    +0.016 C 
BRANCH  31  32
ATOM     32  C   UNL     1      31.559 -11.663 -20.118  0.00  0.00    +0.110 C 
BRANCH  32  34
ATOM     33  O   UNL     1      32.318  -9.687 -18.913  0.00  0.00    -0.250 OA
ATOM     34  C   UNL     1      31.919 -10.203 -19.948  0.00  0.00    +0.314 C 
BRANCH  34  35
ATOM     35  O   UNL     1      31.704  -9.497 -21.089  0.00  0.00    -0.480 OA
ATOM     36  H   UNL     1      30.971  -8.916 -21.149  0.00  0.00    +0.295 HD
ENDBRANCH  34  35
ENDBRANCH  32  34
ENDBRANCH  31  32
ENDBRANCH  30  31
ENDBRANCH  29  30
ENDBRANCH  27  28
ENDBRANCH   1  27
TORSDOF 16
ENDMDL
MODEL 9
REMARK VINA RESULT:      -9.5      4.522      9.037
REMARK  Name = 5311100
REMARK  16 active torsions:
REMARK  status: ('A' for Active; 'I' for Inactive)
REMARK    1  A    between atoms: C_1  and  C_27
REMARK    2  A    between atoms: C_2  and  C_10
REMARK    3  A    between atoms: C_3  and  O_6
REMARK    4  A    between atoms: C_4  and  O_8
REMARK    5  A    between atoms: C_11  and  C_12
REMARK    6  A    between atoms: C_12  and  O_13
REMARK    7  A    between atoms: C_12  and  C_15
REMARK    8  A    between atoms: C_15  and  O_16
REMARK    9  A    between atoms: O_16  and  C_17
REMARK   10  A    between atoms: C_20  and  C_26
REMARK   11  A    between atoms: C_27  and  C_28
REMARK   12  A    between atoms: C_29  and  C_30
REMARK   13  A    between atoms: C_30  and  C_31
REMARK   14  A    between atoms: C_31  and  C_32
REMARK   15  A    between atoms: C_32  and  C_34
REMARK   16  A    between atoms: C_34  and  O_35
REMARK                            x       y       z     vdW  Elec       q    Type
REMARK                         _______ _______ _______ _____ _____    ______ ____
ROOT
ATOM      1  C   UNL     1      34.864 -19.581 -20.349  0.00  0.00    +0.038 C 
ATOM      2  C   UNL     1      35.102 -21.066 -20.028  0.00  0.00    +0.051 C 
ATOM      3  C   UNL     1      33.410 -19.579 -20.829  0.00  0.00    +0.114 C 
ATOM      4  C   UNL     1      33.774 -21.523 -19.397  0.00  0.00    +0.117 C 
ATOM      5  C   UNL     1      32.708 -20.509 -19.840  0.00  0.00    +0.059 C 
ENDROOT
BRANCH   3   6
ATOM      6  O   UNL     1      33.272 -20.076 -22.155  0.00  0.00    -0.384 OA
ATOM      7  H   UNL     1      33.465 -19.366 -22.788  0.00  0.00    +0.210 HD
ENDBRANCH   3   6
BRANCH   4   8
ATOM      8  O   UNL     1      33.426 -22.819 -19.869  0.00  0.00    -0.384 OA
ATOM      9  H   UNL     1      32.472 -22.852 -20.047  0.00  0.00    +0.210 HD
ENDBRANCH   4   8
BRANCH   2  10
ATOM     10  C   UNL     1      36.268 -21.303 -19.121  0.00  0.00    -0.026 C 
ATOM     11  C   UNL     1      36.162 -21.811 -17.884  0.00  0.00    +0.002 C 
BRANCH  11  12
ATOM     12  C   UNL     1      37.335 -22.046 -16.974  0.00  0.00    +0.176 C 
BRANCH  12  13
ATOM     13  O   UNL     1      37.795 -20.774 -16.527  0.00  0.00    -0.376 OA
ATOM     14  H   UNL     1      38.549 -20.895 -15.928  0.00  0.00    +0.211 HD
ENDBRANCH  12  13
BRANCH  12  15
ATOM     15  C   UNL     1      36.948 -22.891 -15.764  0.00  0.00    +0.239 C 
BRANCH  15  16
ATOM     16  O   UNL     1      35.954 -23.836 -16.131  0.00  0.00    -0.472 OA
BRANCH  16  17
ATOM     17  C   UNL     1      34.799 -23.840 -15.392  0.00  0.00    +0.139 C 
ATOM     18  C   UNL     1      33.585 -23.501 -15.990  0.00  0.00    +0.041 C 
ATOM     19  C   UNL     1      34.838 -24.183 -14.040  0.00  0.00    +0.037 C 
ATOM     20  C   UNL     1      32.412 -23.505 -15.238  0.00  0.00    +0.074 C 
ATOM     21  C   UNL     1      33.664 -24.186 -13.287  0.00  0.00    +0.003 C 
ATOM     22  C   UNL     1      32.450 -23.847 -13.886  0.00  0.00    +0.004 C 
BRANCH  20  26
ATOM     23  F   UNL     1      30.342 -24.222 -16.202  0.00  0.00    -0.166 F 
ATOM     24  F   UNL     1      30.317 -22.359 -15.093  0.00  0.00    -0.166 F 
ATOM     25  F   UNL     1      31.279 -22.448 -17.042  0.00  0.00    -0.166 F 
ATOM     26  C   UNL     1      31.114 -23.142 -15.878  0.00  0.00    +0.419 C 
ENDBRANCH  20  26
ENDBRANCH  16  17
ENDBRANCH  15  16
ENDBRANCH  12  15
ENDBRANCH  11  12
ENDBRANCH   2  10
BRANCH   1  27
ATOM     27  C   UNL     1      35.843 -19.018 -21.371  0.00  0.00    +0.028 C 
BRANCH  27  28
ATOM     28  C   UNL     1      35.716 -17.556 -21.698  0.00  0.00    -0.031 C 
ATOM     29  C   UNL     1      35.339 -17.017 -22.868  0.00  0.00    -0.031 C 
BRANCH  29  30
ATOM     30  C   UNL     1      34.973 -17.827 -24.077  0.00  0.00    +0.026 C 
BRANCH  30  31
ATOM     31  C   UNL     1      34.566 -16.977 -25.289  0.00  0.00    +0.016 C 
BRANCH  31  32
ATOM     32  C   UNL     1      33.848 -15.675 -24.921  0.00  0.00    +0.110 C 
BRANCH  32  34
ATOM     33  O   UNL     1      33.044 -13.873 -26.348  0.00  0.00    -0.250 OA
ATOM     34  C   UNL     1      33.071 -15.063 -26.066  0.00  0.00    +0.314 C 
BRANCH  34  35
ATOM     35  O   UNL     1      32.352 -15.997 -26.741  0.00  0.00    -0.480 OA
ATOM     36  H   UNL     1      32.761 -16.795 -27.015  0.00  0.00    +0.295 HD
ENDBRANCH  34  35
ENDBRANCH  32  34
ENDBRANCH  31  32
ENDBRANCH  30  31
ENDBRANCH  29  30
ENDBRANCH  27  28
ENDBRANCH   1  27
TORSDOF 16
ENDMDL
