MODEL 1
REMARK VINA RESULT:      -8.0      0.000      0.000
REMARK  Name = 28446253
REMARK  8 active torsions:
REMARK  status: ('A' for Active; 'I' for Inactive)
REMARK    1  A    between atoms: C_5  and  C_18
REMARK    2  A    between atoms: C_7  and  C_14
REMARK    3  A    between atoms: C_8  and  C_23
REMARK    4  A    between atoms: C_14  and  O_15
REMARK    5  A    between atoms: O_15  and  C_16
REMARK    6  A    between atoms: C_18  and  N_19
REMARK    7  A    between atoms: C_23  and  S_24
REMARK    8  A    between atoms: S_24  and  C_25
REMARK                            x       y       z     vdW  Elec       q    Type
REMARK                         _______ _______ _______ _____ _____    ______ ____
ROOT
ATOM      1 BR   UNL     1      31.316  -9.967 -21.498  0.00  0.00    -0.046 Br
ATOM      2  O   UNL     1      32.946 -10.687 -24.070  0.00  0.00    -0.286 OA
ATOM      3  N   UNL     1      32.698 -15.094 -20.949  0.00  0.00    -0.328 N 
ATOM      4  C   UNL     1      33.346 -14.020 -22.794  0.00  0.00    +0.020 A 
ATOM      5  C   UNL     1      33.448 -12.907 -23.654  0.00  0.00    -0.002 C 
ATOM      6  C   UNL     1      32.648 -13.878 -21.592  0.00  0.00    +0.060 A 
ATOM      7  C   UNL     1      33.815 -15.362 -22.849  0.00  0.00    +0.089 A 
ATOM      8  C   UNL     1      33.401 -15.997 -21.701  0.00  0.00    +0.055 A 
ATOM      9  C   UNL     1      32.850 -11.699 -23.281  0.00  0.00    +0.196 C 
ATOM     10  C   UNL     1      32.045 -12.675 -21.207  0.00  0.00    +0.027 C 
ATOM     11  C   UNL     1      32.159 -11.586 -22.076  0.00  0.00    +0.074 C 
ATOM     12  C   UNL     1      32.093 -15.375 -19.663  0.00  0.00    +0.130 C 
ENDROOT
BRANCH   7  14
ATOM     13  O   UNL     1      35.817 -15.869 -24.040  0.00  0.00    -0.245 OA
ATOM     14  C   UNL     1      34.585 -15.993 -23.884  0.00  0.00    +0.342 C 
BRANCH  14  15
ATOM     15  O   UNL     1      33.807 -16.771 -24.711  0.00  0.00    -0.445 OA
BRANCH  15  16
ATOM     16  C   UNL     1      34.455 -17.827 -25.427  0.00  0.00    +0.209 C 
ATOM     17  C   UNL     1      34.485 -19.066 -24.559  0.00  0.00    +0.051 C 
ENDBRANCH  15  16
ENDBRANCH  14  15
ENDBRANCH   7  14
BRANCH   5  18
ATOM     18  C   UNL     1      34.193 -13.026 -24.955  0.00  0.00    -0.047 C 
BRANCH  18  19
ATOM     19  N   UNL     1      33.301 -12.955 -26.140  0.00  0.00    +0.387 N 
ATOM     20  C   UNL     1      34.018 -12.478 -27.378  0.00  0.00    -0.100 C 
ATOM     21  C   UNL     1      32.573 -14.252 -26.396  0.00  0.00    -0.100 C 
ATOM     22  H   UNL     1      32.596 -12.254 -25.912  0.00  0.00    -0.079 HD
ENDBRANCH  18  19
ENDBRANCH   5  18
BRANCH   8  23
ATOM     23  C   UNL     1      33.613 -17.390 -21.250  0.00  0.00    +0.106 C 
BRANCH  23  24
ATOM     24  S   UNL     1      35.368 -17.885 -21.280  0.00  0.00    -0.107 S 
BRANCH  24  25
ATOM     25  C   UNL     1      35.279 -19.518 -20.557  0.00  0.00    +0.026 C 
ATOM     26  C   UNL     1      34.038 -20.126 -20.359  0.00  0.00    +0.006 C 
ATOM     27  C   UNL     1      36.448 -20.183 -20.191  0.00  0.00    +0.006 C 
ATOM     28  C   UNL     1      33.968 -21.400 -19.796  0.00  0.00    +0.001 C 
ATOM     29  C   UNL     1      36.377 -21.458 -19.627  0.00  0.00    +0.001 C 
ATOM     30  C   UNL     1      35.138 -22.066 -19.430  0.00  0.00    +0.000 C 
ENDBRANCH  24  25
ENDBRANCH  23  24
ENDBRANCH   8  23
TORSDOF 8
ENDMDL
MODEL 2
REMARK VINA RESULT:      -7.9      1.652      2.445
REMARK  Name = 28446253
REMARK  8 active torsions:
REMARK  status: ('A' for Active; 'I' for Inactive)
REMARK    1  A    between atoms: C_5  and  C_18
REMARK    2  A    between atoms: C_7  and  C_14
REMARK    3  A    between atoms: C_8  and  C_23
REMARK    4  A    between atoms: C_14  and  O_15
REMARK    5  A    between atoms: O_15  and  C_16
REMARK    6  A    between atoms: C_18  and  N_19
REMARK    7  A    between atoms: C_23  and  S_24
REMARK    8  A    between atoms: S_24  and  C_25
REMARK                            x       y       z     vdW  Elec       q    Type
REMARK                         _______ _______ _______ _____ _____    ______ ____
ROOT
ATOM      1 BR   UNL     1      31.106  -9.881 -19.164  0.00  0.00    -0.046 Br
ATOM      2  O   UNL     1      31.956  -9.439 -22.143  0.00  0.00    -0.286 OA
ATOM      3  N   UNL     1      32.591 -14.678 -20.975  0.00  0.00    -0.328 N 
ATOM      4  C   UNL     1      32.698 -12.944 -22.375  0.00  0.00    +0.020 A 
ATOM      5  C   UNL     1      32.556 -11.591 -22.744  0.00  0.00    -0.002 C 
ATOM      6  C   UNL     1      32.363 -13.324 -21.073  0.00  0.00    +0.060 A 
ATOM      7  C   UNL     1      33.135 -14.116 -23.053  0.00  0.00    +0.089 A 
ATOM      8  C   UNL     1      33.058 -15.166 -22.167  0.00  0.00    +0.055 A 
ATOM      9  C   UNL     1      32.084 -10.672 -21.801  0.00  0.00    +0.196 C 
ATOM     10  C   UNL     1      31.889 -12.416 -20.120  0.00  0.00    +0.027 C 
ATOM     11  C   UNL     1      31.756 -11.080 -20.509  0.00  0.00    +0.074 C 
ATOM     12  C   UNL     1      32.368 -15.470 -19.783  0.00  0.00    +0.130 C 
ENDROOT
BRANCH   7  14
ATOM     13  O   UNL     1      34.780 -14.333 -24.765  0.00  0.00    -0.245 OA
ATOM     14  C   UNL     1      33.587 -14.242 -24.411  0.00  0.00    +0.342 C 
BRANCH  14  15
ATOM     15  O   UNL     1      32.543 -14.254 -25.308  0.00  0.00    -0.445 OA
BRANCH  15  16
ATOM     16  C   UNL     1      32.849 -14.552 -26.673  0.00  0.00    +0.209 C 
ATOM     17  C   UNL     1      33.055 -13.254 -27.426  0.00  0.00    +0.051 C 
ENDBRANCH  15  16
ENDBRANCH  14  15
ENDBRANCH   7  14
BRANCH   5  18
ATOM     18  C   UNL     1      32.909 -11.148 -24.137  0.00  0.00    -0.047 C 
BRANCH  18  19
ATOM     19  N   UNL     1      34.309 -10.669 -24.255  0.00  0.00    +0.387 N 
ATOM     20  C   UNL     1      34.910 -10.958 -25.608  0.00  0.00    -0.100 C 
ATOM     21  C   UNL     1      34.454  -9.211 -23.894  0.00  0.00    -0.100 C 
ATOM     22  H   UNL     1      34.841 -11.204 -23.569  0.00  0.00    -0.079 HD
ENDBRANCH  18  19
ENDBRANCH   5  18
BRANCH   8  23
ATOM     23  C   UNL     1      33.388 -16.596 -22.349  0.00  0.00    +0.106 C 
BRANCH  23  24
ATOM     24  S   UNL     1      35.147 -16.963 -22.033  0.00  0.00    -0.107 S 
BRANCH  24  25
ATOM     25  C   UNL     1      35.027 -18.552 -21.221  0.00  0.00    +0.026 C 
ATOM     26  C   UNL     1      33.776 -19.122 -20.984  0.00  0.00    +0.006 C 
ATOM     27  C   UNL     1      36.185 -19.221 -20.825  0.00  0.00    +0.006 C 
ATOM     28  C   UNL     1      33.683 -20.361 -20.352  0.00  0.00    +0.001 C 
ATOM     29  C   UNL     1      36.091 -20.461 -20.192  0.00  0.00    +0.001 C 
ATOM     30  C   UNL     1      34.841 -21.031 -19.955  0.00  0.00    +0.000 C 
ENDBRANCH  24  25
ENDBRANCH  23  24
ENDBRANCH   8  23
TORSDOF 8
ENDMDL
MODEL 3
REMARK VINA RESULT:      -7.9      7.152     11.937
REMARK  Name = 28446253
REMARK  8 active torsions:
REMARK  status: ('A' for Active; 'I' for Inactive)
REMARK    1  A    between atoms: C_5  and  C_18
REMARK    2  A    between atoms: C_7  and  C_14
REMARK    3  A    between atoms: C_8  and  C_23
REMARK    4  A    between atoms: C_14  and  O_15
REMARK    5  A    between atoms: O_15  and  C_16
REMARK    6  A    between atoms: C_18  and  N_19
REMARK    7  A    between atoms: C_23  and  S_24
REMARK    8  A    between atoms: S_24  and  C_25
REMARK                            x       y       z     vdW  Elec       q    Type
REMARK                         _______ _______ _______ _____ _____    ______ ____
ROOT
ATOM      1 BR   UNL     1      30.067 -24.665 -14.300  0.00  0.00    -0.046 Br
ATOM      2  O   UNL     1      32.754 -25.170 -12.778  0.00  0.00    -0.286 OA
ATOM      3  N   UNL     1      33.896 -22.605 -17.397  0.00  0.00    -0.328 N 
ATOM      4  C   UNL     1      34.497 -23.555 -15.470  0.00  0.00    +0.020 A 
ATOM      5  C   UNL     1      34.268 -24.225 -14.250  0.00  0.00    -0.002 C 
ATOM      6  C   UNL     1      33.404 -23.247 -16.283  0.00  0.00    +0.060 A 
ATOM      7  C   UNL     1      35.660 -23.076 -16.134  0.00  0.00    +0.089 A 
ATOM      8  C   UNL     1      35.259 -22.496 -17.315  0.00  0.00    +0.055 A 
ATOM      9  C   UNL     1      32.957 -24.560 -13.892  0.00  0.00    +0.196 C 
ATOM     10  C   UNL     1      32.089 -23.575 -15.936  0.00  0.00    +0.027 C 
ATOM     11  C   UNL     1      31.885 -24.239 -14.723  0.00  0.00    +0.074 C 
ATOM     12  C   UNL     1      33.088 -22.115 -18.494  0.00  0.00    +0.130 C 
ENDROOT
BRANCH   7  14
ATOM     13  O   UNL     1      37.753 -22.174 -15.433  0.00  0.00    -0.245 OA
ATOM     14  C   UNL     1      37.028 -23.154 -15.700  0.00  0.00    +0.342 C 
BRANCH  14  15
ATOM     15  O   UNL     1      37.471 -24.452 -15.606  0.00  0.00    -0.445 OA
BRANCH  15  16
ATOM     16  C   UNL     1      38.764 -24.670 -15.033  0.00  0.00    +0.209 C 
ATOM     17  C   UNL     1      38.701 -25.875 -14.119  0.00  0.00    +0.051 C 
ENDBRANCH  15  16
ENDBRANCH  14  15
ENDBRANCH   7  14
BRANCH   5  18
ATOM     18  C   UNL     1      35.422 -24.571 -13.351  0.00  0.00    -0.047 C 
BRANCH  18  19
ATOM     19  N   UNL     1      35.536 -23.666 -12.181  0.00  0.00    +0.387 N 
ATOM     20  C   UNL     1      35.300 -24.377 -10.872  0.00  0.00    -0.100 C 
ATOM     21  C   UNL     1      36.839 -22.904 -12.161  0.00  0.00    -0.100 C 
ATOM     22  H   UNL     1      34.788 -22.981 -12.290  0.00  0.00    -0.079 HD
ENDBRANCH  18  19
ENDBRANCH   5  18
BRANCH   8  23
ATOM     23  C   UNL     1      36.055 -21.846 -18.379  0.00  0.00    +0.106 C 
BRANCH  23  24
ATOM     24  S   UNL     1      35.358 -22.106 -20.044  0.00  0.00    -0.107 S 
BRANCH  24  25
ATOM     25  C   UNL     1      35.251 -20.424 -20.640  0.00  0.00    +0.026 C 
ATOM     26  C   UNL     1      34.003 -19.840 -20.861  0.00  0.00    +0.006 C 
ATOM     27  C   UNL     1      36.415 -19.696 -20.885  0.00  0.00    +0.006 C 
ATOM     28  C   UNL     1      33.919 -18.527 -21.325  0.00  0.00    +0.001 C 
ATOM     29  C   UNL     1      36.331 -18.383 -21.350  0.00  0.00    +0.001 C 
ATOM     30  C   UNL     1      35.084 -17.798 -21.570  0.00  0.00    +0.000 C 
ENDBRANCH  24  25
ENDBRANCH  23  24
ENDBRANCH   8  23
TORSDOF 8
ENDMDL
MODEL 4
REMARK VINA RESULT:      -7.7      2.338      4.115
REMARK  Name = 28446253
REMARK  8 active torsions:
REMARK  status: ('A' for Active; 'I' for Inactive)
REMARK    1  A    between atoms: C_5  and  C_18
REMARK    2  A    between atoms: C_7  and  C_14
REMARK    3  A    between atoms: C_8  and  C_23
REMARK    4  A    between atoms: C_14  and  O_15
REMARK    5  A    between atoms: O_15  and  C_16
REMARK    6  A    between atoms: C_18  and  N_19
REMARK    7  A    between atoms: C_23  and  S_24
REMARK    8  A    between atoms: S_24  and  C_25
REMARK                            x       y       z     vdW  Elec       q    Type
REMARK                         _______ _______ _______ _____ _____    ______ ____
ROOT
ATOM      1 BR   UNL     1      30.982 -10.403 -18.728  0.00  0.00    -0.046 Br
ATOM      2  O   UNL     1      31.695  -8.876 -21.365  0.00  0.00    -0.286 OA
ATOM      3  N   UNL     1      32.613 -14.142 -22.172  0.00  0.00    -0.328 N 
ATOM      4  C   UNL     1      32.587 -12.018 -22.856  0.00  0.00    +0.020 A 
ATOM      5  C   UNL     1      32.369 -10.633 -22.711  0.00  0.00    -0.002 C 
ATOM      6  C   UNL     1      32.320 -12.857 -21.772  0.00  0.00    +0.060 A 
ATOM      7  C   UNL     1      33.051 -12.843 -23.918  0.00  0.00    +0.089 A 
ATOM      8  C   UNL     1      33.055 -14.143 -23.468  0.00  0.00    +0.055 A 
ATOM      9  C   UNL     1      31.893 -10.140 -21.491  0.00  0.00    +0.196 C 
ATOM     10  C   UNL     1      31.842 -12.379 -20.546  0.00  0.00    +0.027 C 
ATOM     11  C   UNL     1      31.634 -11.002 -20.426  0.00  0.00    +0.074 C 
ATOM     12  C   UNL     1      32.473 -15.319 -21.340  0.00  0.00    +0.130 C 
ENDROOT
BRANCH   7  14
ATOM     13  O   UNL     1      32.912 -12.827 -26.298  0.00  0.00    -0.245 OA
ATOM     14  C   UNL     1      33.454 -12.449 -25.240  0.00  0.00    +0.342 C 
BRANCH  14  15
ATOM     15  O   UNL     1      34.528 -11.589 -25.222  0.00  0.00    -0.445 OA
BRANCH  15  16
ATOM     16  C   UNL     1      35.009 -11.106 -26.479  0.00  0.00    +0.209 C 
ATOM     17  C   UNL     1      36.054 -10.039 -26.230  0.00  0.00    +0.051 C 
ENDBRANCH  15  16
ENDBRANCH  14  15
ENDBRANCH   7  14
BRANCH   5  18
ATOM     18  C   UNL     1      32.647  -9.702 -23.859  0.00  0.00    -0.047 C 
BRANCH  18  19
ATOM     19  N   UNL     1      33.126  -8.367 -23.418  0.00  0.00    +0.387 N 
ATOM     20  C   UNL     1      34.609  -8.186 -23.624  0.00  0.00    -0.100 C 
ATOM     21  C   UNL     1      32.345  -7.236 -24.042  0.00  0.00    -0.100 C 
ATOM     22  H   UNL     1      32.955  -8.332 -22.413  0.00  0.00    -0.079 HD
ENDBRANCH  18  19
ENDBRANCH   5  18
BRANCH   8  23
ATOM     23  C   UNL     1      33.443 -15.392 -24.158  0.00  0.00    +0.106 C 
BRANCH  23  24
ATOM     24  S   UNL     1      35.213 -15.788 -23.967  0.00  0.00    -0.107 S 
BRANCH  24  25
ATOM     25  C   UNL     1      35.128 -17.316 -23.044  0.00  0.00    +0.026 C 
ATOM     26  C   UNL     1      34.874 -18.518 -23.706  0.00  0.00    +0.006 C 
ATOM     27  C   UNL     1      35.314 -17.308 -21.662  0.00  0.00    +0.006 C 
ATOM     28  C   UNL     1      34.808 -19.711 -22.987  0.00  0.00    +0.001 C 
ATOM     29  C   UNL     1      35.247 -18.501 -20.942  0.00  0.00    +0.001 C 
ATOM     30  C   UNL     1      34.994 -19.703 -21.603  0.00  0.00    +0.000 C 
ENDBRANCH  24  25
ENDBRANCH  23  24
ENDBRANCH   8  23
TORSDOF 8
ENDMDL
MODEL 5
REMARK VINA RESULT:      -7.6      7.020     11.564
REMARK  Name = 28446253
REMARK  8 active torsions:
REMARK  status: ('A' for Active; 'I' for Inactive)
REMARK    1  A    between atoms: C_5  and  C_18
REMARK    2  A    between atoms: C_7  and  C_14
REMARK    3  A    between atoms: C_8  and  C_23
REMARK    4  A    between atoms: C_14  and  O_15
REMARK    5  A    between atoms: O_15  and  C_16
REMARK    6  A    between atoms: C_18  and  N_19
REMARK    7  A    between atoms: C_23  and  S_24
REMARK    8  A    between atoms: S_24  and  C_25
REMARK                            x       y       z     vdW  Elec       q    Type
REMARK                         _______ _______ _______ _____ _____    ______ ____
ROOT
ATOM      1 BR   UNL     1      37.198 -23.476 -11.364  0.00  0.00    -0.046 Br
ATOM      2  O   UNL     1      34.426 -24.664 -12.200  0.00  0.00    -0.286 OA
ATOM      3  N   UNL     1      36.554 -22.176 -16.501  0.00  0.00    -0.328 N 
ATOM      4  C   UNL     1      34.938 -23.343 -15.499  0.00  0.00    +0.020 A 
ATOM      5  C   UNL     1      34.327 -24.008 -14.416  0.00  0.00    -0.002 C 
ATOM      6  C   UNL     1      36.187 -22.749 -15.304  0.00  0.00    +0.060 A 
ATOM      7  C   UNL     1      34.568 -23.105 -16.852  0.00  0.00    +0.089 A 
ATOM      8  C   UNL     1      35.581 -22.385 -17.442  0.00  0.00    +0.055 A 
ATOM      9  C   UNL     1      34.987 -24.055 -13.184  0.00  0.00    +0.196 C 
ATOM     10  C   UNL     1      36.859 -22.789 -14.078  0.00  0.00    +0.027 C 
ATOM     11  C   UNL     1      36.234 -23.454 -13.019  0.00  0.00    +0.074 C 
ATOM     12  C   UNL     1      37.789 -21.455 -16.729  0.00  0.00    +0.130 C 
ENDROOT
BRANCH   7  14
ATOM     13  O   UNL     1      33.313 -24.396 -18.414  0.00  0.00    -0.245 OA
ATOM     14  C   UNL     1      33.371 -23.515 -17.533  0.00  0.00    +0.342 C 
BRANCH  14  15
ATOM     15  O   UNL     1      32.264 -22.819 -17.104  0.00  0.00    -0.445 OA
BRANCH  15  16
ATOM     16  C   UNL     1      31.048 -23.552 -16.934  0.00  0.00    +0.209 C 
ATOM     17  C   UNL     1      29.947 -22.594 -16.531  0.00  0.00    +0.051 C 
ENDBRANCH  15  16
ENDBRANCH  14  15
ENDBRANCH   7  14
BRANCH   5  18
ATOM     18  C   UNL     1      32.982 -24.657 -14.592  0.00  0.00    -0.047 C 
BRANCH  18  19
ATOM     19  N   UNL     1      32.006 -24.258 -13.547  0.00  0.00    +0.387 N 
ATOM     20  C   UNL     1      31.739 -22.774 -13.539  0.00  0.00    -0.100 C 
ATOM     21  C   UNL     1      30.720 -25.044 -13.625  0.00  0.00    -0.100 C 
ATOM     22  H   UNL     1      32.447 -24.489 -12.657  0.00  0.00    -0.079 HD
ENDBRANCH  18  19
ENDBRANCH   5  18
BRANCH   8  23
ATOM     23  C   UNL     1      35.711 -21.876 -18.825  0.00  0.00    +0.106 C 
BRANCH  23  24
ATOM     24  S   UNL     1      34.162 -21.157 -19.465  0.00  0.00    -0.107 S 
BRANCH  24  25
ATOM     25  C   UNL     1      34.793 -19.972 -20.645  0.00  0.00    +0.026 C 
ATOM     26  C   UNL     1      33.919 -19.330 -21.524  0.00  0.00    +0.006 C 
ATOM     27  C   UNL     1      36.157 -19.689 -20.687  0.00  0.00    +0.006 C 
ATOM     28  C   UNL     1      34.410 -18.405 -22.444  0.00  0.00    +0.001 C 
ATOM     29  C   UNL     1      36.649 -18.763 -21.609  0.00  0.00    +0.001 C 
ATOM     30  C   UNL     1      35.776 -18.121 -22.487  0.00  0.00    +0.000 C 
ENDBRANCH  24  25
ENDBRANCH  23  24
ENDBRANCH   8  23
TORSDOF 8
ENDMDL
MODEL 6
REMARK VINA RESULT:      -7.4      4.201      8.760
REMARK  Name = 28446253
REMARK  8 active torsions:
REMARK  status: ('A' for Active; 'I' for Inactive)
REMARK    1  A    between atoms: C_5  and  C_18
REMARK    2  A    between atoms: C_7  and  C_14
REMARK    3  A    between atoms: C_8  and  C_23
REMARK    4  A    between atoms: C_14  and  O_15
REMARK    5  A    between atoms: O_15  and  C_16
REMARK    6  A    between atoms: C_18  and  N_19
REMARK    7  A    between atoms: C_23  and  S_24
REMARK    8  A    between atoms: S_24  and  C_25
REMARK                            x       y       z     vdW  Elec       q    Type
REMARK                         _______ _______ _______ _____ _____    ______ ____
ROOT
ATOM      1 BR   UNL     1      32.324 -16.578 -20.602  0.00  0.00    -0.046 Br
ATOM      2  O   UNL     1      33.618 -15.727 -23.321  0.00  0.00    -0.286 OA
ATOM      3  N   UNL     1      31.701 -11.285 -20.910  0.00  0.00    -0.328 N 
ATOM      4  C   UNL     1      32.733 -12.324 -22.593  0.00  0.00    +0.020 A 
ATOM      5  C   UNL     1      33.254 -13.443 -23.275  0.00  0.00    -0.002 C 
ATOM      6  C   UNL     1      32.116 -12.520 -21.355  0.00  0.00    +0.060 A 
ATOM      7  C   UNL     1      32.674 -10.931 -22.874  0.00  0.00    +0.089 A 
ATOM      8  C   UNL     1      32.034 -10.319 -21.821  0.00  0.00    +0.055 A 
ATOM      9  C   UNL     1      33.140 -14.711 -22.695  0.00  0.00    +0.196 C 
ATOM     10  C   UNL     1      31.995 -13.782 -20.763  0.00  0.00    +0.027 C 
ATOM     11  C   UNL     1      32.519 -14.876 -21.458  0.00  0.00    +0.074 C 
ATOM     12  C   UNL     1      31.013 -11.046 -19.658  0.00  0.00    +0.130 C 
ENDROOT
BRANCH   7  14
ATOM     13  O   UNL     1      32.464  -9.753 -24.936  0.00  0.00    -0.245 OA
ATOM     14  C   UNL     1      33.171 -10.234 -24.027  0.00  0.00    +0.342 C 
BRANCH  14  15
ATOM     15  O   UNL     1      34.544 -10.147 -24.031  0.00  0.00    -0.445 OA
BRANCH  15  16
ATOM     16  C   UNL     1      35.155  -9.381 -25.074  0.00  0.00    +0.209 C 
ATOM     17  C   UNL     1      35.745 -10.326 -26.098  0.00  0.00    +0.051 C 
ENDBRANCH  15  16
ENDBRANCH  14  15
ENDBRANCH   7  14
BRANCH   5  18
ATOM     18  C   UNL     1      33.925 -13.267 -24.609  0.00  0.00    -0.047 C 
BRANCH  18  19
ATOM     19  N   UNL     1      33.056 -13.654 -25.749  0.00  0.00    +0.387 N 
ATOM     20  C   UNL     1      33.139 -12.682 -26.899  0.00  0.00    -0.100 C 
ATOM     21  C   UNL     1      33.304 -15.069 -26.212  0.00  0.00    -0.100 C 
ATOM     22  H   UNL     1      32.102 -13.617 -25.391  0.00  0.00    -0.079 HD
ENDBRANCH  18  19
ENDBRANCH   5  18
BRANCH   8  23
ATOM     23  C   UNL     1      31.707  -8.893 -21.600  0.00  0.00    +0.106 C 
BRANCH  23  24
ATOM     24  S   UNL     1      33.173  -7.810 -21.673  0.00  0.00    -0.107 S 
BRANCH  24  25
ATOM     25  C   UNL     1      32.617  -6.552 -22.815  0.00  0.00    +0.026 C 
ATOM     26  C   UNL     1      33.078  -6.553 -24.132  0.00  0.00    +0.006 C 
ATOM     27  C   UNL     1      31.724  -5.570 -22.390  0.00  0.00    +0.006 C 
ATOM     28  C   UNL     1      32.645  -5.572 -25.023  0.00  0.00    +0.001 C 
ATOM     29  C   UNL     1      31.290  -4.588 -23.281  0.00  0.00    +0.001 C 
ATOM     30  C   UNL     1      31.750  -4.589 -24.598  0.00  0.00    +0.000 C 
ENDBRANCH  24  25
ENDBRANCH  23  24
ENDBRANCH   8  23
TORSDOF 8
ENDMDL
MODEL 7
REMARK VINA RESULT:      -7.2      4.269      7.253
REMARK  Name = 28446253
REMARK  8 active torsions:
REMARK  status: ('A' for Active; 'I' for Inactive)
REMARK    1  A    between atoms: C_5  and  C_18
REMARK    2  A    between atoms: C_7  and  C_14
REMARK    3  A    between atoms: C_8  and  C_23
REMARK    4  A    between atoms: C_14  and  O_15
REMARK    5  A    between atoms: O_15  and  C_16
REMARK    6  A    between atoms: C_18  and  N_19
REMARK    7  A    between atoms: C_23  and  S_24
REMARK    8  A    between atoms: S_24  and  C_25
REMARK                            x       y       z     vdW  Elec       q    Type
REMARK                         _______ _______ _______ _____ _____    ______ ____
ROOT
ATOM      1 BR   UNL     1      34.540  -4.853 -26.458  0.00  0.00    -0.046 Br
ATOM      2  O   UNL     1      32.239  -4.973 -24.341  0.00  0.00    -0.286 OA
ATOM      3  N   UNL     1      34.481  -9.881 -24.665  0.00  0.00    -0.328 N 
ATOM      4  C   UNL     1      32.996  -8.445 -23.823  0.00  0.00    +0.020 A 
ATOM      5  C   UNL     1      32.367  -7.190 -23.691  0.00  0.00    -0.002 C 
ATOM      6  C   UNL     1      34.051  -8.575 -24.730  0.00  0.00    +0.060 A 
ATOM      7  C   UNL     1      32.809  -9.717 -23.214  0.00  0.00    +0.089 A 
ATOM      8  C   UNL     1      33.736 -10.579 -23.752  0.00  0.00    +0.055 A 
ATOM      9  C   UNL     1      32.816  -6.116 -24.467  0.00  0.00    +0.196 C 
ATOM     10  C   UNL     1      34.511  -7.509 -25.511  0.00  0.00    +0.027 C 
ATOM     11  C   UNL     1      33.872  -6.274 -25.363  0.00  0.00    +0.074 C 
ATOM     12  C   UNL     1      35.565 -10.434 -25.451  0.00  0.00    +0.130 C 
ENDROOT
BRANCH   7  14
ATOM     13  O   UNL     1      30.721 -10.580 -22.453  0.00  0.00    -0.245 OA
ATOM     14  C   UNL     1      31.846 -10.093 -22.217  0.00  0.00    +0.342 C 
BRANCH  14  15
ATOM     15  O   UNL     1      32.298  -9.855 -20.940  0.00  0.00    -0.445 OA
BRANCH  15  16
ATOM     16  C   UNL     1      31.347  -9.944 -19.874  0.00  0.00    +0.209 C 
ATOM     17  C   UNL     1      31.534 -11.263 -19.156  0.00  0.00    +0.051 C 
ENDBRANCH  15  16
ENDBRANCH  14  15
ENDBRANCH   7  14
BRANCH   5  18
ATOM     18  C   UNL     1      31.228  -7.015 -22.724  0.00  0.00    -0.047 C 
BRANCH  18  19
ATOM     19  N   UNL     1      31.466  -5.929 -21.741  0.00  0.00    +0.387 N 
ATOM     20  C   UNL     1      30.219  -5.136 -21.441  0.00  0.00    -0.100 C 
ATOM     21  C   UNL     1      32.114  -6.427 -20.472  0.00  0.00    -0.100 C 
ATOM     22  H   UNL     1      32.126  -5.294 -22.187  0.00  0.00    -0.079 HD
ENDBRANCH  18  19
ENDBRANCH   5  18
BRANCH   8  23
ATOM     23  C   UNL     1      33.981 -12.011 -23.478  0.00  0.00    +0.106 C 
BRANCH  23  24
ATOM     24  S   UNL     1      32.911 -13.115 -24.460  0.00  0.00    -0.107 S 
BRANCH  24  25
ATOM     25  C   UNL     1      33.735 -14.685 -24.235  0.00  0.00    +0.026 C 
ATOM     26  C   UNL     1      33.724 -15.632 -25.260  0.00  0.00    +0.006 C 
ATOM     27  C   UNL     1      34.389 -14.964 -23.036  0.00  0.00    +0.006 C 
ATOM     28  C   UNL     1      34.367 -16.856 -25.086  0.00  0.00    +0.001 C 
ATOM     29  C   UNL     1      35.033 -16.190 -22.861  0.00  0.00    +0.001 C 
ATOM     30  C   UNL     1      35.022 -17.136 -23.886  0.00  0.00    +0.000 C 
ENDBRANCH  24  25
ENDBRANCH  23  24
ENDBRANCH   8  23
TORSDOF 8
ENDMDL
MODEL 8
REMARK VINA RESULT:      -7.1      3.079      5.336
REMARK  Name = 28446253
REMARK  8 active torsions:
REMARK  status: ('A' for Active; 'I' for Inactive)
REMARK    1  A    between atoms: C_5  and  C_18
REMARK    2  A    between atoms: C_7  and  C_14
REMARK    3  A    between atoms: C_8  and  C_23
REMARK    4  A    between atoms: C_14  and  O_15
REMARK    5  A    between atoms: O_15  and  C_16
REMARK    6  A    between atoms: C_18  and  N_19
REMARK    7  A    between atoms: C_23  and  S_24
REMARK    8  A    between atoms: S_24  and  C_25
REMARK                            x       y       z     vdW  Elec       q    Type
REMARK                         _______ _______ _______ _____ _____    ______ ____
ROOT
ATOM      1 BR   UNL     1      35.906 -10.010 -26.570  0.00  0.00    -0.046 Br
ATOM      2  O   UNL     1      34.251  -8.374 -24.479  0.00  0.00    -0.286 OA
ATOM      3  N   UNL     1      33.379 -13.630 -23.570  0.00  0.00    -0.328 N 
ATOM      4  C   UNL     1      33.059 -11.471 -23.109  0.00  0.00    +0.020 A 
ATOM      5  C   UNL     1      33.243 -10.085 -23.292  0.00  0.00    -0.002 C 
ATOM      6  C   UNL     1      33.726 -12.356 -23.959  0.00  0.00    +0.060 A 
ATOM      7  C   UNL     1      32.300 -12.258 -22.198  0.00  0.00    +0.089 A 
ATOM      8  C   UNL     1      32.517 -13.581 -22.507  0.00  0.00    +0.055 A 
ATOM      9  C   UNL     1      34.086  -9.639 -24.316  0.00  0.00    +0.196 C 
ATOM     10  C   UNL     1      34.572 -11.923 -24.986  0.00  0.00    +0.027 C 
ATOM     11  C   UNL     1      34.740 -10.545 -25.149  0.00  0.00    +0.074 C 
ATOM     12  C   UNL     1      33.857 -14.845 -24.198  0.00  0.00    +0.130 C 
ENDROOT
BRANCH   7  14
ATOM     13  O   UNL     1      30.247 -11.488 -21.262  0.00  0.00    -0.245 OA
ATOM     14  C   UNL     1      31.446 -11.811 -21.134  0.00  0.00    +0.342 C 
BRANCH  14  15
ATOM     15  O   UNL     1      32.098 -11.772 -19.923  0.00  0.00    -0.445 OA
BRANCH  15  16
ATOM     16  C   UNL     1      31.539 -10.948 -18.896  0.00  0.00    +0.209 C 
ATOM     17  C   UNL     1      31.933  -9.509 -19.150  0.00  0.00    +0.051 C 
ENDBRANCH  15  16
ENDBRANCH  14  15
ENDBRANCH   7  14
BRANCH   5  18
ATOM     18  C   UNL     1      32.540  -9.106 -22.395  0.00  0.00    -0.047 C 
BRANCH  18  19
ATOM     19  N   UNL     1      32.154  -7.854 -23.094  0.00  0.00    +0.387 N 
ATOM     20  C   UNL     1      30.788  -7.940 -23.727  0.00  0.00    -0.100 C 
ATOM     21  C   UNL     1      32.270  -6.637 -22.210  0.00  0.00    -0.100 C 
ATOM     22  H   UNL     1      32.829  -7.743 -23.850  0.00  0.00    -0.079 HD
ENDBRANCH  18  19
ENDBRANCH   5  18
BRANCH   8  23
ATOM     23  C   UNL     1      31.978 -14.809 -21.882  0.00  0.00    +0.106 C 
BRANCH  23  24
ATOM     24  S   UNL     1      32.910 -15.318 -20.400  0.00  0.00    -0.107 S 
BRANCH  24  25
ATOM     25  C   UNL     1      33.770 -16.761 -21.011  0.00  0.00    +0.026 C 
ATOM     26  C   UNL     1      33.185 -18.022 -20.897  0.00  0.00    +0.006 C 
ATOM     27  C   UNL     1      35.026 -16.626 -21.601  0.00  0.00    +0.006 C 
ATOM     28  C   UNL     1      33.855 -19.148 -21.374  0.00  0.00    +0.001 C 
ATOM     29  C   UNL     1      35.697 -17.752 -22.078  0.00  0.00    +0.001 C 
ATOM     30  C   UNL     1      35.112 -19.014 -21.965  0.00  0.00    +0.000 C 
ENDBRANCH  24  25
ENDBRANCH  23  24
ENDBRANCH   8  23
TORSDOF 8
ENDMDL
MODEL 9
REMARK VINA RESULT:      -7.1      9.762     12.618
REMARK  Name = 28446253
REMARK  8 active torsions:
REMARK  status: ('A' for Active; 'I' for Inactive)
REMARK    1  A    between atoms: C_5  and  C_18
REMARK    2  A    between atoms: C_7  and  C_14
REMARK    3  A    between atoms: C_8  and  C_23
REMARK    4  A    between atoms: C_14  and  O_15
REMARK    5  A    between atoms: O_15  and  C_16
REMARK    6  A    between atoms: C_18  and  N_19
REMARK    7  A    between atoms: C_23  and  S_24
REMARK    8  A    between atoms: S_24  and  C_25
REMARK                            x       y       z     vdW  Elec       q    Type
REMARK                         _______ _______ _______ _____ _____    ______ ____
ROOT
ATOM      1 BR   UNL     1      36.819 -21.079 -19.132  0.00  0.00    -0.046 Br
ATOM      2  O   UNL     1      38.443 -21.967 -16.610  0.00  0.00    -0.286 OA
ATOM      3  N   UNL     1      33.328 -23.595 -15.973  0.00  0.00    -0.328 N 
ATOM      4  C   UNL     1      35.440 -23.417 -15.278  0.00  0.00    +0.020 A 
ATOM      5  C   UNL     1      36.789 -23.020 -15.381  0.00  0.00    -0.002 C 
ATOM      6  C   UNL     1      34.565 -23.101 -16.320  0.00  0.00    +0.060 A 
ATOM      7  C   UNL     1      34.684 -24.115 -14.295  0.00  0.00    +0.089 A 
ATOM      8  C   UNL     1      33.390 -24.209 -14.751  0.00  0.00    +0.055 A 
ATOM      9  C   UNL     1      37.211 -22.326 -16.520  0.00  0.00    +0.196 C 
ATOM     10  C   UNL     1      34.974 -22.408 -17.465  0.00  0.00    +0.027 C 
ATOM     11  C   UNL     1      36.316 -22.025 -17.545  0.00  0.00    +0.074 C 
ATOM     12  C   UNL     1      32.134 -23.479 -16.786  0.00  0.00    +0.130 C 
ENDROOT
BRANCH   7  14
ATOM     13  O   UNL     1      35.720 -25.740 -12.891  0.00  0.00    -0.245 OA
ATOM     14  C   UNL     1      35.135 -24.648 -13.039  0.00  0.00    +0.342 C 
BRANCH  14  15
ATOM     15  O   UNL     1      34.850 -23.810 -11.986  0.00  0.00    -0.445 OA
BRANCH  15  16
ATOM     16  C   UNL     1      35.710 -23.867 -10.844  0.00  0.00    +0.209 C 
ATOM     17  C   UNL     1      36.872 -22.919 -11.054  0.00  0.00    +0.051 C 
ENDBRANCH  15  16
ENDBRANCH  14  15
ENDBRANCH   7  14
BRANCH   5  18
ATOM     18  C   UNL     1      37.757 -23.344 -14.277  0.00  0.00    -0.047 C 
BRANCH  18  19
ATOM     19  N   UNL     1      38.314 -24.716 -14.380  0.00  0.00    +0.387 N 
ATOM     20  C   UNL     1      39.435 -24.813 -15.384  0.00  0.00    -0.100 C 
ATOM     21  C   UNL     1      38.731 -25.274 -13.041  0.00  0.00    -0.100 C 
ATOM     22  H   UNL     1      37.550 -25.297 -14.724  0.00  0.00    -0.079 HD
ENDBRANCH  18  19
ENDBRANCH   5  18
BRANCH   8  23
ATOM     23  C   UNL     1      32.201 -24.832 -14.129  0.00  0.00    +0.106 C 
BRANCH  23  24
ATOM     24  S   UNL     1      31.035 -23.607 -13.447  0.00  0.00    -0.107 S 
BRANCH  24  25
ATOM     25  C   UNL     1      29.811 -23.533 -14.747  0.00  0.00    +0.026 C 
ATOM     26  C   UNL     1      29.203 -22.318 -15.065  0.00  0.00    +0.006 C 
ATOM     27  C   UNL     1      29.462 -24.689 -15.444  0.00  0.00    +0.006 C 
ATOM     28  C   UNL     1      28.248 -22.259 -16.080  0.00  0.00    +0.001 C 
ATOM     29  C   UNL     1      28.507 -24.631 -16.459  0.00  0.00    +0.001 C 
ATOM     30  C   UNL     1      27.900 -23.417 -16.778  0.00  0.00    +0.000 C 
ENDBRANCH  24  25
ENDBRANCH  23  24
ENDBRANCH   8  23
TORSDOF 8
ENDMDL
