MODEL 1
REMARK VINA RESULT:      -8.0      0.000      0.000
REMARK  Name = 4395717
REMARK  17 active torsions:
REMARK  status: ('A' for Active; 'I' for Inactive)
REMARK    1  A    between atoms: C_1  and  P_2
REMARK    2  A    between atoms: C_1  and  P_8
REMARK    3  A    between atoms: C_1  and  O_14
REMARK    4  A    between atoms: C_1  and  C_16
REMARK    5  A    between atoms: P_2  and  O_4
REMARK    6  A    between atoms: P_2  and  O_6
REMARK    7  A    between atoms: P_8  and  O_10
REMARK    8  A    between atoms: P_8  and  O_12
REMARK    9  A    between atoms: C_16  and  C_17
REMARK   10  A    between atoms: C_17  and  C_18
REMARK   11  A    between atoms: C_18  and  C_19
REMARK   12  A    between atoms: C_19  and  C_20
REMARK   13  A    between atoms: C_20  and  C_21
REMARK   14  A    between atoms: C_21  and  C_22
REMARK   15  A    between atoms: C_22  and  C_23
REMARK   16  A    between atoms: C_23  and  C_24
REMARK   17  A    between atoms: C_24  and  C_25
REMARK                            x       y       z     vdW  Elec       q    Type
REMARK                         _______ _______ _______ _____ _____    ______ ____
ROOT
ATOM      1  C   UNL     1      37.527 -24.449 -13.843  0.00  0.00    +0.275 C 
ENDROOT
BRANCH   1   2
ATOM      2  P   UNL     1      37.312 -26.251 -14.148  0.00  0.00    +0.372 P 
ATOM      3  O   UNL     1      38.501 -26.938 -14.750  0.00  0.00    -0.255 OA
BRANCH   2   4
ATOM      4  O   UNL     1      36.838 -26.835 -12.718  0.00  0.00    -0.322 OA
ATOM      5  H   UNL     1      36.857 -27.805 -12.742  0.00  0.00    +0.220 HD
ENDBRANCH   2   4
BRANCH   2   6
ATOM      6  O   UNL     1      35.962 -26.305 -15.037  0.00  0.00    -0.322 OA
ATOM      7  H   UNL     1      35.214 -25.983 -14.510  0.00  0.00    +0.220 HD
ENDBRANCH   2   6
ENDBRANCH   1   2
BRANCH   1   8
ATOM      8  P   UNL     1      37.190 -23.712 -12.207  0.00  0.00    +0.372 P 
ATOM      9  O   UNL     1      37.358 -24.632 -11.034  0.00  0.00    -0.255 OA
BRANCH   8  10
ATOM     10  O   UNL     1      38.128 -22.396 -12.193  0.00  0.00    -0.322 OA
ATOM     11  H   UNL     1      38.527 -22.293 -11.315  0.00  0.00    +0.220 HD
ENDBRANCH   8  10
BRANCH   8  12
ATOM     12  O   UNL     1      35.703 -23.098 -12.365  0.00  0.00    -0.322 OA
ATOM     13  H   UNL     1      35.246 -23.541 -13.096  0.00  0.00    +0.220 HD
ENDBRANCH   8  12
ENDBRANCH   1   8
BRANCH   1  14
ATOM     14  O   UNL     1      38.938 -24.282 -13.993  0.00  0.00    -0.367 OA
ATOM     15  H   UNL     1      39.400 -24.941 -13.451  0.00  0.00    +0.212 HD
ENDBRANCH   1  14
BRANCH   1  16
ATOM     16  C   UNL     1      36.828 -23.683 -14.989  0.00  0.00    +0.051 C 
BRANCH  16  17
ATOM     17  C   UNL     1      37.763 -22.960 -15.963  0.00  0.00    +0.004 C 
BRANCH  17  18
ATOM     18  C   UNL     1      37.187 -21.638 -16.485  0.00  0.00    +0.000 C 
BRANCH  18  19
ATOM     19  C   UNL     1      36.718 -21.649 -17.944  0.00  0.00    +0.000 C 
BRANCH  19  20
ATOM     20  C   UNL     1      35.271 -22.117 -18.113  0.00  0.00    +0.000 C 
BRANCH  20  21
ATOM     21  C   UNL     1      34.723 -21.894 -19.527  0.00  0.00    +0.000 C 
BRANCH  21  22
ATOM     22  C   UNL     1      33.359 -21.202 -19.609  0.00  0.00    +0.000 C 
BRANCH  22  23
ATOM     23  C   UNL     1      33.287 -20.127 -20.696  0.00  0.00    +0.000 C 
BRANCH  23  24
ATOM     24  C   UNL     1      34.665 -19.644 -21.164  0.00  0.00    +0.000 C 
BRANCH  24  25
ATOM     25  C   UNL     1      34.773 -19.287 -22.648  0.00  0.00    +0.000 C 
ATOM     26  C   UNL     1      34.992 -17.804 -22.903  0.00  0.00    +0.000 C 
ENDBRANCH  24  25
ENDBRANCH  23  24
ENDBRANCH  22  23
ENDBRANCH  21  22
ENDBRANCH  20  21
ENDBRANCH  19  20
ENDBRANCH  18  19
ENDBRANCH  17  18
ENDBRANCH  16  17
ENDBRANCH   1  16
TORSDOF 17
ENDMDL
MODEL 2
REMARK VINA RESULT:      -7.8      1.386      2.119
REMARK  Name = 4395717
REMARK  17 active torsions:
REMARK  status: ('A' for Active; 'I' for Inactive)
REMARK    1  A    between atoms: C_1  and  P_2
REMARK    2  A    between atoms: C_1  and  P_8
REMARK    3  A    between atoms: C_1  and  O_14
REMARK    4  A    between atoms: C_1  and  C_16
REMARK    5  A    between atoms: P_2  and  O_4
REMARK    6  A    between atoms: P_2  and  O_6
REMARK    7  A    between atoms: P_8  and  O_10
REMARK    8  A    between atoms: P_8  and  O_12
REMARK    9  A    between atoms: C_16  and  C_17
REMARK   10  A    between atoms: C_17  and  C_18
REMARK   11  A    between atoms: C_18  and  C_19
REMARK   12  A    between atoms: C_19  and  C_20
REMARK   13  A    between atoms: C_20  and  C_21
REMARK   14  A    between atoms: C_21  and  C_22
REMARK   15  A    between atoms: C_22  and  C_23
REMARK   16  A    between atoms: C_23  and  C_24
REMARK   17  A    between atoms: C_24  and  C_25
REMARK                            x       y       z     vdW  Elec       q    Type
REMARK                         _______ _______ _______ _____ _____    ______ ____
ROOT
ATOM      1  C   UNL     1      36.971 -24.444 -13.754  0.00  0.00    +0.275 C 
ENDROOT
BRANCH   1   2
ATOM      2  P   UNL     1      38.339 -25.371 -14.565  0.00  0.00    +0.372 P 
ATOM      3  O   UNL     1      39.231 -26.130 -13.629  0.00  0.00    -0.255 OA
BRANCH   2   4
ATOM      4  O   UNL     1      37.593 -26.273 -15.678  0.00  0.00    -0.322 OA
ATOM      5  H   UNL     1      37.589 -27.201 -15.393  0.00  0.00    +0.220 HD
ENDBRANCH   2   4
BRANCH   2   6
ATOM      6  O   UNL     1      39.074 -24.230 -15.443  0.00  0.00    -0.322 OA
ATOM      7  H   UNL     1      39.035 -24.469 -16.383  0.00  0.00    +0.220 HD
ENDBRANCH   2   6
ENDBRANCH   1   2
BRANCH   1   8
ATOM      8  P   UNL     1      36.392 -24.874 -12.077  0.00  0.00    +0.372 P 
ATOM      9  O   UNL     1      34.964 -24.529 -11.775  0.00  0.00    -0.255 OA
BRANCH   8  10
ATOM     10  O   UNL     1      36.767 -26.441 -11.946  0.00  0.00    -0.322 OA
ATOM     11  H   UNL     1      37.615 -26.533 -11.483  0.00  0.00    +0.220 HD
ENDBRANCH   8  10
BRANCH   8  12
ATOM     12  O   UNL     1      37.470 -24.159 -11.106  0.00  0.00    -0.322 OA
ATOM     13  H   UNL     1      38.347 -24.193 -11.517  0.00  0.00    +0.220 HD
ENDBRANCH   8  12
ENDBRANCH   1   8
BRANCH   1  14
ATOM     14  O   UNL     1      37.544 -23.147 -13.580  0.00  0.00    -0.367 OA
ATOM     15  H   UNL     1      37.056 -22.504 -14.117  0.00  0.00    +0.212 HD
ENDBRANCH   1  14
BRANCH   1  16
ATOM     16  C   UNL     1      35.809 -24.325 -14.766  0.00  0.00    +0.051 C 
BRANCH  16  17
ATOM     17  C   UNL     1      35.472 -22.900 -15.214  0.00  0.00    +0.004 C 
BRANCH  17  18
ATOM     18  C   UNL     1      35.315 -22.765 -16.734  0.00  0.00    +0.000 C 
BRANCH  18  19
ATOM     19  C   UNL     1      33.911 -23.037 -17.283  0.00  0.00    +0.000 C 
BRANCH  19  20
ATOM     20  C   UNL     1      33.836 -22.987 -18.811  0.00  0.00    +0.000 C 
BRANCH  20  21
ATOM     21  C   UNL     1      34.200 -21.617 -19.391  0.00  0.00    +0.000 C 
BRANCH  21  22
ATOM     22  C   UNL     1      33.017 -20.732 -19.797  0.00  0.00    +0.000 C 
BRANCH  22  23
ATOM     23  C   UNL     1      33.342 -19.771 -20.943  0.00  0.00    +0.000 C 
BRANCH  23  24
ATOM     24  C   UNL     1      34.838 -19.700 -21.270  0.00  0.00    +0.000 C 
BRANCH  24  25
ATOM     25  C   UNL     1      35.233 -18.695 -22.354  0.00  0.00    +0.000 C 
ATOM     26  C   UNL     1      34.884 -19.151 -23.762  0.00  0.00    +0.000 C 
ENDBRANCH  24  25
ENDBRANCH  23  24
ENDBRANCH  22  23
ENDBRANCH  21  22
ENDBRANCH  20  21
ENDBRANCH  19  20
ENDBRANCH  18  19
ENDBRANCH  17  18
ENDBRANCH  16  17
ENDBRANCH   1  16
TORSDOF 17
ENDMDL
MODEL 3
REMARK VINA RESULT:      -7.8      1.038      2.688
REMARK  Name = 4395717
REMARK  17 active torsions:
REMARK  status: ('A' for Active; 'I' for Inactive)
REMARK    1  A    between atoms: C_1  and  P_2
REMARK    2  A    between atoms: C_1  and  P_8
REMARK    3  A    between atoms: C_1  and  O_14
REMARK    4  A    between atoms: C_1  and  C_16
REMARK    5  A    between atoms: P_2  and  O_4
REMARK    6  A    between atoms: P_2  and  O_6
REMARK    7  A    between atoms: P_8  and  O_10
REMARK    8  A    between atoms: P_8  and  O_12
REMARK    9  A    between atoms: C_16  and  C_17
REMARK   10  A    between atoms: C_17  and  C_18
REMARK   11  A    between atoms: C_18  and  C_19
REMARK   12  A    between atoms: C_19  and  C_20
REMARK   13  A    between atoms: C_20  and  C_21
REMARK   14  A    between atoms: C_21  and  C_22
REMARK   15  A    between atoms: C_22  and  C_23
REMARK   16  A    between atoms: C_23  and  C_24
REMARK   17  A    between atoms: C_24  and  C_25
REMARK                            x       y       z     vdW  Elec       q    Type
REMARK                         _______ _______ _______ _____ _____    ______ ____
ROOT
ATOM      1  C   UNL     1      36.780 -24.599 -13.858  0.00  0.00    +0.275 C 
ENDROOT
BRANCH   1   2
ATOM      2  P   UNL     1      36.380 -24.655 -12.063  0.00  0.00    +0.372 P 
ATOM      3  O   UNL     1      35.024 -24.127 -11.700  0.00  0.00    -0.255 OA
BRANCH   2   4
ATOM      4  O   UNL     1      36.645 -26.195 -11.651  0.00  0.00    -0.322 OA
ATOM      5  H   UNL     1      36.265 -26.366 -10.775  0.00  0.00    +0.220 HD
ENDBRANCH   2   4
BRANCH   2   6
ATOM      6  O   UNL     1      37.625 -23.871 -11.393  0.00  0.00    -0.322 OA
ATOM      7  H   UNL     1      38.048 -23.306 -12.059  0.00  0.00    +0.220 HD
ENDBRANCH   2   6
ENDBRANCH   1   2
BRANCH   1   8
ATOM      8  P   UNL     1      38.363 -25.241 -14.502  0.00  0.00    +0.372 P 
ATOM      9  O   UNL     1      39.284 -24.218 -15.097  0.00  0.00    -0.255 OA
BRANCH   8  10
ATOM     10  O   UNL     1      38.965 -26.067 -13.249  0.00  0.00    -0.322 OA
ATOM     11  H   UNL     1      38.429 -25.892 -12.460  0.00  0.00    +0.220 HD
ENDBRANCH   8  10
BRANCH   8  12
ATOM     12  O   UNL     1      37.913 -26.409 -15.526  0.00  0.00    -0.322 OA
ATOM     13  H   UNL     1      37.944 -27.266 -15.072  0.00  0.00    +0.220 HD
ENDBRANCH   8  12
ENDBRANCH   1   8
BRANCH   1  14
ATOM     14  O   UNL     1      35.814 -25.495 -14.412  0.00  0.00    -0.367 OA
ATOM     15  H   UNL     1      35.758 -26.290 -13.861  0.00  0.00    +0.212 HD
ENDBRANCH   1  14
BRANCH   1  16
ATOM     16  C   UNL     1      36.468 -23.176 -14.374  0.00  0.00    +0.051 C 
BRANCH  16  17
ATOM     17  C   UNL     1      36.269 -23.055 -15.887  0.00  0.00    +0.004 C 
BRANCH  17  18
ATOM     18  C   UNL     1      37.002 -21.855 -16.500  0.00  0.00    +0.000 C 
BRANCH  18  19
ATOM     19  C   UNL     1      36.785 -21.640 -18.001  0.00  0.00    +0.000 C 
BRANCH  19  20
ATOM     20  C   UNL     1      35.352 -21.922 -18.455  0.00  0.00    +0.000 C 
BRANCH  20  21
ATOM     21  C   UNL     1      35.020 -21.322 -19.825  0.00  0.00    +0.000 C 
BRANCH  21  22
ATOM     22  C   UNL     1      33.585 -20.811 -19.996  0.00  0.00    +0.000 C 
BRANCH  22  23
ATOM     23  C   UNL     1      33.443 -19.758 -21.098  0.00  0.00    +0.000 C 
BRANCH  23  24
ATOM     24  C   UNL     1      34.573 -18.723 -21.097  0.00  0.00    +0.000 C 
BRANCH  24  25
ATOM     25  C   UNL     1      35.403 -18.647 -22.380  0.00  0.00    +0.000 C 
ATOM     26  C   UNL     1      34.670 -19.159 -23.610  0.00  0.00    +0.000 C 
ENDBRANCH  24  25
ENDBRANCH  23  24
ENDBRANCH  22  23
ENDBRANCH  21  22
ENDBRANCH  20  21
ENDBRANCH  19  20
ENDBRANCH  18  19
ENDBRANCH  17  18
ENDBRANCH  16  17
ENDBRANCH   1  16
TORSDOF 17
ENDMDL
MODEL 4
REMARK VINA RESULT:      -7.6      1.453      2.282
REMARK  Name = 4395717
REMARK  17 active torsions:
REMARK  status: ('A' for Active; 'I' for Inactive)
REMARK    1  A    between atoms: C_1  and  P_2
REMARK    2  A    between atoms: C_1  and  P_8
REMARK    3  A    between atoms: C_1  and  O_14
REMARK    4  A    between atoms: C_1  and  C_16
REMARK    5  A    between atoms: P_2  and  O_4
REMARK    6  A    between atoms: P_2  and  O_6
REMARK    7  A    between atoms: P_8  and  O_10
REMARK    8  A    between atoms: P_8  and  O_12
REMARK    9  A    between atoms: C_16  and  C_17
REMARK   10  A    between atoms: C_17  and  C_18
REMARK   11  A    between atoms: C_18  and  C_19
REMARK   12  A    between atoms: C_19  and  C_20
REMARK   13  A    between atoms: C_20  and  C_21
REMARK   14  A    between atoms: C_21  and  C_22
REMARK   15  A    between atoms: C_22  and  C_23
REMARK   16  A    between atoms: C_23  and  C_24
REMARK   17  A    between atoms: C_24  and  C_25
REMARK                            x       y       z     vdW  Elec       q    Type
REMARK                         _______ _______ _______ _____ _____    ______ ____
ROOT
ATOM      1  C   UNL     1      36.896 -24.144 -13.861  0.00  0.00    +0.275 C 
ENDROOT
BRANCH   1   2
ATOM      2  P   UNL     1      38.197 -25.303 -14.453  0.00  0.00    +0.372 P 
ATOM      3  O   UNL     1      38.863 -26.110 -13.378  0.00  0.00    -0.255 OA
BRANCH   2   4
ATOM      4  O   UNL     1      37.456 -26.171 -15.597  0.00  0.00    -0.322 OA
ATOM      5  H   UNL     1      36.743 -25.644 -15.991  0.00  0.00    +0.220 HD
ENDBRANCH   2   4
BRANCH   2   6
ATOM      6  O   UNL     1      39.181 -24.337 -15.297  0.00  0.00    -0.322 OA
ATOM      7  H   UNL     1      39.967 -24.133 -14.767  0.00  0.00    +0.220 HD
ENDBRANCH   2   6
ENDBRANCH   1   2
BRANCH   1   8
ATOM      8  P   UNL     1      36.501 -23.981 -12.086  0.00  0.00    +0.372 P 
ATOM      9  O   UNL     1      37.386 -23.055 -11.306  0.00  0.00    -0.255 OA
BRANCH   8  10
ATOM     10  O   UNL     1      34.931 -23.596 -12.090  0.00  0.00    -0.322 OA
ATOM     11  H   UNL     1      34.741 -23.022 -12.848  0.00  0.00    +0.220 HD
ENDBRANCH   8  10
BRANCH   8  12
ATOM     12  O   UNL     1      36.500 -25.508 -11.553  0.00  0.00    -0.322 OA
ATOM     13  H   UNL     1      36.106 -25.541 -10.668  0.00  0.00    +0.220 HD
ENDBRANCH   8  12
ENDBRANCH   1   8
BRANCH   1  14
ATOM     14  O   UNL     1      37.451 -22.870 -14.191  0.00  0.00    -0.367 OA
ATOM     15  H   UNL     1      36.860 -22.411 -14.809  0.00  0.00    +0.212 HD
ENDBRANCH   1  14
BRANCH   1  16
ATOM     16  C   UNL     1      35.634 -24.359 -14.728  0.00  0.00    +0.051 C 
BRANCH  16  17
ATOM     17  C   UNL     1      35.334 -23.247 -15.737  0.00  0.00    +0.004 C 
BRANCH  17  18
ATOM     18  C   UNL     1      34.029 -23.471 -16.511  0.00  0.00    +0.000 C 
BRANCH  18  19
ATOM     19  C   UNL     1      33.934 -22.766 -17.869  0.00  0.00    +0.000 C 
BRANCH  19  20
ATOM     20  C   UNL     1      35.227 -22.059 -18.279  0.00  0.00    +0.000 C 
BRANCH  20  21
ATOM     21  C   UNL     1      35.173 -21.466 -19.691  0.00  0.00    +0.000 C 
BRANCH  21  22
ATOM     22  C   UNL     1      36.422 -20.699 -20.137  0.00  0.00    +0.000 C 
BRANCH  22  23
ATOM     23  C   UNL     1      36.106 -19.361 -20.810  0.00  0.00    +0.000 C 
BRANCH  23  24
ATOM     24  C   UNL     1      35.006 -19.461 -21.872  0.00  0.00    +0.000 C 
BRANCH  24  25
ATOM     25  C   UNL     1      35.144 -18.508 -23.061  0.00  0.00    +0.000 C 
ATOM     26  C   UNL     1      34.708 -19.119 -24.384  0.00  0.00    +0.000 C 
ENDBRANCH  24  25
ENDBRANCH  23  24
ENDBRANCH  22  23
ENDBRANCH  21  22
ENDBRANCH  20  21
ENDBRANCH  19  20
ENDBRANCH  18  19
ENDBRANCH  17  18
ENDBRANCH  16  17
ENDBRANCH   1  16
TORSDOF 17
ENDMDL
MODEL 5
REMARK VINA RESULT:      -7.5      1.581      3.042
REMARK  Name = 4395717
REMARK  17 active torsions:
REMARK  status: ('A' for Active; 'I' for Inactive)
REMARK    1  A    between atoms: C_1  and  P_2
REMARK    2  A    between atoms: C_1  and  P_8
REMARK    3  A    between atoms: C_1  and  O_14
REMARK    4  A    between atoms: C_1  and  C_16
REMARK    5  A    between atoms: P_2  and  O_4
REMARK    6  A    between atoms: P_2  and  O_6
REMARK    7  A    between atoms: P_8  and  O_10
REMARK    8  A    between atoms: P_8  and  O_12
REMARK    9  A    between atoms: C_16  and  C_17
REMARK   10  A    between atoms: C_17  and  C_18
REMARK   11  A    between atoms: C_18  and  C_19
REMARK   12  A    between atoms: C_19  and  C_20
REMARK   13  A    between atoms: C_20  and  C_21
REMARK   14  A    between atoms: C_21  and  C_22
REMARK   15  A    between atoms: C_22  and  C_23
REMARK   16  A    between atoms: C_23  and  C_24
REMARK   17  A    between atoms: C_24  and  C_25
REMARK                            x       y       z     vdW  Elec       q    Type
REMARK                         _______ _______ _______ _____ _____    ______ ____
ROOT
ATOM      1  C   UNL     1      36.343 -24.419 -13.973  0.00  0.00    +0.275 C 
ENDROOT
BRANCH   1   2
ATOM      2  P   UNL     1      35.917 -24.211 -12.195  0.00  0.00    +0.372 P 
ATOM      3  O   UNL     1      36.034 -25.455 -11.366  0.00  0.00    -0.255 OA
BRANCH   2   4
ATOM      4  O   UNL     1      36.846 -22.980 -11.713  0.00  0.00    -0.322 OA
ATOM      5  H   UNL     1      36.587 -22.174 -12.189  0.00  0.00    +0.220 HD
ENDBRANCH   2   4
BRANCH   2   6
ATOM      6  O   UNL     1      34.438 -23.560 -12.255  0.00  0.00    -0.322 OA
ATOM      7  H   UNL     1      33.989 -23.850 -13.064  0.00  0.00    +0.220 HD
ENDBRANCH   2   6
ENDBRANCH   1   2
BRANCH   1   8
ATOM      8  P   UNL     1      38.070 -24.651 -14.519  0.00  0.00    +0.372 P 
ATOM      9  O   UNL     1      39.101 -24.647 -13.429  0.00  0.00    -0.255 OA
BRANCH   8  10
ATOM     10  O   UNL     1      38.001 -26.004 -15.401  0.00  0.00    -0.322 OA
ATOM     11  H   UNL     1      37.335 -26.601 -15.026  0.00  0.00    +0.220 HD
ENDBRANCH   8  10
BRANCH   8  12
ATOM     12  O   UNL     1      38.275 -23.499 -15.635  0.00  0.00    -0.322 OA
ATOM     13  H   UNL     1      39.082 -22.999 -15.438  0.00  0.00    +0.220 HD
ENDBRANCH   8  12
ENDBRANCH   1   8
BRANCH   1  14
ATOM     14  O   UNL     1      35.729 -25.671 -14.288  0.00  0.00    -0.367 OA
ATOM     15  H   UNL     1      35.709 -25.787 -15.251  0.00  0.00    +0.212 HD
ENDBRANCH   1  14
BRANCH   1  16
ATOM     16  C   UNL     1      35.616 -23.313 -14.772  0.00  0.00    +0.051 C 
BRANCH  16  17
ATOM     17  C   UNL     1      34.818 -23.796 -15.986  0.00  0.00    +0.004 C 
BRANCH  17  18
ATOM     18  C   UNL     1      33.327 -23.447 -15.908  0.00  0.00    +0.000 C 
BRANCH  18  19
ATOM     19  C   UNL     1      32.702 -22.908 -17.199  0.00  0.00    +0.000 C 
BRANCH  19  20
ATOM     20  C   UNL     1      33.691 -22.823 -18.363  0.00  0.00    +0.000 C 
BRANCH  20  21
ATOM     21  C   UNL     1      33.407 -21.656 -19.316  0.00  0.00    +0.000 C 
BRANCH  21  22
ATOM     22  C   UNL     1      34.642 -20.948 -19.883  0.00  0.00    +0.000 C 
BRANCH  22  23
ATOM     23  C   UNL     1      34.303 -19.873 -20.919  0.00  0.00    +0.000 C 
BRANCH  23  24
ATOM     24  C   UNL     1      35.534 -19.120 -21.436  0.00  0.00    +0.000 C 
BRANCH  24  25
ATOM     25  C   UNL     1      35.329 -18.322 -22.726  0.00  0.00    +0.000 C 
ATOM     26  C   UNL     1      34.864 -19.172 -23.899  0.00  0.00    +0.000 C 
ENDBRANCH  24  25
ENDBRANCH  23  24
ENDBRANCH  22  23
ENDBRANCH  21  22
ENDBRANCH  20  21
ENDBRANCH  19  20
ENDBRANCH  18  19
ENDBRANCH  17  18
ENDBRANCH  16  17
ENDBRANCH   1  16
TORSDOF 17
ENDMDL
MODEL 6
REMARK VINA RESULT:      -7.2      1.956      3.301
REMARK  Name = 4395717
REMARK  17 active torsions:
REMARK  status: ('A' for Active; 'I' for Inactive)
REMARK    1  A    between atoms: C_1  and  P_2
REMARK    2  A    between atoms: C_1  and  P_8
REMARK    3  A    between atoms: C_1  and  O_14
REMARK    4  A    between atoms: C_1  and  C_16
REMARK    5  A    between atoms: P_2  and  O_4
REMARK    6  A    between atoms: P_2  and  O_6
REMARK    7  A    between atoms: P_8  and  O_10
REMARK    8  A    between atoms: P_8  and  O_12
REMARK    9  A    between atoms: C_16  and  C_17
REMARK   10  A    between atoms: C_17  and  C_18
REMARK   11  A    between atoms: C_18  and  C_19
REMARK   12  A    between atoms: C_19  and  C_20
REMARK   13  A    between atoms: C_20  and  C_21
REMARK   14  A    between atoms: C_21  and  C_22
REMARK   15  A    between atoms: C_22  and  C_23
REMARK   16  A    between atoms: C_23  and  C_24
REMARK   17  A    between atoms: C_24  and  C_25
REMARK                            x       y       z     vdW  Elec       q    Type
REMARK                         _______ _______ _______ _____ _____    ______ ____
ROOT
ATOM      1  C   UNL     1      36.787 -24.612 -13.776  0.00  0.00    +0.275 C 
ENDROOT
BRANCH   1   2
ATOM      2  P   UNL     1      38.240 -25.438 -14.545  0.00  0.00    +0.372 P 
ATOM      3  O   UNL     1      39.127 -26.178 -13.589  0.00  0.00    -0.255 OA
BRANCH   2   4
ATOM      4  O   UNL     1      37.598 -26.344 -15.719  0.00  0.00    -0.322 OA
ATOM      5  H   UNL     1      36.725 -26.663 -15.441  0.00  0.00    +0.220 HD
ENDBRANCH   2   4
BRANCH   2   6
ATOM      6  O   UNL     1      38.952 -24.233 -15.353  0.00  0.00    -0.322 OA
ATOM      7  H   UNL     1      39.468 -24.596 -16.090  0.00  0.00    +0.220 HD
ENDBRANCH   2   6
ENDBRANCH   1   2
BRANCH   1   8
ATOM      8  P   UNL     1      36.416 -24.797 -11.998  0.00  0.00    +0.372 P 
ATOM      9  O   UNL     1      37.002 -23.748 -11.100  0.00  0.00    -0.255 OA
BRANCH   8  10
ATOM     10  O   UNL     1      34.804 -24.913 -11.966  0.00  0.00    -0.322 OA
ATOM     11  H   UNL     1      34.417 -24.173 -12.460  0.00  0.00    +0.220 HD
ENDBRANCH   8  10
BRANCH   8  12
ATOM     12  O   UNL     1      36.896 -26.305 -11.663  0.00  0.00    -0.322 OA
ATOM     13  H   UNL     1      36.972 -26.810 -12.487  0.00  0.00    +0.220 HD
ENDBRANCH   8  12
ENDBRANCH   1   8
BRANCH   1  14
ATOM     14  O   UNL     1      37.123 -23.229 -13.898  0.00  0.00    -0.367 OA
ATOM     15  H   UNL     1      36.452 -22.780 -14.435  0.00  0.00    +0.212 HD
ENDBRANCH   1  14
BRANCH   1  16
ATOM     16  C   UNL     1      35.553 -24.888 -14.667  0.00  0.00    +0.051 C 
BRANCH  16  17
ATOM     17  C   UNL     1      34.876 -23.646 -15.253  0.00  0.00    +0.004 C 
BRANCH  17  18
ATOM     18  C   UNL     1      33.345 -23.702 -15.182  0.00  0.00    +0.000 C 
BRANCH  18  19
ATOM     19  C   UNL     1      32.605 -23.254 -16.447  0.00  0.00    +0.000 C 
BRANCH  19  20
ATOM     20  C   UNL     1      33.523 -23.075 -17.657  0.00  0.00    +0.000 C 
BRANCH  20  21
ATOM     21  C   UNL     1      32.970 -22.094 -18.698  0.00  0.00    +0.000 C 
BRANCH  21  22
ATOM     22  C   UNL     1      34.019 -21.327 -19.509  0.00  0.00    +0.000 C 
BRANCH  22  23
ATOM     23  C   UNL     1      35.192 -22.199 -19.964  0.00  0.00    +0.000 C 
BRANCH  23  24
ATOM     24  C   UNL     1      36.560 -21.625 -19.577  0.00  0.00    +0.000 C 
BRANCH  24  25
ATOM     25  C   UNL     1      36.656 -21.035 -18.168  0.00  0.00    +0.000 C 
ATOM     26  C   UNL     1      37.216 -22.005 -17.139  0.00  0.00    +0.000 C 
ENDBRANCH  24  25
ENDBRANCH  23  24
ENDBRANCH  22  23
ENDBRANCH  21  22
ENDBRANCH  20  21
ENDBRANCH  19  20
ENDBRANCH  18  19
ENDBRANCH  17  18
ENDBRANCH  16  17
ENDBRANCH   1  16
TORSDOF 17
ENDMDL
MODEL 7
REMARK VINA RESULT:      -7.2      1.507      2.414
REMARK  Name = 4395717
REMARK  17 active torsions:
REMARK  status: ('A' for Active; 'I' for Inactive)
REMARK    1  A    between atoms: C_1  and  P_2
REMARK    2  A    between atoms: C_1  and  P_8
REMARK    3  A    between atoms: C_1  and  O_14
REMARK    4  A    between atoms: C_1  and  C_16
REMARK    5  A    between atoms: P_2  and  O_4
REMARK    6  A    between atoms: P_2  and  O_6
REMARK    7  A    between atoms: P_8  and  O_10
REMARK    8  A    between atoms: P_8  and  O_12
REMARK    9  A    between atoms: C_16  and  C_17
REMARK   10  A    between atoms: C_17  and  C_18
REMARK   11  A    between atoms: C_18  and  C_19
REMARK   12  A    between atoms: C_19  and  C_20
REMARK   13  A    between atoms: C_20  and  C_21
REMARK   14  A    between atoms: C_21  and  C_22
REMARK   15  A    between atoms: C_22  and  C_23
REMARK   16  A    between atoms: C_23  and  C_24
REMARK   17  A    between atoms: C_24  and  C_25
REMARK                            x       y       z     vdW  Elec       q    Type
REMARK                         _______ _______ _______ _____ _____    ______ ____
ROOT
ATOM      1  C   UNL     1      36.880 -24.133 -13.612  0.00  0.00    +0.275 C 
ENDROOT
BRANCH   1   2
ATOM      2  P   UNL     1      37.888 -25.299 -14.618  0.00  0.00    +0.372 P 
ATOM      3  O   UNL     1      37.102 -26.181 -15.542  0.00  0.00    -0.255 OA
BRANCH   2   4
ATOM      4  O   UNL     1      38.975 -24.348 -15.344  0.00  0.00    -0.322 OA
ATOM      5  H   UNL     1      38.672 -24.135 -16.241  0.00  0.00    +0.220 HD
ENDBRANCH   2   4
BRANCH   2   6
ATOM      6  O   UNL     1      38.760 -26.075 -13.501  0.00  0.00    -0.322 OA
ATOM      7  H   UNL     1      39.703 -25.901 -13.647  0.00  0.00    +0.220 HD
ENDBRANCH   2   6
ENDBRANCH   1   2
BRANCH   1   8
ATOM      8  P   UNL     1      36.334 -24.559 -11.923  0.00  0.00    +0.372 P 
ATOM      9  O   UNL     1      34.967 -24.075 -11.541  0.00  0.00    -0.255 OA
BRANCH   8  10
ATOM     10  O   UNL     1      36.544 -26.161 -11.858  0.00  0.00    -0.322 OA
ATOM     11  H   UNL     1      35.683 -26.595 -11.757  0.00  0.00    +0.220 HD
ENDBRANCH   8  10
BRANCH   8  12
ATOM     12  O   UNL     1      37.526 -23.998 -10.984  0.00  0.00    -0.322 OA
ATOM     13  H   UNL     1      38.276 -23.732 -11.539  0.00  0.00    +0.220 HD
ENDBRANCH   8  12
ENDBRANCH   1   8
BRANCH   1  14
ATOM     14  O   UNL     1      37.788 -23.051 -13.400  0.00  0.00    -0.367 OA
ATOM     15  H   UNL     1      37.571 -22.325 -14.005  0.00  0.00    +0.212 HD
ENDBRANCH   1  14
BRANCH   1  16
ATOM     16  C   UNL     1      35.719 -23.621 -14.494  0.00  0.00    +0.051 C 
BRANCH  16  17
ATOM     17  C   UNL     1      36.084 -22.509 -15.481  0.00  0.00    +0.004 C 
BRANCH  17  18
ATOM     18  C   UNL     1      35.572 -22.769 -16.903  0.00  0.00    +0.000 C 
BRANCH  18  19
ATOM     19  C   UNL     1      36.143 -21.855 -17.992  0.00  0.00    +0.000 C 
BRANCH  19  20
ATOM     20  C   UNL     1      35.225 -21.709 -19.207  0.00  0.00    +0.000 C 
BRANCH  20  21
ATOM     21  C   UNL     1      35.754 -20.721 -20.252  0.00  0.00    +0.000 C 
BRANCH  21  22
ATOM     22  C   UNL     1      34.699 -19.836 -20.924  0.00  0.00    +0.000 C 
BRANCH  22  23
ATOM     23  C   UNL     1      35.295 -18.649 -21.682  0.00  0.00    +0.000 C 
BRANCH  23  24
ATOM     24  C   UNL     1      35.181 -17.323 -20.921  0.00  0.00    +0.000 C 
BRANCH  24  25
ATOM     25  C   UNL     1      34.590 -16.154 -21.711  0.00  0.00    +0.000 C 
ATOM     26  C   UNL     1      34.356 -14.908 -20.871  0.00  0.00    +0.000 C 
ENDBRANCH  24  25
ENDBRANCH  23  24
ENDBRANCH  22  23
ENDBRANCH  21  22
ENDBRANCH  20  21
ENDBRANCH  19  20
ENDBRANCH  18  19
ENDBRANCH  17  18
ENDBRANCH  16  17
ENDBRANCH   1  16
TORSDOF 17
ENDMDL
MODEL 8
REMARK VINA RESULT:      -7.0      8.276     10.158
REMARK  Name = 4395717
REMARK  17 active torsions:
REMARK  status: ('A' for Active; 'I' for Inactive)
REMARK    1  A    between atoms: C_1  and  P_2
REMARK    2  A    between atoms: C_1  and  P_8
REMARK    3  A    between atoms: C_1  and  O_14
REMARK    4  A    between atoms: C_1  and  C_16
REMARK    5  A    between atoms: P_2  and  O_4
REMARK    6  A    between atoms: P_2  and  O_6
REMARK    7  A    between atoms: P_8  and  O_10
REMARK    8  A    between atoms: P_8  and  O_12
REMARK    9  A    between atoms: C_16  and  C_17
REMARK   10  A    between atoms: C_17  and  C_18
REMARK   11  A    between atoms: C_18  and  C_19
REMARK   12  A    between atoms: C_19  and  C_20
REMARK   13  A    between atoms: C_20  and  C_21
REMARK   14  A    between atoms: C_21  and  C_22
REMARK   15  A    between atoms: C_22  and  C_23
REMARK   16  A    between atoms: C_23  and  C_24
REMARK   17  A    between atoms: C_24  and  C_25
REMARK                            x       y       z     vdW  Elec       q    Type
REMARK                         _______ _______ _______ _____ _____    ______ ____
ROOT
ATOM      1  C   UNL     1      34.473 -17.424 -21.547  0.00  0.00    +0.275 C 
ENDROOT
BRANCH   1   2
ATOM      2  P   UNL     1      33.574 -15.859 -21.188  0.00  0.00    +0.372 P 
ATOM      3  O   UNL     1      32.291 -16.025 -20.430  0.00  0.00    -0.255 OA
BRANCH   2   4
ATOM      4  O   UNL     1      34.681 -14.933 -20.460  0.00  0.00    -0.322 OA
ATOM      5  H   UNL     1      34.256 -14.407 -19.764  0.00  0.00    +0.220 HD
ENDBRANCH   2   4
BRANCH   2   6
ATOM      6  O   UNL     1      33.429 -15.185 -22.650  0.00  0.00    -0.322 OA
ATOM      7  H   UNL     1      34.086 -15.570 -23.251  0.00  0.00    +0.220 HD
ENDBRANCH   2   6
ENDBRANCH   1   2
BRANCH   1   8
ATOM      8  P   UNL     1      35.323 -17.690 -23.141  0.00  0.00    +0.372 P 
ATOM      9  O   UNL     1      34.557 -18.477 -24.163  0.00  0.00    -0.255 OA
BRANCH   8  10
ATOM     10  O   UNL     1      35.742 -16.196 -23.591  0.00  0.00    -0.322 OA
ATOM     11  H   UNL     1      36.122 -16.221 -24.484  0.00  0.00    +0.220 HD
ENDBRANCH   8  10
BRANCH   8  12
ATOM     12  O   UNL     1      36.736 -18.351 -22.714  0.00  0.00    -0.322 OA
ATOM     13  H   UNL     1      37.246 -18.565 -23.510  0.00  0.00    +0.220 HD
ENDBRANCH   8  12
ENDBRANCH   1   8
BRANCH   1  14
ATOM     14  O   UNL     1      35.547 -17.382 -20.606  0.00  0.00    -0.367 OA
ATOM     15  H   UNL     1      35.363 -17.996 -19.879  0.00  0.00    +0.212 HD
ENDBRANCH   1  14
BRANCH   1  16
ATOM     16  C   UNL     1      33.548 -18.604 -21.169  0.00  0.00    +0.051 C 
BRANCH  16  17
ATOM     17  C   UNL     1      34.262 -19.867 -20.681  0.00  0.00    +0.004 C 
BRANCH  17  18
ATOM     18  C   UNL     1      33.312 -20.895 -20.054  0.00  0.00    +0.000 C 
BRANCH  18  19
ATOM     19  C   UNL     1      33.975 -21.970 -19.186  0.00  0.00    +0.000 C 
BRANCH  19  20
ATOM     20  C   UNL     1      33.026 -22.594 -18.161  0.00  0.00    +0.000 C 
BRANCH  20  21
ATOM     21  C   UNL     1      33.753 -23.234 -16.973  0.00  0.00    +0.000 C 
BRANCH  21  22
ATOM     22  C   UNL     1      32.909 -23.437 -15.711  0.00  0.00    +0.000 C 
BRANCH  22  23
ATOM     23  C   UNL     1      31.432 -23.084 -15.903  0.00  0.00    +0.000 C 
BRANCH  23  24
ATOM     24  C   UNL     1      30.480 -24.209 -15.481  0.00  0.00    +0.000 C 
BRANCH  24  25
ATOM     25  C   UNL     1      28.988 -23.872 -15.544  0.00  0.00    +0.000 C 
ATOM     26  C   UNL     1      28.686 -22.588 -16.300  0.00  0.00    +0.000 C 
ENDBRANCH  24  25
ENDBRANCH  23  24
ENDBRANCH  22  23
ENDBRANCH  21  22
ENDBRANCH  20  21
ENDBRANCH  19  20
ENDBRANCH  18  19
ENDBRANCH  17  18
ENDBRANCH  16  17
ENDBRANCH   1  16
TORSDOF 17
ENDMDL
MODEL 9
REMARK VINA RESULT:      -6.9      9.178     11.271
REMARK  Name = 4395717
REMARK  17 active torsions:
REMARK  status: ('A' for Active; 'I' for Inactive)
REMARK    1  A    between atoms: C_1  and  P_2
REMARK    2  A    between atoms: C_1  and  P_8
REMARK    3  A    between atoms: C_1  and  O_14
REMARK    4  A    between atoms: C_1  and  C_16
REMARK    5  A    between atoms: P_2  and  O_4
REMARK    6  A    between atoms: P_2  and  O_6
REMARK    7  A    between atoms: P_8  and  O_10
REMARK    8  A    between atoms: P_8  and  O_12
REMARK    9  A    between atoms: C_16  and  C_17
REMARK   10  A    between atoms: C_17  and  C_18
REMARK   11  A    between atoms: C_18  and  C_19
REMARK   12  A    between atoms: C_19  and  C_20
REMARK   13  A    between atoms: C_20  and  C_21
REMARK   14  A    between atoms: C_21  and  C_22
REMARK   15  A    between atoms: C_22  and  C_23
REMARK   16  A    between atoms: C_23  and  C_24
REMARK   17  A    between atoms: C_24  and  C_25
REMARK                            x       y       z     vdW  Elec       q    Type
REMARK                         _______ _______ _______ _____ _____    ______ ____
ROOT
ATOM      1  C   UNL     1      33.818 -14.847 -22.715  0.00  0.00    +0.275 C 
ENDROOT
BRANCH   1   2
ATOM      2  P   UNL     1      33.313 -14.929 -20.948  0.00  0.00    +0.372 P 
ATOM      3  O   UNL     1      32.651 -13.692 -20.420  0.00  0.00    -0.255 OA
BRANCH   2   4
ATOM      4  O   UNL     1      32.418 -16.272 -20.860  0.00  0.00    -0.322 OA
ATOM      5  H   UNL     1      31.562 -16.119 -21.290  0.00  0.00    +0.220 HD
ENDBRANCH   2   4
BRANCH   2   6
ATOM      6  O   UNL     1      34.685 -15.348 -20.202  0.00  0.00    -0.322 OA
ATOM      7  H   UNL     1      35.318 -15.687 -20.854  0.00  0.00    +0.220 HD
ENDBRANCH   2   6
ENDBRANCH   1   2
BRANCH   1   8
ATOM      8  P   UNL     1      33.085 -13.627 -23.860  0.00  0.00    +0.372 P 
ATOM      9  O   UNL     1      32.774 -14.135 -25.237  0.00  0.00    -0.255 OA
BRANCH   8  10
ATOM     10  O   UNL     1      31.820 -13.056 -23.032  0.00  0.00    -0.322 OA
ATOM     11  H   UNL     1      32.082 -12.253 -22.555  0.00  0.00    +0.220 HD
ENDBRANCH   8  10
BRANCH   8  12
ATOM     12  O   UNL     1      34.130 -12.394 -23.824  0.00  0.00    -0.322 OA
ATOM     13  H   UNL     1      33.739 -11.653 -23.337  0.00  0.00    +0.220 HD
ENDBRANCH   8  12
ENDBRANCH   1   8
BRANCH   1  14
ATOM     14  O   UNL     1      35.182 -14.430 -22.623  0.00  0.00    -0.367 OA
ATOM     15  H   UNL     1      35.427 -14.333 -21.689  0.00  0.00    +0.212 HD
ENDBRANCH   1  14
BRANCH   1  16
ATOM     16  C   UNL     1      33.791 -16.282 -23.288  0.00  0.00    +0.051 C 
BRANCH  16  17
ATOM     17  C   UNL     1      35.111 -17.053 -23.190  0.00  0.00    +0.004 C 
BRANCH  17  18
ATOM     18  C   UNL     1      34.939 -18.569 -23.349  0.00  0.00    +0.000 C 
BRANCH  18  19
ATOM     19  C   UNL     1      35.301 -19.411 -22.121  0.00  0.00    +0.000 C 
BRANCH  19  20
ATOM     20  C   UNL     1      34.422 -19.117 -20.903  0.00  0.00    +0.000 C 
BRANCH  20  21
ATOM     21  C   UNL     1      33.140 -19.956 -20.865  0.00  0.00    +0.000 C 
BRANCH  21  22
ATOM     22  C   UNL     1      33.038 -20.961 -19.713  0.00  0.00    +0.000 C 
BRANCH  22  23
ATOM     23  C   UNL     1      34.170 -21.992 -19.705  0.00  0.00    +0.000 C 
BRANCH  23  24
ATOM     24  C   UNL     1      34.894 -22.088 -18.357  0.00  0.00    +0.000 C 
BRANCH  24  25
ATOM     25  C   UNL     1      36.364 -21.665 -18.363  0.00  0.00    +0.000 C 
ATOM     26  C   UNL     1      37.033 -21.771 -17.002  0.00  0.00    +0.000 C 
ENDBRANCH  24  25
ENDBRANCH  23  24
ENDBRANCH  22  23
ENDBRANCH  21  22
ENDBRANCH  20  21
ENDBRANCH  19  20
ENDBRANCH  18  19
ENDBRANCH  17  18
ENDBRANCH  16  17
ENDBRANCH   1  16
TORSDOF 17
ENDMDL
