MODEL 1
REMARK VINA RESULT:     -10.2      0.000      0.000
REMARK  Name = 11633038
REMARK  6 active torsions:
REMARK  status: ('A' for Active; 'I' for Inactive)
REMARK    1  A    between atoms: C_3  and  C_18
REMARK    2  A    between atoms: C_3  and  C_30
REMARK    3  A    between atoms: C_5  and  C_7
REMARK    4  A    between atoms: N_17  and  C_22
REMARK    5  A    between atoms: C_23  and  C_27
REMARK    6  A    between atoms: C_23  and  O_28
REMARK                            x       y       z     vdW  Elec       q    Type
REMARK                         _______ _______ _______ _____ _____    ______ ____
ROOT
ATOM      1  O   UNL     1      32.383 -14.846 -22.629  0.00  0.00    -0.376 OA
ATOM      2  N   UNL     1      32.222 -13.492 -23.001  0.00  0.00    -0.086 NA
ATOM      3  C   UNL     1      33.727 -15.239 -22.919  0.00  0.00    +0.234 C 
ATOM      4  C   UNL     1      34.523 -13.955 -22.974  0.00  0.00    +0.102 C 
ATOM      5  C   UNL     1      33.402 -12.998 -23.196  0.00  0.00    +0.119 C 
ENDROOT
BRANCH   5   7
ATOM      6  N   UNL     1      34.476 -11.456 -24.644  0.00  0.00    -0.243 NA
ATOM      7  C   UNL     1      33.638 -11.591 -23.588  0.00  0.00    +0.098 C 
ATOM      8  C   UNL     1      33.045 -10.513 -22.920  0.00  0.00    +0.019 C 
ATOM      9  C   UNL     1      33.340  -9.213 -23.379  0.00  0.00    +0.003 C 
ATOM     10  C   UNL     1      32.179 -10.688 -21.827  0.00  0.00    +0.002 C 
ATOM     11  C   UNL     1      34.204  -9.059 -24.469  0.00  0.00    +0.021 C 
ATOM     12  C   UNL     1      34.737 -10.197 -25.056  0.00  0.00    +0.099 C 
ATOM     13  C   UNL     1      32.759  -8.110 -22.731  0.00  0.00    +0.000 C 
ATOM     14  C   UNL     1      31.612  -9.582 -21.194  0.00  0.00    +0.000 C 
ATOM     15  C   UNL     1      31.901  -8.296 -21.645  0.00  0.00    +0.000 C 
ENDBRANCH   5   7
BRANCH   3  18
ATOM     16  O   UNL     1      34.869 -15.690 -20.873  0.00  0.00    -0.271 OA
ATOM     17  N   UNL     1      33.662 -17.398 -21.892  0.00  0.00    -0.297 N 
ATOM     18  C   UNL     1      34.151 -16.111 -21.776  0.00  0.00    +0.262 C 
ATOM     19  H   UNL     1      33.093 -17.616 -22.666  0.00  0.00    +0.150 HD
BRANCH  17  22
ATOM     20  O   UNL     1      34.776 -20.561 -20.537  0.00  0.00    -0.426 OA
ATOM     21  O   UNL     1      32.909 -21.508 -19.594  0.00  0.00    -0.250 OA
ATOM     22  C   UNL     1      33.945 -18.432 -20.938  0.00  0.00    +0.150 C 
ATOM     23  C   UNL     1      35.033 -19.411 -21.363  0.00  0.00    +0.279 C 
ATOM     24  C   UNL     1      32.766 -19.354 -20.697  0.00  0.00    +0.135 C 
ATOM     25  C   UNL     1      33.449 -20.593 -20.196  0.00  0.00    +0.321 C 
BRANCH  23  27
ATOM     26  F   UNL     1      36.907 -18.349 -22.245  0.00  0.00    -0.227 F 
ATOM     27  C   UNL     1      36.439 -18.892 -21.097  0.00  0.00    +0.264 C 
ENDBRANCH  23  27
BRANCH  23  28
ATOM     28  O   UNL     1      34.886 -19.753 -22.740  0.00  0.00    -0.351 OA
ATOM     29  H   UNL     1      35.341 -20.591 -22.916  0.00  0.00    +0.214 HD
ENDBRANCH  23  28
ENDBRANCH  17  22
ENDBRANCH   3  18
BRANCH   3  30
ATOM     30  C   UNL     1      33.753 -16.037 -24.216  0.00  0.00    +0.048 C 
ATOM     31  C   UNL     1      33.343 -15.163 -25.401  0.00  0.00    +0.004 C 
ATOM     32  C   UNL     1      35.139 -16.640 -24.455  0.00  0.00    +0.004 C 
ENDBRANCH   3  30
TORSDOF 6
ENDMDL
MODEL 2
REMARK VINA RESULT:      -9.9      1.109      2.157
REMARK  Name = 11633038
REMARK  6 active torsions:
REMARK  status: ('A' for Active; 'I' for Inactive)
REMARK    1  A    between atoms: C_3  and  C_18
REMARK    2  A    between atoms: C_3  and  C_30
REMARK    3  A    between atoms: C_5  and  C_7
REMARK    4  A    between atoms: N_17  and  C_22
REMARK    5  A    between atoms: C_23  and  C_27
REMARK    6  A    between atoms: C_23  and  O_28
REMARK                            x       y       z     vdW  Elec       q    Type
REMARK                         _______ _______ _______ _____ _____    ______ ____
ROOT
ATOM      1  O   UNL     1      32.563 -15.333 -22.624  0.00  0.00    -0.376 OA
ATOM      2  N   UNL     1      31.990 -14.050 -22.782  0.00  0.00    -0.086 NA
ATOM      3  C   UNL     1      33.965 -15.178 -22.393  0.00  0.00    +0.234 C 
ATOM      4  C   UNL     1      34.140 -13.764 -21.884  0.00  0.00    +0.102 C 
ATOM      5  C   UNL     1      32.860 -13.181 -22.378  0.00  0.00    +0.119 C 
ENDROOT
BRANCH   5   7
ATOM      6  N   UNL     1      31.655 -11.335 -21.502  0.00  0.00    -0.243 NA
ATOM      7  C   UNL     1      32.612 -11.723 -22.380  0.00  0.00    +0.098 C 
ATOM      8  C   UNL     1      33.309 -10.841 -23.214  0.00  0.00    +0.019 C 
ATOM      9  C   UNL     1      32.992  -9.469 -23.131  0.00  0.00    +0.003 C 
ATOM     10  C   UNL     1      34.297 -11.276 -24.113  0.00  0.00    +0.002 C 
ATOM     11  C   UNL     1      32.005  -9.056 -22.229  0.00  0.00    +0.021 C 
ATOM     12  C   UNL     1      31.376 -10.016 -21.450  0.00  0.00    +0.099 C 
ATOM     13  C   UNL     1      33.674  -8.558 -23.955  0.00  0.00    +0.000 C 
ATOM     14  C   UNL     1      34.964 -10.357 -24.924  0.00  0.00    +0.000 C 
ATOM     15  C   UNL     1      34.653  -9.002 -24.845  0.00  0.00    +0.000 C 
ENDBRANCH   5   7
BRANCH   3  18
ATOM     16  O   UNL     1      35.054 -15.922 -20.404  0.00  0.00    -0.271 OA
ATOM     17  N   UNL     1      33.756 -17.428 -21.612  0.00  0.00    -0.297 N 
ATOM     18  C   UNL     1      34.322 -16.194 -21.352  0.00  0.00    +0.262 C 
ATOM     19  H   UNL     1      33.183 -17.523 -22.408  0.00  0.00    +0.150 HD
BRANCH  17  22
ATOM     20  O   UNL     1      34.680 -20.776 -20.605  0.00  0.00    -0.426 OA
ATOM     21  O   UNL     1      32.746 -21.729 -19.816  0.00  0.00    -0.250 OA
ATOM     22  C   UNL     1      33.963 -18.576 -20.777  0.00  0.00    +0.150 C 
ATOM     23  C   UNL     1      35.014 -19.554 -21.287  0.00  0.00    +0.279 C 
ATOM     24  C   UNL     1      32.736 -19.459 -20.669  0.00  0.00    +0.135 C 
ATOM     25  C   UNL     1      33.345 -20.780 -20.298  0.00  0.00    +0.321 C 
BRANCH  23  27
ATOM     26  F   UNL     1      36.925 -20.041 -20.052  0.00  0.00    -0.227 F 
ATOM     27  C   UNL     1      36.436 -19.140 -20.934  0.00  0.00    +0.264 C 
ENDBRANCH  23  27
BRANCH  23  28
ATOM     28  O   UNL     1      34.888 -19.730 -22.698  0.00  0.00    -0.351 OA
ATOM     29  H   UNL     1      34.077 -19.297 -23.007  0.00  0.00    +0.214 HD
ENDBRANCH  23  28
ENDBRANCH  17  22
ENDBRANCH   3  18
BRANCH   3  30
ATOM     30  C   UNL     1      34.726 -15.467 -23.681  0.00  0.00    +0.048 C 
ATOM     31  C   UNL     1      35.674 -16.652 -23.498  0.00  0.00    +0.004 C 
ATOM     32  C   UNL     1      33.759 -15.732 -24.836  0.00  0.00    +0.004 C 
ENDBRANCH   3  30
TORSDOF 6
ENDMDL
MODEL 3
REMARK VINA RESULT:      -9.7      3.922      8.620
REMARK  Name = 11633038
REMARK  6 active torsions:
REMARK  status: ('A' for Active; 'I' for Inactive)
REMARK    1  A    between atoms: C_3  and  C_18
REMARK    2  A    between atoms: C_3  and  C_30
REMARK    3  A    between atoms: C_5  and  C_7
REMARK    4  A    between atoms: N_17  and  C_22
REMARK    5  A    between atoms: C_23  and  C_27
REMARK    6  A    between atoms: C_23  and  O_28
REMARK                            x       y       z     vdW  Elec       q    Type
REMARK                         _______ _______ _______ _____ _____    ______ ____
ROOT
ATOM      1  O   UNL     1      34.467 -12.663 -23.183  0.00  0.00    -0.376 OA
ATOM      2  N   UNL     1      34.974 -13.972 -23.348  0.00  0.00    -0.086 NA
ATOM      3  C   UNL     1      33.203 -12.580 -23.846  0.00  0.00    +0.234 C 
ATOM      4  C   UNL     1      32.707 -14.004 -23.957  0.00  0.00    +0.102 C 
ATOM      5  C   UNL     1      34.005 -14.715 -23.779  0.00  0.00    +0.119 C 
ENDROOT
BRANCH   5   7
ATOM      6  N   UNL     1      33.865 -16.498 -25.338  0.00  0.00    -0.243 NA
ATOM      7  C   UNL     1      34.153 -16.160 -24.058  0.00  0.00    +0.098 C 
ATOM      8  C   UNL     1      34.553 -17.079 -23.080  0.00  0.00    +0.019 C 
ATOM      9  C   UNL     1      34.661 -18.433 -23.456  0.00  0.00    +0.003 C 
ATOM     10  C   UNL     1      34.845 -16.695 -21.760  0.00  0.00    +0.002 C 
ATOM     11  C   UNL     1      34.366 -18.796 -24.776  0.00  0.00    +0.021 C 
ATOM     12  C   UNL     1      33.978 -17.803 -25.663  0.00  0.00    +0.099 C 
ATOM     13  C   UNL     1      35.061 -19.380 -22.498  0.00  0.00    +0.000 C 
ATOM     14  C   UNL     1      35.239 -17.649 -20.821  0.00  0.00    +0.000 C 
ATOM     15  C   UNL     1      35.347 -18.988 -21.190  0.00  0.00    +0.000 C 
ENDBRANCH   5   7
BRANCH   3  18
ATOM     16  O   UNL     1      31.399 -12.246 -22.319  0.00  0.00    -0.271 OA
ATOM     17  N   UNL     1      32.687 -10.418 -22.963  0.00  0.00    -0.297 N 
ATOM     18  C   UNL     1      32.329 -11.753 -22.953  0.00  0.00    +0.262 C 
ATOM     19  H   UNL     1      33.456 -10.143 -23.514  0.00  0.00    +0.150 HD
BRANCH  17  22
ATOM     20  O   UNL     1      31.934  -7.229 -21.433  0.00  0.00    -0.426 OA
ATOM     21  O   UNL     1      31.833  -7.647 -19.178  0.00  0.00    -0.250 OA
ATOM     22  C   UNL     1      31.992  -9.415 -22.209  0.00  0.00    +0.150 C 
ATOM     23  C   UNL     1      32.328  -7.980 -22.596  0.00  0.00    +0.279 C 
ATOM     24  C   UNL     1      32.339  -9.435 -20.734  0.00  0.00    +0.135 C 
ATOM     25  C   UNL     1      32.001  -8.031 -20.324  0.00  0.00    +0.321 C 
BRANCH  23  27
ATOM     26  F   UNL     1      30.278  -7.932 -23.696  0.00  0.00    -0.227 F 
ATOM     27  C   UNL     1      31.552  -7.491 -23.810  0.00  0.00    +0.264 C 
ENDBRANCH  23  27
BRANCH  23  28
ATOM     28  O   UNL     1      33.731  -7.839 -22.817  0.00  0.00    -0.351 OA
ATOM     29  H   UNL     1      34.185  -7.739 -21.966  0.00  0.00    +0.214 HD
ENDBRANCH  23  28
ENDBRANCH  17  22
ENDBRANCH   3  18
BRANCH   3  30
ATOM     30  C   UNL     1      33.378 -11.882 -25.188  0.00  0.00    +0.048 C 
ATOM     31  C   UNL     1      34.688 -11.094 -25.224  0.00  0.00    +0.004 C 
ATOM     32  C   UNL     1      33.334 -12.893 -26.336  0.00  0.00    +0.004 C 
ENDBRANCH   3  30
TORSDOF 6
ENDMDL
MODEL 4
REMARK VINA RESULT:      -9.6      7.720     10.717
REMARK  Name = 11633038
REMARK  6 active torsions:
REMARK  status: ('A' for Active; 'I' for Inactive)
REMARK    1  A    between atoms: C_3  and  C_18
REMARK    2  A    between atoms: C_3  and  C_30
REMARK    3  A    between atoms: C_5  and  C_7
REMARK    4  A    between atoms: N_17  and  C_22
REMARK    5  A    between atoms: C_23  and  C_27
REMARK    6  A    between atoms: C_23  and  O_28
REMARK                            x       y       z     vdW  Elec       q    Type
REMARK                         _______ _______ _______ _____ _____    ______ ____
ROOT
ATOM      1  O   UNL     1      33.743 -24.285 -17.015  0.00  0.00    -0.376 OA
ATOM      2  N   UNL     1      34.331 -23.750 -18.183  0.00  0.00    -0.086 NA
ATOM      3  C   UNL     1      34.057 -23.427 -15.915  0.00  0.00    +0.234 C 
ATOM      4  C   UNL     1      34.393 -22.086 -16.528  0.00  0.00    +0.102 C 
ATOM      5  C   UNL     1      34.695 -22.536 -17.916  0.00  0.00    +0.119 C 
ENDROOT
BRANCH   5   7
ATOM      6  N   UNL     1      36.695 -21.693 -18.875  0.00  0.00    -0.243 NA
ATOM      7  C   UNL     1      35.341 -21.647 -18.906  0.00  0.00    +0.098 C 
ATOM      8  C   UNL     1      34.609 -20.840 -19.785  0.00  0.00    +0.019 C 
ATOM      9  C   UNL     1      35.328 -20.031 -20.689  0.00  0.00    +0.003 C 
ATOM     10  C   UNL     1      33.204 -20.816 -19.792  0.00  0.00    +0.002 C 
ATOM     11  C   UNL     1      36.727 -20.069 -20.666  0.00  0.00    +0.021 C 
ATOM     12  C   UNL     1      37.351 -20.906 -19.753  0.00  0.00    +0.099 C 
ATOM     13  C   UNL     1      34.622 -19.210 -21.584  0.00  0.00    +0.000 C 
ATOM     14  C   UNL     1      32.519 -19.994 -20.687  0.00  0.00    +0.000 C 
ATOM     15  C   UNL     1      33.226 -19.193 -21.581  0.00  0.00    +0.000 C 
ENDBRANCH   5   7
BRANCH   3  18
ATOM     16  O   UNL     1      32.856 -23.412 -13.853  0.00  0.00    -0.271 OA
ATOM     17  N   UNL     1      31.672 -23.270 -15.851  0.00  0.00    -0.297 N 
ATOM     18  C   UNL     1      32.815 -23.363 -15.080  0.00  0.00    +0.262 C 
ATOM     19  H   UNL     1      31.768 -23.237 -16.831  0.00  0.00    +0.150 HD
BRANCH  17  22
ATOM     20  O   UNL     1      28.285 -24.240 -15.034  0.00  0.00    -0.426 OA
ATOM     21  O   UNL     1      26.952 -22.594 -15.919  0.00  0.00    -0.250 OA
ATOM     22  C   UNL     1      30.352 -23.217 -15.291  0.00  0.00    +0.150 C 
ATOM     23  C   UNL     1      29.683 -24.574 -15.107  0.00  0.00    +0.279 C 
ATOM     24  C   UNL     1      29.360 -22.493 -16.180  0.00  0.00    +0.135 C 
ATOM     25  C   UNL     1      28.056 -23.072 -15.712  0.00  0.00    +0.321 C 
BRANCH  23  27
ATOM     26  F   UNL     1      30.232 -24.348 -12.857  0.00  0.00    -0.227 F 
ATOM     27  C   UNL     1      30.110 -25.281 -13.829  0.00  0.00    +0.264 C 
ENDBRANCH  23  27
BRANCH  23  28
ATOM     28  O   UNL     1      29.929 -25.408 -16.238  0.00  0.00    -0.351 OA
ATOM     29  H   UNL     1      30.171 -26.298 -15.938  0.00  0.00    +0.214 HD
ENDBRANCH  23  28
ENDBRANCH  17  22
ENDBRANCH   3  18
BRANCH   3  30
ATOM     30  C   UNL     1      35.195 -24.036 -15.105  0.00  0.00    +0.048 C 
ATOM     31  C   UNL     1      35.366 -25.518 -15.439  0.00  0.00    +0.004 C 
ATOM     32  C   UNL     1      36.502 -23.281 -15.350  0.00  0.00    +0.004 C 
ENDBRANCH   3  30
TORSDOF 6
ENDMDL
MODEL 5
REMARK VINA RESULT:      -9.6      1.954      2.872
REMARK  Name = 11633038
REMARK  6 active torsions:
REMARK  status: ('A' for Active; 'I' for Inactive)
REMARK    1  A    between atoms: C_3  and  C_18
REMARK    2  A    between atoms: C_3  and  C_30
REMARK    3  A    between atoms: C_5  and  C_7
REMARK    4  A    between atoms: N_17  and  C_22
REMARK    5  A    between atoms: C_23  and  C_27
REMARK    6  A    between atoms: C_23  and  O_28
REMARK                            x       y       z     vdW  Elec       q    Type
REMARK                         _______ _______ _______ _____ _____    ______ ____
ROOT
ATOM      1  O   UNL     1      32.404 -15.222 -22.505  0.00  0.00    -0.376 OA
ATOM      2  N   UNL     1      31.765 -14.209 -21.754  0.00  0.00    -0.086 NA
ATOM      3  C   UNL     1      33.439 -14.621 -23.287  0.00  0.00    +0.234 C 
ATOM      4  C   UNL     1      33.766 -13.316 -22.597  0.00  0.00    +0.102 C 
ATOM      5  C   UNL     1      32.512 -13.154 -21.806  0.00  0.00    +0.119 C 
ENDROOT
BRANCH   5   7
ATOM      6  N   UNL     1      31.846 -12.044 -19.818  0.00  0.00    -0.243 NA
ATOM      7  C   UNL     1      32.175 -11.886 -21.122  0.00  0.00    +0.098 C 
ATOM      8  C   UNL     1      32.199 -10.648 -21.776  0.00  0.00    +0.019 C 
ATOM      9  C   UNL     1      31.860  -9.503 -21.027  0.00  0.00    +0.003 C 
ATOM     10  C   UNL     1      32.545 -10.518 -23.131  0.00  0.00    +0.002 C 
ATOM     11  C   UNL     1      31.518  -9.652 -19.678  0.00  0.00    +0.021 C 
ATOM     12  C   UNL     1      31.527 -10.927 -19.131  0.00  0.00    +0.099 C 
ATOM     13  C   UNL     1      31.874  -8.245 -21.653  0.00  0.00    +0.000 C 
ATOM     14  C   UNL     1      32.553  -9.262 -23.738  0.00  0.00    +0.000 C 
ATOM     15  C   UNL     1      32.219  -8.129 -23.001  0.00  0.00    +0.000 C 
ENDBRANCH   5   7
BRANCH   3  18
ATOM     16  O   UNL     1      35.610 -15.397 -23.903  0.00  0.00    -0.271 OA
ATOM     17  N   UNL     1      34.343 -16.655 -22.412  0.00  0.00    -0.297 N 
ATOM     18  C   UNL     1      34.590 -15.579 -23.243  0.00  0.00    +0.262 C 
ATOM     19  H   UNL     1      33.483 -16.689 -21.932  0.00  0.00    +0.150 HD
BRANCH  17  22
ATOM     20  O   UNL     1      35.627 -19.994 -21.882  0.00  0.00    -0.426 OA
ATOM     21  O   UNL     1      36.759 -19.900 -19.887  0.00  0.00    -0.250 OA
ATOM     22  C   UNL     1      35.279 -17.725 -22.215  0.00  0.00    +0.150 C 
ATOM     23  C   UNL     1      34.765 -19.103 -22.612  0.00  0.00    +0.279 C 
ATOM     24  C   UNL     1      35.645 -17.931 -20.759  0.00  0.00    +0.135 C 
ATOM     25  C   UNL     1      36.095 -19.363 -20.760  0.00  0.00    +0.321 C 
BRANCH  23  27
ATOM     26  F   UNL     1      33.801 -18.851 -24.716  0.00  0.00    -0.227 F 
ATOM     27  C   UNL     1      34.887 -19.378 -24.104  0.00  0.00    +0.264 C 
ENDBRANCH  23  27
BRANCH  23  28
ATOM     28  O   UNL     1      33.413 -19.272 -22.188  0.00  0.00    -0.351 OA
ATOM     29  H   UNL     1      33.398 -19.676 -21.307  0.00  0.00    +0.214 HD
ENDBRANCH  23  28
ENDBRANCH  17  22
ENDBRANCH   3  18
BRANCH   3  30
ATOM     30  C   UNL     1      32.959 -14.455 -24.723  0.00  0.00    +0.048 C 
ATOM     31  C   UNL     1      33.487 -13.152 -25.325  0.00  0.00    +0.004 C 
ATOM     32  C   UNL     1      33.384 -15.648 -25.580  0.00  0.00    +0.004 C 
ENDBRANCH   3  30
TORSDOF 6
ENDMDL
MODEL 6
REMARK VINA RESULT:      -9.5      3.808      6.737
REMARK  Name = 11633038
REMARK  6 active torsions:
REMARK  status: ('A' for Active; 'I' for Inactive)
REMARK    1  A    between atoms: C_3  and  C_18
REMARK    2  A    between atoms: C_3  and  C_30
REMARK    3  A    between atoms: C_5  and  C_7
REMARK    4  A    between atoms: N_17  and  C_22
REMARK    5  A    between atoms: C_23  and  C_27
REMARK    6  A    between atoms: C_23  and  O_28
REMARK                            x       y       z     vdW  Elec       q    Type
REMARK                         _______ _______ _______ _____ _____    ______ ____
ROOT
ATOM      1  O   UNL     1      33.439  -9.150 -22.788  0.00  0.00    -0.376 OA
ATOM      2  N   UNL     1      33.477  -7.800 -23.207  0.00  0.00    -0.086 NA
ATOM      3  C   UNL     1      32.212  -9.373 -22.089  0.00  0.00    +0.234 C 
ATOM      4  C   UNL     1      31.274  -8.281 -22.554  0.00  0.00    +0.102 C 
ATOM      5  C   UNL     1      32.284  -7.316 -23.074  0.00  0.00    +0.119 C 
ENDROOT
BRANCH   5   7
ATOM      6  N   UNL     1      31.111  -5.328 -22.527  0.00  0.00    -0.243 NA
ATOM      7  C   UNL     1      31.929  -5.924 -23.428  0.00  0.00    +0.098 C 
ATOM      8  C   UNL     1      32.402  -5.297 -24.587  0.00  0.00    +0.019 C 
ATOM      9  C   UNL     1      32.000  -3.967 -24.825  0.00  0.00    +0.003 C 
ATOM     10  C   UNL     1      33.251  -5.944 -25.500  0.00  0.00    +0.002 C 
ATOM     11  C   UNL     1      31.155  -3.339 -23.902  0.00  0.00    +0.021 C 
ATOM     12  C   UNL     1      30.745  -4.055 -22.787  0.00  0.00    +0.099 C 
ATOM     13  C   UNL     1      32.458  -3.309 -25.978  0.00  0.00    +0.000 C 
ATOM     14  C   UNL     1      33.696  -5.276 -26.642  0.00  0.00    +0.000 C 
ATOM     15  C   UNL     1      33.301  -3.962 -26.880  0.00  0.00    +0.000 C 
ENDBRANCH   5   7
BRANCH   3  18
ATOM     16  O   UNL     1      30.571 -11.080 -22.389  0.00  0.00    -0.271 OA
ATOM     17  N   UNL     1      32.770 -11.504 -23.020  0.00  0.00    -0.297 N 
ATOM     18  C   UNL     1      31.742 -10.731 -22.514  0.00  0.00    +0.262 C 
ATOM     19  H   UNL     1      33.672 -11.111 -23.071  0.00  0.00    +0.150 HD
BRANCH  17  22
ATOM     20  O   UNL     1      33.354 -15.041 -23.495  0.00  0.00    -0.426 OA
ATOM     21  O   UNL     1      33.611 -15.315 -25.760  0.00  0.00    -0.250 OA
ATOM     22  C   UNL     1      32.585 -12.852 -23.475  0.00  0.00    +0.150 C 
ATOM     23  C   UNL     1      33.249 -13.914 -22.607  0.00  0.00    +0.279 C 
ATOM     24  C   UNL     1      33.214 -13.112 -24.829  0.00  0.00    +0.135 C 
ATOM     25  C   UNL     1      33.409 -14.600 -24.792  0.00  0.00    +0.321 C 
BRANCH  23  27
ATOM     26  F   UNL     1      32.690 -13.409 -20.405  0.00  0.00    -0.227 F 
ATOM     27  C   UNL     1      32.418 -14.295 -21.390  0.00  0.00    +0.264 C 
ENDBRANCH  23  27
BRANCH  23  28
ATOM     28  O   UNL     1      34.549 -13.486 -22.202  0.00  0.00    -0.351 OA
ATOM     29  H   UNL     1      34.493 -13.057 -21.334  0.00  0.00    +0.214 HD
ENDBRANCH  23  28
ENDBRANCH  17  22
ENDBRANCH   3  18
BRANCH   3  30
ATOM     30  C   UNL     1      32.474  -9.362 -20.589  0.00  0.00    +0.048 C 
ATOM     31  C   UNL     1      32.290  -7.957 -20.015  0.00  0.00    +0.004 C 
ATOM     32  C   UNL     1      31.559 -10.355 -19.869  0.00  0.00    +0.004 C 
ENDBRANCH   3  30
TORSDOF 6
ENDMDL
MODEL 7
REMARK VINA RESULT:      -9.4      7.666     11.226
REMARK  Name = 11633038
REMARK  6 active torsions:
REMARK  status: ('A' for Active; 'I' for Inactive)
REMARK    1  A    between atoms: C_3  and  C_18
REMARK    2  A    between atoms: C_3  and  C_30
REMARK    3  A    between atoms: C_5  and  C_7
REMARK    4  A    between atoms: N_17  and  C_22
REMARK    5  A    between atoms: C_23  and  C_27
REMARK    6  A    between atoms: C_23  and  O_28
REMARK                            x       y       z     vdW  Elec       q    Type
REMARK                         _______ _______ _______ _____ _____    ______ ____
ROOT
ATOM      1  O   UNL     1      36.433 -22.265 -16.098  0.00  0.00    -0.376 OA
ATOM      2  N   UNL     1      36.100 -21.396 -17.162  0.00  0.00    -0.086 NA
ATOM      3  C   UNL     1      35.387 -23.230 -15.957  0.00  0.00    +0.234 C 
ATOM      4  C   UNL     1      34.676 -23.258 -17.292  0.00  0.00    +0.102 C 
ATOM      5  C   UNL     1      35.127 -21.939 -17.820  0.00  0.00    +0.119 C 
ENDROOT
BRANCH   5   7
ATOM      6  N   UNL     1      33.191 -21.580 -19.143  0.00  0.00    -0.243 NA
ATOM      7  C   UNL     1      34.515 -21.323 -19.019  0.00  0.00    +0.098 C 
ATOM      8  C   UNL     1      35.249 -20.551 -19.927  0.00  0.00    +0.019 C 
ATOM      9  C   UNL     1      34.564 -20.012 -21.035  0.00  0.00    +0.003 C 
ATOM     10  C   UNL     1      36.623 -20.304 -19.768  0.00  0.00    +0.002 C 
ATOM     11  C   UNL     1      33.195 -20.270 -21.176  0.00  0.00    +0.021 C 
ATOM     12  C   UNL     1      32.567 -21.049 -20.215  0.00  0.00    +0.099 C 
ATOM     13  C   UNL     1      35.271 -19.233 -21.965  0.00  0.00    +0.000 C 
ATOM     14  C   UNL     1      37.311 -19.528 -20.702  0.00  0.00    +0.000 C 
ATOM     15  C   UNL     1      36.636 -18.994 -21.797  0.00  0.00    +0.000 C 
ENDBRANCH   5   7
BRANCH   3  18
ATOM     16  O   UNL     1      35.514 -25.610 -15.848  0.00  0.00    -0.271 OA
ATOM     17  N   UNL     1      37.341 -24.348 -15.151  0.00  0.00    -0.297 N 
ATOM     18  C   UNL     1      36.069 -24.530 -15.661  0.00  0.00    +0.262 C 
ATOM     19  H   UNL     1      37.677 -23.428 -15.047  0.00  0.00    +0.150 HD
BRANCH  17  22
ATOM     20  O   UNL     1      39.639 -26.335 -13.189  0.00  0.00    -0.426 OA
ATOM     21  O   UNL     1      41.503 -26.584 -14.506  0.00  0.00    -0.250 OA
ATOM     22  C   UNL     1      38.193 -25.436 -14.765  0.00  0.00    +0.150 C 
ATOM     23  C   UNL     1      38.429 -25.560 -13.265  0.00  0.00    +0.279 C 
ATOM     24  C   UNL     1      39.605 -25.300 -15.297  0.00  0.00    +0.135 C 
ATOM     25  C   UNL     1      40.378 -26.145 -14.327  0.00  0.00    +0.321 C 
BRANCH  23  27
ATOM     26  F   UNL     1      36.853 -27.270 -13.357  0.00  0.00    -0.227 F 
ATOM     27  C   UNL     1      37.305 -26.289 -12.542  0.00  0.00    +0.264 C 
ENDBRANCH  23  27
BRANCH  23  28
ATOM     28  O   UNL     1      38.635 -24.272 -12.685  0.00  0.00    -0.351 OA
ATOM     29  H   UNL     1      39.074 -23.694 -13.327  0.00  0.00    +0.214 HD
ENDBRANCH  23  28
ENDBRANCH  17  22
ENDBRANCH   3  18
BRANCH   3  30
ATOM     30  C   UNL     1      34.490 -22.839 -14.790  0.00  0.00    +0.048 C 
ATOM     31  C   UNL     1      33.029 -23.179 -15.089  0.00  0.00    +0.004 C 
ATOM     32  C   UNL     1      34.943 -23.526 -13.501  0.00  0.00    +0.004 C 
ENDBRANCH   3  30
TORSDOF 6
ENDMDL
MODEL 8
REMARK VINA RESULT:      -9.4      4.045      9.183
REMARK  Name = 11633038
REMARK  6 active torsions:
REMARK  status: ('A' for Active; 'I' for Inactive)
REMARK    1  A    between atoms: C_3  and  C_18
REMARK    2  A    between atoms: C_3  and  C_30
REMARK    3  A    between atoms: C_5  and  C_7
REMARK    4  A    between atoms: N_17  and  C_22
REMARK    5  A    between atoms: C_23  and  C_27
REMARK    6  A    between atoms: C_23  and  O_28
REMARK                            x       y       z     vdW  Elec       q    Type
REMARK                         _______ _______ _______ _____ _____    ______ ____
ROOT
ATOM      1  O   UNL     1      31.675 -12.714 -23.348  0.00  0.00    -0.376 OA
ATOM      2  N   UNL     1      32.046 -14.064 -23.153  0.00  0.00    -0.086 NA
ATOM      3  C   UNL     1      32.557 -11.886 -22.586  0.00  0.00    +0.234 C 
ATOM      4  C   UNL     1      33.797 -12.719 -22.352  0.00  0.00    +0.102 C 
ATOM      5  C   UNL     1      33.216 -14.070 -22.599  0.00  0.00    +0.119 C 
ENDROOT
BRANCH   5   7
ATOM      6  N   UNL     1      34.277 -15.395 -20.942  0.00  0.00    -0.243 NA
ATOM      7  C   UNL     1      33.943 -15.311 -22.252  0.00  0.00    +0.098 C 
ATOM      8  C   UNL     1      34.249 -16.295 -23.200  0.00  0.00    +0.019 C 
ATOM      9  C   UNL     1      34.945 -17.439 -22.759  0.00  0.00    +0.003 C 
ATOM     10  C   UNL     1      33.887 -16.177 -24.553  0.00  0.00    +0.002 C 
ATOM     11  C   UNL     1      35.297 -17.539 -21.407  0.00  0.00    +0.021 C 
ATOM     12  C   UNL     1      34.944 -16.503 -20.554  0.00  0.00    +0.099 C 
ATOM     13  C   UNL     1      35.267 -18.445 -23.685  0.00  0.00    +0.000 C 
ATOM     14  C   UNL     1      34.215 -17.185 -25.460  0.00  0.00    +0.000 C 
ATOM     15  C   UNL     1      34.902 -18.316 -25.027  0.00  0.00    +0.000 C 
ENDBRANCH   5   7
BRANCH   3  18
ATOM     16  O   UNL     1      33.632 -10.744 -24.385  0.00  0.00    -0.271 OA
ATOM     17  N   UNL     1      32.136  -9.576 -23.038  0.00  0.00    -0.297 N 
ATOM     18  C   UNL     1      32.840 -10.693 -23.447  0.00  0.00    +0.262 C 
ATOM     19  H   UNL     1      31.527  -9.660 -22.269  0.00  0.00    +0.150 HD
BRANCH  17  22
ATOM     20  O   UNL     1      32.729  -6.037 -23.493  0.00  0.00    -0.426 OA
ATOM     21  O   UNL     1      30.734  -5.179 -24.239  0.00  0.00    -0.250 OA
ATOM     22  C   UNL     1      32.249  -8.299 -23.684  0.00  0.00    +0.150 C 
ATOM     23  C   UNL     1      33.167  -7.308 -22.979  0.00  0.00    +0.279 C 
ATOM     24  C   UNL     1      30.938  -7.540 -23.730  0.00  0.00    +0.135 C 
ATOM     25  C   UNL     1      31.414  -6.123 -23.870  0.00  0.00    +0.321 C 
BRANCH  23  27
ATOM     26  F   UNL     1      34.961  -6.675 -24.320  0.00  0.00    -0.227 F 
ATOM     27  C   UNL     1      34.638  -7.517 -23.311  0.00  0.00    +0.264 C 
ENDBRANCH  23  27
BRANCH  23  28
ATOM     28  O   UNL     1      32.967  -7.361 -21.567  0.00  0.00    -0.351 OA
ATOM     29  H   UNL     1      33.278  -6.535 -21.165  0.00  0.00    +0.214 HD
ENDBRANCH  23  28
ENDBRANCH  17  22
ENDBRANCH   3  18
BRANCH   3  30
ATOM     30  C   UNL     1      31.860 -11.446 -21.305  0.00  0.00    +0.048 C 
ATOM     31  C   UNL     1      30.345 -11.375 -21.507  0.00  0.00    +0.004 C 
ATOM     32  C   UNL     1      32.199 -12.389 -20.150  0.00  0.00    +0.004 C 
ENDBRANCH   3  30
TORSDOF 6
ENDMDL
MODEL 9
REMARK VINA RESULT:      -9.4      1.843      2.460
REMARK  Name = 11633038
REMARK  6 active torsions:
REMARK  status: ('A' for Active; 'I' for Inactive)
REMARK    1  A    between atoms: C_3  and  C_18
REMARK    2  A    between atoms: C_3  and  C_30
REMARK    3  A    between atoms: C_5  and  C_7
REMARK    4  A    between atoms: N_17  and  C_22
REMARK    5  A    between atoms: C_23  and  C_27
REMARK    6  A    between atoms: C_23  and  O_28
REMARK                            x       y       z     vdW  Elec       q    Type
REMARK                         _______ _______ _______ _____ _____    ______ ____
ROOT
ATOM      1  O   UNL     1      32.526 -14.899 -23.028  0.00  0.00    -0.376 OA
ATOM      2  N   UNL     1      32.028 -13.672 -22.535  0.00  0.00    -0.086 NA
ATOM      3  C   UNL     1      33.472 -14.621 -24.064  0.00  0.00    +0.234 C 
ATOM      4  C   UNL     1      33.933 -13.201 -23.824  0.00  0.00    +0.102 C 
ATOM      5  C   UNL     1      32.800 -12.731 -22.976  0.00  0.00    +0.119 C 
ENDROOT
BRANCH   5   7
ATOM      6  N   UNL     1      32.874 -10.470 -23.692  0.00  0.00    -0.243 NA
ATOM      7  C   UNL     1      32.602 -11.300 -22.656  0.00  0.00    +0.098 C 
ATOM      8  C   UNL     1      32.172 -10.863 -21.397  0.00  0.00    +0.019 C 
ATOM      9  C   UNL     1      32.016  -9.475 -21.203  0.00  0.00    +0.003 C 
ATOM     10  C   UNL     1      31.898 -11.751 -20.344  0.00  0.00    +0.002 C 
ATOM     11  C   UNL     1      32.294  -8.606 -22.264  0.00  0.00    +0.021 C 
ATOM     12  C   UNL     1      32.714  -9.149 -23.470  0.00  0.00    +0.099 C 
ATOM     13  C   UNL     1      31.586  -9.003 -19.951  0.00  0.00    +0.000 C 
ATOM     14  C   UNL     1      31.473 -11.266 -19.107  0.00  0.00    +0.000 C 
ATOM     15  C   UNL     1      31.317  -9.896 -18.912  0.00  0.00    +0.000 C 
ENDBRANCH   5   7
BRANCH   3  18
ATOM     16  O   UNL     1      35.595 -15.585 -24.573  0.00  0.00    -0.271 OA
ATOM     17  N   UNL     1      34.310 -16.518 -22.873  0.00  0.00    -0.297 N 
ATOM     18  C   UNL     1      34.583 -15.608 -23.877  0.00  0.00    +0.262 C 
ATOM     19  H   UNL     1      33.460 -16.432 -22.381  0.00  0.00    +0.150 HD
BRANCH  17  22
ATOM     20  O   UNL     1      35.476 -19.811 -21.940  0.00  0.00    -0.426 OA
ATOM     21  O   UNL     1      36.479 -19.543 -19.893  0.00  0.00    -0.250 OA
ATOM     22  C   UNL     1      35.205 -17.579 -22.512  0.00  0.00    +0.150 C 
ATOM     23  C   UNL     1      34.684 -18.980 -22.808  0.00  0.00    +0.279 C 
ATOM     24  C   UNL     1      35.472 -17.649 -21.022  0.00  0.00    +0.135 C 
ATOM     25  C   UNL     1      35.887 -19.082 -20.856  0.00  0.00    +0.321 C 
BRANCH  23  27
ATOM     26  F   UNL     1      33.774 -19.092 -24.947  0.00  0.00    -0.227 F 
ATOM     27  C   UNL     1      34.895 -19.401 -24.256  0.00  0.00    +0.264 C 
ENDBRANCH  23  27
BRANCH  23  28
ATOM     28  O   UNL     1      33.304 -19.083 -22.460  0.00  0.00    -0.351 OA
ATOM     29  H   UNL     1      33.104 -18.460 -21.744  0.00  0.00    +0.214 HD
ENDBRANCH  23  28
ENDBRANCH  17  22
ENDBRANCH   3  18
BRANCH   3  30
ATOM     30  C   UNL     1      32.814 -14.834 -25.422  0.00  0.00    +0.048 C 
ATOM     31  C   UNL     1      33.176 -13.702 -26.384  0.00  0.00    +0.004 C 
ATOM     32  C   UNL     1      33.216 -16.185 -26.015  0.00  0.00    +0.004 C 
ENDBRANCH   3  30
TORSDOF 6
ENDMDL
