MODEL 1
REMARK VINA RESULT:      -6.1      0.000      0.000
REMARK  Name = 445564
REMARK  6 active torsions:
REMARK  status: ('A' for Active; 'I' for Inactive)
REMARK    1  A    between atoms: C_2  and  S_7
REMARK    2  A    between atoms: C_3  and  O_9
REMARK    3  A    between atoms: C_4  and  C_15
REMARK    4  A    between atoms: C_5  and  O_11
REMARK    5  A    between atoms: C_6  and  O_13
REMARK    6  A    between atoms: C_15  and  O_16
REMARK                            x       y       z     vdW  Elec       q    Type
REMARK                         _______ _______ _______ _____ _____    ______ ____
ROOT
ATOM      1  O   UNL     1      35.809 -25.615 -14.960  0.00  0.00    -0.328 OA
ATOM      2  C   UNL     1      37.022 -24.233 -13.371  0.00  0.00    +0.103 C 
ATOM      3  C   UNL     1      38.222 -25.189 -13.460  0.00  0.00    +0.154 C 
ATOM      4  C   UNL     1      35.708 -24.973 -13.681  0.00  0.00    +0.159 C 
ATOM      5  C   UNL     1      38.188 -25.994 -14.761  0.00  0.00    +0.195 C 
ATOM      6  C   UNL     1      36.817 -26.620 -14.998  0.00  0.00    +0.262 C 
ENDROOT
BRANCH   2   7
ATOM      7  S   UNL     1      36.982 -23.458 -11.710  0.00  0.00    -0.164 S 
ATOM      8  H   UNL     1      35.693 -23.214 -11.354  0.00  0.00    +0.102 HD
ENDBRANCH   2   7
BRANCH   3   9
ATOM      9  O   UNL     1      39.433 -24.431 -13.431  0.00  0.00    -0.381 OA
ATOM     10  H   UNL     1      40.141 -24.970 -13.046  0.00  0.00    +0.210 HD
ENDBRANCH   3   9
BRANCH   5  11
ATOM     11  O   UNL     1      39.178 -27.021 -14.703  0.00  0.00    -0.378 OA
ATOM     12  H   UNL     1      38.767 -27.850 -14.411  0.00  0.00    +0.211 HD
ENDBRANCH   5  11
BRANCH   6  13
ATOM     13  O   UNL     1      36.832 -27.240 -16.283  0.00  0.00    -0.358 OA
ATOM     14  H   UNL     1      37.741 -27.261 -16.621  0.00  0.00    +0.213 HD
ENDBRANCH   6  13
BRANCH   4  15
ATOM     15  C   UNL     1      34.499 -24.044 -13.770  0.00  0.00    +0.168 C 
BRANCH  15  16
ATOM     16  O   UNL     1      33.421 -24.645 -13.077  0.00  0.00    -0.379 OA
ATOM     17  H   UNL     1      33.475 -25.609 -13.170  0.00  0.00    +0.211 HD
ENDBRANCH  15  16
ENDBRANCH   4  15
TORSDOF 6
ENDMDL
MODEL 2
REMARK VINA RESULT:      -6.1      2.724      4.449
REMARK  Name = 445564
REMARK  6 active torsions:
REMARK  status: ('A' for Active; 'I' for Inactive)
REMARK    1  A    between atoms: C_2  and  S_7
REMARK    2  A    between atoms: C_3  and  O_9
REMARK    3  A    between atoms: C_4  and  C_15
REMARK    4  A    between atoms: C_5  and  O_11
REMARK    5  A    between atoms: C_6  and  O_13
REMARK    6  A    between atoms: C_15  and  O_16
REMARK                            x       y       z     vdW  Elec       q    Type
REMARK                         _______ _______ _______ _____ _____    ______ ____
ROOT
ATOM      1  O   UNL     1      37.665 -23.741 -13.376  0.00  0.00    -0.328 OA
ATOM      2  C   UNL     1      35.426 -23.396 -14.254  0.00  0.00    +0.103 C 
ATOM      3  C   UNL     1      34.841 -24.153 -13.052  0.00  0.00    +0.154 C 
ATOM      4  C   UNL     1      36.859 -23.870 -14.555  0.00  0.00    +0.159 C 
ATOM      5  C   UNL     1      35.817 -24.151 -11.873  0.00  0.00    +0.195 C 
ATOM      6  C   UNL     1      37.220 -24.568 -12.305  0.00  0.00    +0.262 C 
ENDROOT
BRANCH   2   7
ATOM      7  S   UNL     1      34.326 -23.613 -15.704  0.00  0.00    -0.164 S 
ATOM      8  H   UNL     1      33.173 -24.216 -15.313  0.00  0.00    +0.102 HD
ENDBRANCH   2   7
BRANCH   3   9
ATOM      9  O   UNL     1      33.632 -23.515 -12.635  0.00  0.00    -0.381 OA
ATOM     10  H   UNL     1      33.124 -24.122 -12.074  0.00  0.00    +0.210 HD
ENDBRANCH   3   9
BRANCH   5  11
ATOM     11  O   UNL     1      35.342 -25.047 -10.868  0.00  0.00    -0.378 OA
ATOM     12  H   UNL     1      35.479 -24.654  -9.992  0.00  0.00    +0.211 HD
ENDBRANCH   5  11
BRANCH   6  13
ATOM     13  O   UNL     1      38.089 -24.417 -11.184  0.00  0.00    -0.358 OA
ATOM     14  H   UNL     1      38.629 -25.217 -11.084  0.00  0.00    +0.213 HD
ENDBRANCH   6  13
BRANCH   4  15
ATOM     15  C   UNL     1      37.554 -23.042 -15.634  0.00  0.00    +0.168 C 
BRANCH  15  16
ATOM     16  O   UNL     1      38.843 -23.584 -15.854  0.00  0.00    -0.379 OA
ATOM     17  H   UNL     1      38.970 -24.356 -15.280  0.00  0.00    +0.211 HD
ENDBRANCH  15  16
ENDBRANCH   4  15
TORSDOF 6
ENDMDL
MODEL 3
REMARK VINA RESULT:      -6.0      2.281      4.729
REMARK  Name = 445564
REMARK  6 active torsions:
REMARK  status: ('A' for Active; 'I' for Inactive)
REMARK    1  A    between atoms: C_2  and  S_7
REMARK    2  A    between atoms: C_3  and  O_9
REMARK    3  A    between atoms: C_4  and  C_15
REMARK    4  A    between atoms: C_5  and  O_11
REMARK    5  A    between atoms: C_6  and  O_13
REMARK    6  A    between atoms: C_15  and  O_16
REMARK                            x       y       z     vdW  Elec       q    Type
REMARK                         _______ _______ _______ _____ _____    ______ ____
ROOT
ATOM      1  O   UNL     1      38.353 -23.794 -12.818  0.00  0.00    -0.328 OA
ATOM      2  C   UNL     1      37.034 -25.171 -14.324  0.00  0.00    +0.103 C 
ATOM      3  C   UNL     1      35.788 -24.917 -13.462  0.00  0.00    +0.154 C 
ATOM      4  C   UNL     1      38.316 -25.067 -13.479  0.00  0.00    +0.159 C 
ATOM      5  C   UNL     1      35.948 -23.643 -12.629  0.00  0.00    +0.195 C 
ATOM      6  C   UNL     1      37.285 -23.618 -11.893  0.00  0.00    +0.262 C 
ENDROOT
BRANCH   2   7
ATOM      7  S   UNL     1      36.892 -26.811 -15.132  0.00  0.00    -0.164 S 
ATOM      8  H   UNL     1      37.630 -26.820 -16.273  0.00  0.00    +0.102 HD
ENDBRANCH   2   7
BRANCH   3   9
ATOM      9  O   UNL     1      34.650 -24.758 -14.312  0.00  0.00    -0.381 OA
ATOM     10  H   UNL     1      34.888 -25.006 -15.219  0.00  0.00    +0.210 HD
ENDBRANCH   3   9
BRANCH   5  11
ATOM     11  O   UNL     1      34.881 -23.565 -11.682  0.00  0.00    -0.378 OA
ATOM     12  H   UNL     1      34.587 -22.644 -11.602  0.00  0.00    +0.211 HD
ENDBRANCH   5  11
BRANCH   6  13
ATOM     13  O   UNL     1      37.408 -22.352 -11.247  0.00  0.00    -0.358 OA
ATOM     14  H   UNL     1      36.813 -22.320 -10.482  0.00  0.00    +0.213 HD
ENDBRANCH   6  13
BRANCH   4  15
ATOM     15  C   UNL     1      39.595 -25.148 -14.310  0.00  0.00    +0.168 C 
BRANCH  15  16
ATOM     16  O   UNL     1      39.452 -24.301 -15.435  0.00  0.00    -0.379 OA
ATOM     17  H   UNL     1      40.193 -23.676 -15.465  0.00  0.00    +0.211 HD
ENDBRANCH  15  16
ENDBRANCH   4  15
TORSDOF 6
ENDMDL
MODEL 4
REMARK VINA RESULT:      -5.9      2.798      3.669
REMARK  Name = 445564
REMARK  6 active torsions:
REMARK  status: ('A' for Active; 'I' for Inactive)
REMARK    1  A    between atoms: C_2  and  S_7
REMARK    2  A    between atoms: C_3  and  O_9
REMARK    3  A    between atoms: C_4  and  C_15
REMARK    4  A    between atoms: C_5  and  O_11
REMARK    5  A    between atoms: C_6  and  O_13
REMARK    6  A    between atoms: C_15  and  O_16
REMARK                            x       y       z     vdW  Elec       q    Type
REMARK                         _______ _______ _______ _____ _____    ______ ____
ROOT
ATOM      1  O   UNL     1      34.494 -24.539 -12.128  0.00  0.00    -0.328 OA
ATOM      2  C   UNL     1      35.669 -23.924 -14.165  0.00  0.00    +0.103 C 
ATOM      3  C   UNL     1      36.814 -23.340 -13.325  0.00  0.00    +0.154 C 
ATOM      4  C   UNL     1      34.340 -23.873 -13.390  0.00  0.00    +0.159 C 
ATOM      5  C   UNL     1      36.827 -23.943 -11.918  0.00  0.00    +0.195 C 
ATOM      6  C   UNL     1      35.442 -23.902 -11.278  0.00  0.00    +0.262 C 
ENDROOT
BRANCH   2   7
ATOM      7  S   UNL     1      35.556 -23.019 -15.755  0.00  0.00    -0.164 S 
ATOM      8  H   UNL     1      34.328 -23.217 -16.303  0.00  0.00    +0.102 HD
ENDBRANCH   2   7
BRANCH   3   9
ATOM      9  O   UNL     1      38.062 -23.640 -13.953  0.00  0.00    -0.381 OA
ATOM     10  H   UNL     1      38.790 -23.353 -13.379  0.00  0.00    +0.210 HD
ENDBRANCH   3   9
BRANCH   5  11
ATOM     11  O   UNL     1      37.749 -23.217 -11.104  0.00  0.00    -0.378 OA
ATOM     12  H   UNL     1      37.261 -22.688 -10.454  0.00  0.00    +0.211 HD
ENDBRANCH   5  11
BRANCH   6  13
ATOM     13  O   UNL     1      35.513 -24.592 -10.031  0.00  0.00    -0.358 OA
ATOM     14  H   UNL     1      34.627 -24.899  -9.780  0.00  0.00    +0.213 HD
ENDBRANCH   6  13
BRANCH   4  15
ATOM     15  C   UNL     1      33.196 -24.588 -14.107  0.00  0.00    +0.168 C 
BRANCH  15  16
ATOM     16  O   UNL     1      32.365 -25.192 -13.132  0.00  0.00    -0.379 OA
ATOM     17  H   UNL     1      31.444 -24.924 -13.282  0.00  0.00    +0.211 HD
ENDBRANCH  15  16
ENDBRANCH   4  15
TORSDOF 6
ENDMDL
MODEL 5
REMARK VINA RESULT:      -5.8     14.037     14.693
REMARK  Name = 445564
REMARK  6 active torsions:
REMARK  status: ('A' for Active; 'I' for Inactive)
REMARK    1  A    between atoms: C_2  and  S_7
REMARK    2  A    between atoms: C_3  and  O_9
REMARK    3  A    between atoms: C_4  and  C_15
REMARK    4  A    between atoms: C_5  and  O_11
REMARK    5  A    between atoms: C_6  and  O_13
REMARK    6  A    between atoms: C_15  and  O_16
REMARK                            x       y       z     vdW  Elec       q    Type
REMARK                         _______ _______ _______ _____ _____    ______ ____
ROOT
ATOM      1  O   UNL     1      33.240 -14.097 -24.897  0.00  0.00    -0.328 OA
ATOM      2  C   UNL     1      34.391 -14.870 -22.902  0.00  0.00    +0.103 C 
ATOM      3  C   UNL     1      34.633 -16.231 -23.572  0.00  0.00    +0.154 C 
ATOM      4  C   UNL     1      33.129 -14.197 -23.471  0.00  0.00    +0.159 C 
ATOM      5  C   UNL     1      34.556 -16.115 -25.096  0.00  0.00    +0.195 C 
ATOM      6  C   UNL     1      33.302 -15.367 -25.539  0.00  0.00    +0.262 C 
ENDROOT
BRANCH   2   7
ATOM      7  S   UNL     1      34.272 -15.098 -21.087  0.00  0.00    -0.164 S 
ATOM      8  H   UNL     1      34.112 -16.418 -20.804  0.00  0.00    +0.102 HD
ENDBRANCH   2   7
BRANCH   3   9
ATOM      9  O   UNL     1      35.936 -16.704 -23.223  0.00  0.00    -0.381 OA
ATOM     10  H   UNL     1      35.927 -17.674 -23.184  0.00  0.00    +0.210 HD
ENDBRANCH   3   9
BRANCH   5  11
ATOM     11  O   UNL     1      34.558 -17.423 -25.668  0.00  0.00    -0.378 OA
ATOM     12  H   UNL     1      34.137 -17.395 -26.542  0.00  0.00    +0.211 HD
ENDBRANCH   5  11
BRANCH   6  13
ATOM     13  O   UNL     1      33.369 -15.191 -26.953  0.00  0.00    -0.358 OA
ATOM     14  H   UNL     1      32.471 -15.138 -27.316  0.00  0.00    +0.213 HD
ENDBRANCH   6  13
BRANCH   4  15
ATOM     15  C   UNL     1      32.926 -12.770 -22.963  0.00  0.00    +0.168 C 
BRANCH  15  16
ATOM     16  O   UNL     1      31.625 -12.672 -22.414  0.00  0.00    -0.379 OA
ATOM     17  H   UNL     1      31.670 -12.786 -21.452  0.00  0.00    +0.211 HD
ENDBRANCH  15  16
ENDBRANCH   4  15
TORSDOF 6
ENDMDL
MODEL 6
REMARK VINA RESULT:      -5.7     12.627     13.314
REMARK  Name = 445564
REMARK  6 active torsions:
REMARK  status: ('A' for Active; 'I' for Inactive)
REMARK    1  A    between atoms: C_2  and  S_7
REMARK    2  A    between atoms: C_3  and  O_9
REMARK    3  A    between atoms: C_4  and  C_15
REMARK    4  A    between atoms: C_5  and  O_11
REMARK    5  A    between atoms: C_6  and  O_13
REMARK    6  A    between atoms: C_15  and  O_16
REMARK                            x       y       z     vdW  Elec       q    Type
REMARK                         _______ _______ _______ _____ _____    ______ ____
ROOT
ATOM      1  O   UNL     1      34.810 -16.569 -24.158  0.00  0.00    -0.328 OA
ATOM      2  C   UNL     1      33.992 -14.856 -22.641  0.00  0.00    +0.103 C 
ATOM      3  C   UNL     1      34.293 -15.775 -21.447  0.00  0.00    +0.154 C 
ATOM      4  C   UNL     1      33.711 -15.682 -23.909  0.00  0.00    +0.159 C 
ATOM      5  C   UNL     1      35.339 -16.830 -21.814  0.00  0.00    +0.195 C 
ATOM      6  C   UNL     1      34.992 -17.531 -23.124  0.00  0.00    +0.262 C 
ENDROOT
BRANCH   2   7
ATOM      7  S   UNL     1      32.584 -13.758 -22.226  0.00  0.00    -0.164 S 
ATOM      8  H   UNL     1      31.756 -14.392 -21.354  0.00  0.00    +0.102 HD
ENDBRANCH   2   7
BRANCH   3   9
ATOM      9  O   UNL     1      34.805 -14.992 -20.366  0.00  0.00    -0.381 OA
ATOM     10  H   UNL     1      34.468 -14.085 -20.436  0.00  0.00    +0.210 HD
ENDBRANCH   3   9
BRANCH   5  11
ATOM     11  O   UNL     1      35.421 -17.795 -20.765  0.00  0.00    -0.378 OA
ATOM     12  H   UNL     1      36.294 -18.218 -20.782  0.00  0.00    +0.211 HD
ENDBRANCH   5  11
BRANCH   6  13
ATOM     13  O   UNL     1      36.072 -18.401 -23.458  0.00  0.00    -0.358 OA
ATOM     14  H   UNL     1      36.901 -17.898 -23.468  0.00  0.00    +0.213 HD
ENDBRANCH   6  13
BRANCH   4  15
ATOM     15  C   UNL     1      33.567 -14.825 -25.166  0.00  0.00    +0.168 C 
BRANCH  15  16
ATOM     16  O   UNL     1      33.722 -15.662 -26.297  0.00  0.00    -0.379 OA
ATOM     17  H   UNL     1      32.869 -16.070 -26.516  0.00  0.00    +0.211 HD
ENDBRANCH  15  16
ENDBRANCH   4  15
TORSDOF 6
ENDMDL
MODEL 7
REMARK VINA RESULT:      -5.6      1.823      3.127
REMARK  Name = 445564
REMARK  6 active torsions:
REMARK  status: ('A' for Active; 'I' for Inactive)
REMARK    1  A    between atoms: C_2  and  S_7
REMARK    2  A    between atoms: C_3  and  O_9
REMARK    3  A    between atoms: C_4  and  C_15
REMARK    4  A    between atoms: C_5  and  O_11
REMARK    5  A    between atoms: C_6  and  O_13
REMARK    6  A    between atoms: C_15  and  O_16
REMARK                            x       y       z     vdW  Elec       q    Type
REMARK                         _______ _______ _______ _____ _____    ______ ____
ROOT
ATOM      1  O   UNL     1      38.610 -24.163 -12.748  0.00  0.00    -0.328 OA
ATOM      2  C   UNL     1      36.308 -24.790 -13.212  0.00  0.00    +0.103 C 
ATOM      3  C   UNL     1      36.764 -25.503 -14.494  0.00  0.00    +0.154 C 
ATOM      4  C   UNL     1      37.275 -23.649 -12.847  0.00  0.00    +0.159 C 
ATOM      5  C   UNL     1      38.248 -25.868 -14.423  0.00  0.00    +0.195 C 
ATOM      6  C   UNL     1      39.098 -24.680 -13.982  0.00  0.00    +0.262 C 
ENDROOT
BRANCH   2   7
ATOM      7  S   UNL     1      34.595 -24.178 -13.430  0.00  0.00    -0.164 S 
ATOM      8  H   UNL     1      34.042 -23.932 -12.213  0.00  0.00    +0.102 HD
ENDBRANCH   2   7
BRANCH   3   9
ATOM      9  O   UNL     1      36.012 -26.707 -14.658  0.00  0.00    -0.381 OA
ATOM     10  H   UNL     1      36.381 -27.220 -15.394  0.00  0.00    +0.210 HD
ENDBRANCH   3   9
BRANCH   5  11
ATOM     11  O   UNL     1      38.684 -26.316 -15.707  0.00  0.00    -0.378 OA
ATOM     12  H   UNL     1      38.959 -27.244 -15.650  0.00  0.00    +0.211 HD
ENDBRANCH   5  11
BRANCH   6  13
ATOM     13  O   UNL     1      40.440 -25.135 -13.818  0.00  0.00    -0.358 OA
ATOM     14  H   UNL     1      41.025 -24.636 -14.410  0.00  0.00    +0.213 HD
ENDBRANCH   6  13
BRANCH   4  15
ATOM     15  C   UNL     1      36.968 -23.009 -11.494  0.00  0.00    +0.168 C 
BRANCH  15  16
ATOM     16  O   UNL     1      36.789 -24.040 -10.541  0.00  0.00    -0.379 OA
ATOM     17  H   UNL     1      36.337 -24.790 -10.959  0.00  0.00    +0.211 HD
ENDBRANCH  15  16
ENDBRANCH   4  15
TORSDOF 6
ENDMDL
MODEL 8
REMARK VINA RESULT:      -5.6     11.330     12.264
REMARK  Name = 445564
REMARK  6 active torsions:
REMARK  status: ('A' for Active; 'I' for Inactive)
REMARK    1  A    between atoms: C_2  and  S_7
REMARK    2  A    between atoms: C_3  and  O_9
REMARK    3  A    between atoms: C_4  and  C_15
REMARK    4  A    between atoms: C_5  and  O_11
REMARK    5  A    between atoms: C_6  and  O_13
REMARK    6  A    between atoms: C_15  and  O_16
REMARK                            x       y       z     vdW  Elec       q    Type
REMARK                         _______ _______ _______ _____ _____    ______ ____
ROOT
ATOM      1  O   UNL     1      35.179 -17.432 -20.741  0.00  0.00    -0.328 OA
ATOM      2  C   UNL     1      35.250 -18.166 -23.056  0.00  0.00    +0.103 C 
ATOM      3  C   UNL     1      34.694 -16.805 -23.501  0.00  0.00    +0.154 C 
ATOM      4  C   UNL     1      34.800 -18.498 -21.622  0.00  0.00    +0.159 C 
ATOM      5  C   UNL     1      34.956 -15.731 -22.443  0.00  0.00    +0.195 C 
ATOM      6  C   UNL     1      34.538 -16.200 -21.053  0.00  0.00    +0.262 C 
ENDROOT
BRANCH   2   7
ATOM      7  S   UNL     1      34.722 -19.458 -24.244  0.00  0.00    -0.164 S 
ATOM      8  H   UNL     1      33.508 -19.947 -23.874  0.00  0.00    +0.102 HD
ENDBRANCH   2   7
BRANCH   3   9
ATOM      9  O   UNL     1      35.336 -16.406 -24.714  0.00  0.00    -0.381 OA
ATOM     10  H   UNL     1      35.130 -15.476 -24.898  0.00  0.00    +0.210 HD
ENDBRANCH   3   9
BRANCH   5  11
ATOM     11  O   UNL     1      34.233 -14.548 -22.785  0.00  0.00    -0.378 OA
ATOM     12  H   UNL     1      34.295 -14.396 -23.741  0.00  0.00    +0.211 HD
ENDBRANCH   5  11
BRANCH   6  13
ATOM     13  O   UNL     1      34.930 -15.200 -20.114  0.00  0.00    -0.358 OA
ATOM     14  H   UNL     1      34.726 -14.322 -20.472  0.00  0.00    +0.213 HD
ENDBRANCH   6  13
BRANCH   4  15
ATOM     15  C   UNL     1      35.453 -19.761 -21.062  0.00  0.00    +0.168 C 
BRANCH  15  16
ATOM     16  O   UNL     1      36.504 -19.375 -20.196  0.00  0.00    -0.379 OA
ATOM     17  H   UNL     1      36.581 -18.408 -20.193  0.00  0.00    +0.211 HD
ENDBRANCH  15  16
ENDBRANCH   4  15
TORSDOF 6
ENDMDL
MODEL 9
REMARK VINA RESULT:      -5.6      2.573      4.022
REMARK  Name = 445564
REMARK  6 active torsions:
REMARK  status: ('A' for Active; 'I' for Inactive)
REMARK    1  A    between atoms: C_2  and  S_7
REMARK    2  A    between atoms: C_3  and  O_9
REMARK    3  A    between atoms: C_4  and  C_15
REMARK    4  A    between atoms: C_5  and  O_11
REMARK    5  A    between atoms: C_6  and  O_13
REMARK    6  A    between atoms: C_15  and  O_16
REMARK                            x       y       z     vdW  Elec       q    Type
REMARK                         _______ _______ _______ _____ _____    ______ ____
ROOT
ATOM      1  O   UNL     1      35.519 -23.525 -13.877  0.00  0.00    -0.328 OA
ATOM      2  C   UNL     1      37.375 -25.078 -13.661  0.00  0.00    +0.103 C 
ATOM      3  C   UNL     1      37.023 -25.289 -12.181  0.00  0.00    +0.154 C 
ATOM      4  C   UNL     1      36.920 -23.688 -14.140  0.00  0.00    +0.159 C 
ATOM      5  C   UNL     1      35.562 -24.922 -11.906  0.00  0.00    +0.195 C 
ATOM      6  C   UNL     1      35.208 -23.557 -12.488  0.00  0.00    +0.262 C 
ENDROOT
BRANCH   2   7
ATOM      7  S   UNL     1      39.177 -25.315 -13.899  0.00  0.00    -0.164 S 
ATOM      8  H   UNL     1      39.832 -24.995 -12.751  0.00  0.00    +0.102 HD
ENDBRANCH   2   7
BRANCH   3   9
ATOM      9  O   UNL     1      37.212 -26.664 -11.841  0.00  0.00    -0.381 OA
ATOM     10  H   UNL     1      36.571 -26.919 -11.159  0.00  0.00    +0.210 HD
ENDBRANCH   3   9
BRANCH   5  11
ATOM     11  O   UNL     1      35.339 -24.911 -10.495  0.00  0.00    -0.378 OA
ATOM     12  H   UNL     1      34.396 -25.053 -10.316  0.00  0.00    +0.211 HD
ENDBRANCH   5  11
BRANCH   6  13
ATOM     13  O   UNL     1      33.808 -23.349 -12.302  0.00  0.00    -0.358 OA
ATOM     14  H   UNL     1      33.552 -23.648 -11.415  0.00  0.00    +0.213 HD
ENDBRANCH   6  13
BRANCH   4  15
ATOM     15  C   UNL     1      37.094 -23.481 -15.644  0.00  0.00    +0.168 C 
BRANCH  15  16
ATOM     16  O   UNL     1      38.003 -22.415 -15.846  0.00  0.00    -0.379 OA
ATOM     17  H   UNL     1      38.905 -22.766 -15.901  0.00  0.00    +0.211 HD
ENDBRANCH  15  16
ENDBRANCH   4  15
TORSDOF 6
ENDMDL
