MODEL 1
REMARK VINA RESULT:      -5.0      0.000      0.000
REMARK  Name = 446987
REMARK  3 active torsions:
REMARK  status: ('A' for Active; 'I' for Inactive)
REMARK    1  A    between atoms: P_1  and  C_4
REMARK    2  A    between atoms: P_1  and  O_7
REMARK    3  A    between atoms: P_1  and  O_9
REMARK                            x       y       z     vdW  Elec       q    Type
REMARK                         _______ _______ _______ _____ _____    ______ ____
ROOT
ATOM      1  P   UNL     1      39.789 -25.069 -14.946  0.00  0.00    +0.366 P 
ATOM      2  O   UNL     1      40.603 -24.740 -13.735  0.00  0.00    -0.256 OA
ENDROOT
BRANCH   1   4
ATOM      3  O   UNL     1      38.349 -26.292 -12.922  0.00  0.00    -0.342 OA
ATOM      4  C   UNL     1      38.400 -26.070 -14.340  0.00  0.00    +0.246 C 
ATOM      5  C   UNL     1      37.388 -25.378 -13.467  0.00  0.00    +0.155 C 
ATOM      6  C   UNL     1      37.567 -23.970 -13.047  0.00  0.00    +0.035 C 
ENDBRANCH   1   4
BRANCH   1   7
ATOM      7  O   UNL     1      39.093 -23.847 -15.731  0.00  0.00    -0.322 OA
ATOM      8  H   UNL     1      39.310 -23.012 -15.287  0.00  0.00    +0.220 HD
ENDBRANCH   1   7
BRANCH   1   9
ATOM      9  O   UNL     1      40.477 -25.978 -16.083  0.00  0.00    -0.322 OA
ATOM     10  H   UNL     1      40.522 -26.898 -15.778  0.00  0.00    +0.220 HD
ENDBRANCH   1   9
TORSDOF 3
ENDMDL
MODEL 2
REMARK VINA RESULT:      -4.9      9.949     11.001
REMARK  Name = 446987
REMARK  3 active torsions:
REMARK  status: ('A' for Active; 'I' for Inactive)
REMARK    1  A    between atoms: P_1  and  C_4
REMARK    2  A    between atoms: P_1  and  O_7
REMARK    3  A    between atoms: P_1  and  O_9
REMARK                            x       y       z     vdW  Elec       q    Type
REMARK                         _______ _______ _______ _____ _____    ______ ____
ROOT
ATOM      1  P   UNL     1      41.855 -16.269 -16.687  0.00  0.00    +0.366 P 
ATOM      2  O   UNL     1      43.236 -16.110 -16.135  0.00  0.00    -0.256 OA
ENDROOT
BRANCH   1   4
ATOM      3  O   UNL     1      40.634 -14.208 -18.076  0.00  0.00    -0.342 OA
ATOM      4  C   UNL     1      41.753 -15.109 -18.082  0.00  0.00    +0.246 C 
ATOM      5  C   UNL     1      41.917 -13.646 -17.767  0.00  0.00    +0.155 C 
ATOM      6  C   UNL     1      42.064 -13.169 -16.374  0.00  0.00    +0.035 C 
ENDBRANCH   1   4
BRANCH   1   7
ATOM      7  O   UNL     1      41.466 -17.697 -17.321  0.00  0.00    -0.322 OA
ATOM      8  H   UNL     1      41.385 -17.612 -18.284  0.00  0.00    +0.220 HD
ENDBRANCH   1   7
BRANCH   1   9
ATOM      9  O   UNL     1      40.620 -15.866 -15.735  0.00  0.00    -0.322 OA
ATOM     10  H   UNL     1      40.956 -15.424 -14.940  0.00  0.00    +0.220 HD
ENDBRANCH   1   9
TORSDOF 3
ENDMDL
MODEL 3
REMARK VINA RESULT:      -4.9      9.769     10.379
REMARK  Name = 446987
REMARK  3 active torsions:
REMARK  status: ('A' for Active; 'I' for Inactive)
REMARK    1  A    between atoms: P_1  and  C_4
REMARK    2  A    between atoms: P_1  and  O_7
REMARK    3  A    between atoms: P_1  and  O_9
REMARK                            x       y       z     vdW  Elec       q    Type
REMARK                         _______ _______ _______ _____ _____    ______ ____
ROOT
ATOM      1  P   UNL     1      28.414 -22.860 -16.524  0.00  0.00    +0.366 P 
ATOM      2  O   UNL     1      27.780 -21.959 -15.512  0.00  0.00    -0.256 OA
ENDROOT
BRANCH   1   4
ATOM      3  O   UNL     1      30.102 -24.957 -15.876  0.00  0.00    -0.342 OA
ATOM      4  C   UNL     1      28.803 -24.395 -15.632  0.00  0.00    +0.246 C 
ATOM      5  C   UNL     1      29.900 -24.328 -14.604  0.00  0.00    +0.155 C 
ATOM      6  C   UNL     1      30.686 -23.092 -14.394  0.00  0.00    +0.035 C 
ENDBRANCH   1   4
BRANCH   1   7
ATOM      7  O   UNL     1      27.511 -23.335 -17.769  0.00  0.00    -0.322 OA
ATOM      8  H   UNL     1      26.992 -22.584 -18.098  0.00  0.00    +0.220 HD
ENDBRANCH   1   7
BRANCH   1   9
ATOM      9  O   UNL     1      29.819 -22.395 -17.160  0.00  0.00    -0.322 OA
ATOM     10  H   UNL     1      29.735 -21.492 -17.503  0.00  0.00    +0.220 HD
ENDBRANCH   1   9
TORSDOF 3
ENDMDL
MODEL 4
REMARK VINA RESULT:      -4.8      3.859      4.820
REMARK  Name = 446987
REMARK  3 active torsions:
REMARK  status: ('A' for Active; 'I' for Inactive)
REMARK    1  A    between atoms: P_1  and  C_4
REMARK    2  A    between atoms: P_1  and  O_7
REMARK    3  A    between atoms: P_1  and  O_9
REMARK                            x       y       z     vdW  Elec       q    Type
REMARK                         _______ _______ _______ _____ _____    ______ ____
ROOT
ATOM      1  P   UNL     1      35.269 -24.364 -12.095  0.00  0.00    +0.366 P 
ATOM      2  O   UNL     1      35.373 -25.088 -10.790  0.00  0.00    -0.256 OA
ENDROOT
BRANCH   1   4
ATOM      3  O   UNL     1      37.533 -23.227 -10.976  0.00  0.00    -0.342 OA
ATOM      4  C   UNL     1      36.637 -23.168 -12.097  0.00  0.00    +0.246 C 
ATOM      5  C   UNL     1      38.029 -23.723 -12.227  0.00  0.00    +0.155 C 
ATOM      6  C   UNL     1      38.278 -25.181 -12.259  0.00  0.00    +0.035 C 
ENDBRANCH   1   4
BRANCH   1   7
ATOM      7  O   UNL     1      35.480 -25.220 -13.442  0.00  0.00    -0.322 OA
ATOM      8  H   UNL     1      36.288 -24.925 -13.890  0.00  0.00    +0.220 HD
ENDBRANCH   1   7
BRANCH   1   9
ATOM      9  O   UNL     1      33.952 -23.472 -12.350  0.00  0.00    -0.322 OA
ATOM     10  H   UNL     1      33.848 -22.835 -11.626  0.00  0.00    +0.220 HD
ENDBRANCH   1   9
TORSDOF 3
ENDMDL
MODEL 5
REMARK VINA RESULT:      -4.8      2.771      4.103
REMARK  Name = 446987
REMARK  3 active torsions:
REMARK  status: ('A' for Active; 'I' for Inactive)
REMARK    1  A    between atoms: P_1  and  C_4
REMARK    2  A    between atoms: P_1  and  O_7
REMARK    3  A    between atoms: P_1  and  O_9
REMARK                            x       y       z     vdW  Elec       q    Type
REMARK                         _______ _______ _______ _____ _____    ______ ____
ROOT
ATOM      1  P   UNL     1      36.509 -25.004 -12.036  0.00  0.00    +0.366 P 
ATOM      2  O   UNL     1      37.361 -24.152 -11.151  0.00  0.00    -0.256 OA
ENDROOT
BRANCH   1   4
ATOM      3  O   UNL     1      37.769 -23.346 -13.860  0.00  0.00    -0.342 OA
ATOM      4  C   UNL     1      36.794 -24.392 -13.723  0.00  0.00    +0.246 C 
ATOM      5  C   UNL     1      38.150 -24.649 -14.323  0.00  0.00    +0.155 C 
ATOM      6  C   UNL     1      39.229 -25.292 -13.541  0.00  0.00    +0.035 C 
ENDBRANCH   1   4
BRANCH   1   7
ATOM      7  O   UNL     1      36.854 -26.576 -12.114  0.00  0.00    -0.322 OA
ATOM      8  H   UNL     1      36.191 -27.025 -12.662  0.00  0.00    +0.220 HD
ENDBRANCH   1   7
BRANCH   1   9
ATOM      9  O   UNL     1      34.913 -24.921 -11.840  0.00  0.00    -0.322 OA
ATOM     10  H   UNL     1      34.526 -25.803 -11.954  0.00  0.00    +0.220 HD
ENDBRANCH   1   9
TORSDOF 3
ENDMDL
MODEL 6
REMARK VINA RESULT:      -4.8      1.747      1.955
REMARK  Name = 446987
REMARK  3 active torsions:
REMARK  status: ('A' for Active; 'I' for Inactive)
REMARK    1  A    between atoms: P_1  and  C_4
REMARK    2  A    between atoms: P_1  and  O_7
REMARK    3  A    between atoms: P_1  and  O_9
REMARK                            x       y       z     vdW  Elec       q    Type
REMARK                         _______ _______ _______ _____ _____    ______ ____
ROOT
ATOM      1  P   UNL     1      37.985 -25.882 -14.659  0.00  0.00    +0.366 P 
ATOM      2  O   UNL     1      39.212 -26.403 -13.981  0.00  0.00    -0.256 OA
ENDROOT
BRANCH   1   4
ATOM      3  O   UNL     1      37.083 -26.320 -12.078  0.00  0.00    -0.342 OA
ATOM      4  C   UNL     1      36.707 -25.815 -13.370  0.00  0.00    +0.246 C 
ATOM      5  C   UNL     1      36.960 -24.896 -12.204  0.00  0.00    +0.155 C 
ATOM      6  C   UNL     1      38.232 -24.152 -12.072  0.00  0.00    +0.035 C 
ENDBRANCH   1   4
BRANCH   1   7
ATOM      7  O   UNL     1      38.041 -24.384 -15.250  0.00  0.00    -0.322 OA
ATOM      8  H   UNL     1      37.959 -24.415 -16.216  0.00  0.00    +0.220 HD
ENDBRANCH   1   7
BRANCH   1   9
ATOM      9  O   UNL     1      37.337 -26.784 -15.825  0.00  0.00    -0.322 OA
ATOM     10  H   UNL     1      36.433 -26.480 -16.004  0.00  0.00    +0.220 HD
ENDBRANCH   1   9
TORSDOF 3
ENDMDL
MODEL 7
REMARK VINA RESULT:      -4.8      2.471      3.474
REMARK  Name = 446987
REMARK  3 active torsions:
REMARK  status: ('A' for Active; 'I' for Inactive)
REMARK    1  A    between atoms: P_1  and  C_4
REMARK    2  A    between atoms: P_1  and  O_7
REMARK    3  A    between atoms: P_1  and  O_9
REMARK                            x       y       z     vdW  Elec       q    Type
REMARK                         _______ _______ _______ _____ _____    ______ ____
ROOT
ATOM      1  P   UNL     1      37.196 -26.431 -14.670  0.00  0.00    +0.366 P 
ATOM      2  O   UNL     1      36.250 -26.799 -15.767  0.00  0.00    -0.256 OA
ENDROOT
BRANCH   1   4
ATOM      3  O   UNL     1      36.607 -23.967 -15.787  0.00  0.00    -0.342 OA
ATOM      4  C   UNL     1      37.347 -24.622 -14.745  0.00  0.00    +0.246 C 
ATOM      5  C   UNL     1      36.108 -23.820 -14.451  0.00  0.00    +0.155 C 
ATOM      6  C   UNL     1      34.806 -24.477 -14.202  0.00  0.00    +0.035 C 
ENDBRANCH   1   4
BRANCH   1   7
ATOM      7  O   UNL     1      36.737 -26.734 -13.156  0.00  0.00    -0.322 OA
ATOM      8  H   UNL     1      37.220 -26.153 -12.549  0.00  0.00    +0.220 HD
ENDBRANCH   1   7
BRANCH   1   9
ATOM      9  O   UNL     1      38.711 -26.968 -14.779  0.00  0.00    -0.322 OA
ATOM     10  H   UNL     1      38.919 -27.509 -14.001  0.00  0.00    +0.220 HD
ENDBRANCH   1   9
TORSDOF 3
ENDMDL
MODEL 8
REMARK VINA RESULT:      -4.8      2.266      2.942
REMARK  Name = 446987
REMARK  3 active torsions:
REMARK  status: ('A' for Active; 'I' for Inactive)
REMARK    1  A    between atoms: P_1  and  C_4
REMARK    2  A    between atoms: P_1  and  O_7
REMARK    3  A    between atoms: P_1  and  O_9
REMARK                            x       y       z     vdW  Elec       q    Type
REMARK                         _______ _______ _______ _____ _____    ______ ____
ROOT
ATOM      1  P   UNL     1      37.508 -26.552 -14.756  0.00  0.00    +0.366 P 
ATOM      2  O   UNL     1      39.000 -26.615 -14.681  0.00  0.00    -0.256 OA
ENDROOT
BRANCH   1   4
ATOM      3  O   UNL     1      36.132 -24.347 -13.801  0.00  0.00    -0.342 OA
ATOM      4  C   UNL     1      37.097 -24.782 -14.772  0.00  0.00    +0.246 C 
ATOM      5  C   UNL     1      37.497 -23.977 -13.565  0.00  0.00    +0.155 C 
ATOM      6  C   UNL     1      38.116 -24.616 -12.383  0.00  0.00    +0.035 C 
ENDBRANCH   1   4
BRANCH   1   7
ATOM      7  O   UNL     1      36.802 -27.142 -16.078  0.00  0.00    -0.322 OA
ATOM      8  H   UNL     1      36.169 -26.494 -16.423  0.00  0.00    +0.220 HD
ENDBRANCH   1   7
BRANCH   1   9
ATOM      9  O   UNL     1      36.673 -27.150 -13.516  0.00  0.00    -0.322 OA
ATOM     10  H   UNL     1      37.285 -27.416 -12.812  0.00  0.00    +0.220 HD
ENDBRANCH   1   9
TORSDOF 3
ENDMDL
MODEL 9
REMARK VINA RESULT:      -4.8      3.243      4.660
REMARK  Name = 446987
REMARK  3 active torsions:
REMARK  status: ('A' for Active; 'I' for Inactive)
REMARK    1  A    between atoms: P_1  and  C_4
REMARK    2  A    between atoms: P_1  and  O_7
REMARK    3  A    between atoms: P_1  and  O_9
REMARK                            x       y       z     vdW  Elec       q    Type
REMARK                         _______ _______ _______ _____ _____    ______ ____
ROOT
ATOM      1  P   UNL     1      35.880 -24.353 -11.474  0.00  0.00    +0.366 P 
ATOM      2  O   UNL     1      34.531 -23.964 -11.987  0.00  0.00    -0.256 OA
ENDROOT
BRANCH   1   4
ATOM      3  O   UNL     1      38.154 -23.892 -12.985  0.00  0.00    -0.342 OA
ATOM      4  C   UNL     1      37.056 -23.253 -12.315  0.00  0.00    +0.246 C 
ATOM      5  C   UNL     1      37.123 -23.343 -13.816  0.00  0.00    +0.155 C 
ATOM      6  C   UNL     1      36.332 -24.347 -14.563  0.00  0.00    +0.035 C 
ENDBRANCH   1   4
BRANCH   1   7
ATOM      7  O   UNL     1      36.174 -24.133  -9.906  0.00  0.00    -0.322 OA
ATOM      8  H   UNL     1      36.928 -23.533  -9.799  0.00  0.00    +0.220 HD
ENDBRANCH   1   7
BRANCH   1   9
ATOM      9  O   UNL     1      36.406 -25.838 -11.809  0.00  0.00    -0.322 OA
ATOM     10  H   UNL     1      36.005 -26.470 -11.191  0.00  0.00    +0.220 HD
ENDBRANCH   1   9
TORSDOF 3
ENDMDL
