MODEL 1
REMARK VINA RESULT:     -11.4      0.000      0.000
REMARK  Name = 9675990
REMARK  9 active torsions:
REMARK  status: ('A' for Active; 'I' for Inactive)
REMARK    1  A    between atoms: C_1  and  N_2
REMARK    2  A    between atoms: C_1  and  C_19
REMARK    3  A    between atoms: N_3  and  C_10
REMARK    4  A    between atoms: C_10  and  C_11
REMARK    5  A    between atoms: N_18  and  N_21
REMARK    6  A    between atoms: N_21  and  C_22
REMARK    7  A    between atoms: C_22  and  C_24
REMARK    8  A    between atoms: C_26  and  C_30
REMARK    9  A    between atoms: C_30  and  C_31
REMARK                            x       y       z     vdW  Elec       q    Type
REMARK                         _______ _______ _______ _____ _____    ______ ____
ROOT
ATOM      1  C   UNL     1      32.933 -15.039 -26.089  0.00  0.00    +0.011 C 
ENDROOT
BRANCH   1   2
ATOM      2  N   UNL     1      33.892 -15.689 -25.133  0.00  0.00    +0.390 N 
ATOM      3  N   UNL     1      34.686 -17.421 -22.974  0.00  0.00    +0.387 N 
ATOM      4  C   UNL     1      33.591 -15.331 -23.699  0.00  0.00    -0.100 C 
ATOM      5  C   UNL     1      33.951 -17.183 -25.319  0.00  0.00    -0.100 C 
ATOM      6  C   UNL     1      34.642 -15.965 -22.793  0.00  0.00    -0.100 C 
ATOM      7  C   UNL     1      34.992 -17.766 -24.369  0.00  0.00    -0.100 C 
ATOM      8  H   UNL     1      34.816 -15.317 -25.352  0.00  0.00    -0.079 HD
ATOM      9  H   UNL     1      33.766 -17.799 -22.747  0.00  0.00    -0.079 HD
BRANCH   3  10
ATOM     10  C   UNL     1      35.667 -18.021 -22.070  0.00  0.00    -0.050 C 
BRANCH  10  11
ATOM     11  C   UNL     1      35.068 -19.131 -21.247  0.00  0.00    -0.043 C 
ATOM     12  C   UNL     1      33.682 -19.249 -21.140  0.00  0.00    -0.006 C 
ATOM     13  C   UNL     1      35.899 -20.040 -20.593  0.00  0.00    -0.006 C 
ATOM     14  C   UNL     1      33.127 -20.278 -20.378  0.00  0.00    -0.000 C 
ATOM     15  C   UNL     1      35.343 -21.069 -19.830  0.00  0.00    -0.000 C 
ATOM     16  C   UNL     1      33.958 -21.187 -19.723  0.00  0.00    -0.000 C 
ENDBRANCH  10  11
ENDBRANCH   3  10
ENDBRANCH   1   2
BRANCH   1  19
ATOM     17  O   UNL     1      33.833 -13.515 -27.726  0.00  0.00    -0.276 OA
ATOM     18  N   UNL     1      33.441 -12.763 -25.566  0.00  0.00    -0.234 N 
ATOM     19  C   UNL     1      33.452 -13.710 -26.575  0.00  0.00    +0.216 C 
ATOM     20  H   UNL     1      33.121 -12.995 -24.665  0.00  0.00    +0.171 HD
BRANCH  18  21
ATOM     21  N   UNL     1      33.879 -11.514 -25.842  0.00  0.00    -0.127 NA
BRANCH  21  22
ATOM     22  C   UNL     1      34.648 -11.015 -24.929  0.00  0.00    +0.141 C 
BRANCH  22  24
ATOM     23  O   UNL     1      32.526 -11.084 -23.037  0.00  0.00    -0.287 OA
ATOM     24  C   UNL     1      34.222  -9.888 -24.080  0.00  0.00    +0.036 C 
ATOM     25  C   UNL     1      33.172  -9.980 -23.167  0.00  0.00    +0.189 C 
ATOM     26  C   UNL     1      32.820  -8.874 -22.395  0.00  0.00    +0.021 C 
ATOM     27  C   UNL     1      34.921  -8.689 -24.220  0.00  0.00    +0.000 C 
ATOM     28  C   UNL     1      33.519  -7.675 -22.534  0.00  0.00    -0.001 C 
ATOM     29  C   UNL     1      34.570  -7.583 -23.446  0.00  0.00    -0.000 C 
BRANCH  26  30
ATOM     30  C   UNL     1      31.701  -8.909 -21.397  0.00  0.00    +0.056 C 
BRANCH  30  31
ATOM     31  C   UNL     1      32.160  -9.313 -20.023  0.00  0.00    -0.021 C 
ATOM     32  C   UNL     1      31.646 -10.337 -19.332  0.00  0.00    -0.005 C 
ENDBRANCH  30  31
ENDBRANCH  26  30
ENDBRANCH  22  24
ENDBRANCH  21  22
ENDBRANCH  18  21
ENDBRANCH   1  19
TORSDOF 9
ENDMDL
MODEL 2
REMARK VINA RESULT:     -10.9      1.061      1.627
REMARK  Name = 9675990
REMARK  9 active torsions:
REMARK  status: ('A' for Active; 'I' for Inactive)
REMARK    1  A    between atoms: C_1  and  N_2
REMARK    2  A    between atoms: C_1  and  C_19
REMARK    3  A    between atoms: N_3  and  C_10
REMARK    4  A    between atoms: C_10  and  C_11
REMARK    5  A    between atoms: N_18  and  N_21
REMARK    6  A    between atoms: N_21  and  C_22
REMARK    7  A    between atoms: C_22  and  C_24
REMARK    8  A    between atoms: C_26  and  C_30
REMARK    9  A    between atoms: C_30  and  C_31
REMARK                            x       y       z     vdW  Elec       q    Type
REMARK                         _______ _______ _______ _____ _____    ______ ____
ROOT
ATOM      1  C   UNL     1      32.994 -15.118 -26.088  0.00  0.00    +0.011 C 
ENDROOT
BRANCH   1   2
ATOM      2  N   UNL     1      33.946 -15.811 -25.154  0.00  0.00    +0.390 N 
ATOM      3  N   UNL     1      34.716 -17.604 -23.037  0.00  0.00    +0.387 N 
ATOM      4  C   UNL     1      33.670 -15.472 -23.711  0.00  0.00    -0.100 C 
ATOM      5  C   UNL     1      33.962 -17.303 -25.369  0.00  0.00    -0.100 C 
ATOM      6  C   UNL     1      34.713 -16.151 -22.829  0.00  0.00    -0.100 C 
ATOM      7  C   UNL     1      34.997 -17.931 -24.441  0.00  0.00    -0.100 C 
ATOM      8  H   UNL     1      34.876 -15.460 -25.377  0.00  0.00    -0.079 HD
ATOM      9  H   UNL     1      33.788 -17.961 -22.806  0.00  0.00    -0.079 HD
BRANCH   3  10
ATOM     10  C   UNL     1      35.690 -18.247 -22.155  0.00  0.00    -0.050 C 
BRANCH  10  11
ATOM     11  C   UNL     1      35.053 -19.297 -21.284  0.00  0.00    -0.043 C 
ATOM     12  C   UNL     1      35.853 -20.190 -20.570  0.00  0.00    -0.006 C 
ATOM     13  C   UNL     1      33.664 -19.375 -21.189  0.00  0.00    -0.006 C 
ATOM     14  C   UNL     1      35.263 -21.162 -19.762  0.00  0.00    -0.000 C 
ATOM     15  C   UNL     1      33.074 -20.349 -20.381  0.00  0.00    -0.000 C 
ATOM     16  C   UNL     1      33.873 -21.241 -19.668  0.00  0.00    -0.000 C 
ENDBRANCH  10  11
ENDBRANCH   3  10
ENDBRANCH   1   2
BRANCH   1  19
ATOM     17  O   UNL     1      33.841 -13.433 -27.589  0.00  0.00    -0.276 OA
ATOM     18  N   UNL     1      33.480 -12.893 -25.362  0.00  0.00    -0.234 N 
ATOM     19  C   UNL     1      33.485 -13.741 -26.455  0.00  0.00    +0.216 C 
ATOM     20  H   UNL     1      33.179 -13.214 -24.481  0.00  0.00    +0.171 HD
BRANCH  18  21
ATOM     21  N   UNL     1      33.894 -11.617 -25.526  0.00  0.00    -0.127 NA
BRANCH  21  22
ATOM     22  C   UNL     1      34.382 -11.082 -24.454  0.00  0.00    +0.141 C 
BRANCH  22  24
ATOM     23  O   UNL     1      32.015 -10.281 -23.095  0.00  0.00    -0.287 OA
ATOM     24  C   UNL     1      34.052  -9.703 -24.050  0.00  0.00    +0.036 C 
ATOM     25  C   UNL     1      32.873  -9.369 -23.384  0.00  0.00    +0.189 C 
ATOM     26  C   UNL     1      32.624  -8.043 -23.031  0.00  0.00    +0.021 C 
ATOM     27  C   UNL     1      34.982  -8.712 -24.363  0.00  0.00    +0.000 C 
ATOM     28  C   UNL     1      33.554  -7.051 -23.343  0.00  0.00    -0.001 C 
ATOM     29  C   UNL     1      34.732  -7.386 -24.009  0.00  0.00    -0.000 C 
BRANCH  26  30
ATOM     30  C   UNL     1      31.376  -7.619 -22.314  0.00  0.00    +0.056 C 
BRANCH  30  31
ATOM     31  C   UNL     1      31.483  -6.239 -21.726  0.00  0.00    -0.021 C 
ATOM     32  C   UNL     1      30.549  -5.291 -21.865  0.00  0.00    -0.005 C 
ENDBRANCH  30  31
ENDBRANCH  26  30
ENDBRANCH  22  24
ENDBRANCH  21  22
ENDBRANCH  18  21
ENDBRANCH   1  19
TORSDOF 9
ENDMDL
MODEL 3
REMARK VINA RESULT:     -10.6      1.973      2.935
REMARK  Name = 9675990
REMARK  9 active torsions:
REMARK  status: ('A' for Active; 'I' for Inactive)
REMARK    1  A    between atoms: C_1  and  N_2
REMARK    2  A    between atoms: C_1  and  C_19
REMARK    3  A    between atoms: N_3  and  C_10
REMARK    4  A    between atoms: C_10  and  C_11
REMARK    5  A    between atoms: N_18  and  N_21
REMARK    6  A    between atoms: N_21  and  C_22
REMARK    7  A    between atoms: C_22  and  C_24
REMARK    8  A    between atoms: C_26  and  C_30
REMARK    9  A    between atoms: C_30  and  C_31
REMARK                            x       y       z     vdW  Elec       q    Type
REMARK                         _______ _______ _______ _____ _____    ______ ____
ROOT
ATOM      1  C   UNL     1      33.058 -14.127 -24.531  0.00  0.00    +0.011 C 
ENDROOT
BRANCH   1   2
ATOM      2  N   UNL     1      34.000 -15.070 -23.838  0.00  0.00    +0.390 N 
ATOM      3  N   UNL     1      34.777 -17.491 -22.485  0.00  0.00    +0.387 N 
ATOM      4  C   UNL     1      33.595 -15.324 -22.408  0.00  0.00    -0.100 C 
ATOM      5  C   UNL     1      34.163 -16.363 -24.595  0.00  0.00    -0.100 C 
ATOM      6  C   UNL     1      34.630 -16.229 -21.748  0.00  0.00    -0.100 C 
ATOM      7  C   UNL     1      35.182 -17.240 -23.874  0.00  0.00    -0.100 C 
ATOM      8  H   UNL     1      34.910 -14.610 -23.820  0.00  0.00    -0.079 HD
ATOM      9  H   UNL     1      33.870 -17.959 -22.497  0.00  0.00    -0.079 HD
BRANCH   3  10
ATOM     10  C   UNL     1      35.740 -18.367 -21.819  0.00  0.00    -0.050 C 
BRANCH  10  11
ATOM     11  C   UNL     1      35.059 -19.448 -21.021  0.00  0.00    -0.043 C 
ATOM     12  C   UNL     1      33.666 -19.525 -20.999  0.00  0.00    -0.006 C 
ATOM     13  C   UNL     1      35.820 -20.373 -20.308  0.00  0.00    -0.006 C 
ATOM     14  C   UNL     1      33.035 -20.527 -20.261  0.00  0.00    -0.000 C 
ATOM     15  C   UNL     1      35.189 -21.375 -19.570  0.00  0.00    -0.000 C 
ATOM     16  C   UNL     1      33.797 -21.451 -19.546  0.00  0.00    -0.000 C 
ENDBRANCH  10  11
ENDBRANCH   3  10
ENDBRANCH   1   2
BRANCH   1  19
ATOM     17  O   UNL     1      34.292 -12.090 -24.913  0.00  0.00    -0.276 OA
ATOM     18  N   UNL     1      32.681 -12.149 -23.243  0.00  0.00    -0.234 N 
ATOM     19  C   UNL     1      33.429 -12.689 -24.274  0.00  0.00    +0.216 C 
ATOM     20  H   UNL     1      32.006 -12.693 -22.776  0.00  0.00    +0.171 HD
BRANCH  18  21
ATOM     21  N   UNL     1      32.895 -10.862 -22.888  0.00  0.00    -0.127 NA
BRANCH  21  22
ATOM     22  C   UNL     1      31.862 -10.283 -22.366  0.00  0.00    +0.141 C 
BRANCH  22  24
ATOM     23  O   UNL     1      30.893  -8.122 -23.941  0.00  0.00    -0.287 OA
ATOM     24  C   UNL     1      31.878  -8.863 -21.973  0.00  0.00    +0.036 C 
ATOM     25  C   UNL     1      31.388  -7.844 -22.788  0.00  0.00    +0.189 C 
ATOM     26  C   UNL     1      31.435  -6.519 -22.353  0.00  0.00    +0.021 C 
ATOM     27  C   UNL     1      32.416  -8.559 -20.722  0.00  0.00    +0.000 C 
ATOM     28  C   UNL     1      31.971  -6.214 -21.102  0.00  0.00    -0.001 C 
ATOM     29  C   UNL     1      32.462  -7.234 -20.287  0.00  0.00    -0.000 C 
BRANCH  26  30
ATOM     30  C   UNL     1      30.924  -5.379 -23.183  0.00  0.00    +0.056 C 
BRANCH  30  31
ATOM     31  C   UNL     1      31.992  -4.760 -24.041  0.00  0.00    -0.021 C 
ATOM     32  C   UNL     1      32.515  -5.343 -25.126  0.00  0.00    -0.005 C 
ENDBRANCH  30  31
ENDBRANCH  26  30
ENDBRANCH  22  24
ENDBRANCH  21  22
ENDBRANCH  18  21
ENDBRANCH   1  19
TORSDOF 9
ENDMDL
MODEL 4
REMARK VINA RESULT:     -10.5      2.675     10.597
REMARK  Name = 9675990
REMARK  9 active torsions:
REMARK  status: ('A' for Active; 'I' for Inactive)
REMARK    1  A    between atoms: C_1  and  N_2
REMARK    2  A    between atoms: C_1  and  C_19
REMARK    3  A    between atoms: N_3  and  C_10
REMARK    4  A    between atoms: C_10  and  C_11
REMARK    5  A    between atoms: N_18  and  N_21
REMARK    6  A    between atoms: N_21  and  C_22
REMARK    7  A    between atoms: C_22  and  C_24
REMARK    8  A    between atoms: C_26  and  C_30
REMARK    9  A    between atoms: C_30  and  C_31
REMARK                            x       y       z     vdW  Elec       q    Type
REMARK                         _______ _______ _______ _____ _____    ______ ____
ROOT
ATOM      1  C   UNL     1      32.839 -13.721 -23.697  0.00  0.00    +0.011 C 
ENDROOT
BRANCH   1   2
ATOM      2  N   UNL     1      33.174 -12.329 -23.241  0.00  0.00    +0.390 N 
ATOM      3  N   UNL     1      33.020  -9.453 -23.239  0.00  0.00    +0.387 N 
ATOM      4  C   UNL     1      33.819 -11.516 -24.336  0.00  0.00    -0.100 C 
ATOM      5  C   UNL     1      31.975 -11.617 -22.670  0.00  0.00    -0.100 C 
ATOM      6  C   UNL     1      34.195 -10.144 -23.785  0.00  0.00    -0.100 C 
ATOM      7  C   UNL     1      32.402 -10.242 -22.165  0.00  0.00    -0.100 C 
ATOM      8  H   UNL     1      33.858 -12.426 -22.492  0.00  0.00    -0.079 HD
ATOM      9  H   UNL     1      32.337  -9.345 -23.989  0.00  0.00    -0.079 HD
BRANCH   3  10
ATOM     10  C   UNL     1      33.386  -8.123 -22.754  0.00  0.00    -0.050 C 
BRANCH  10  11
ATOM     11  C   UNL     1      32.907  -7.035 -23.678  0.00  0.00    -0.043 C 
ATOM     12  C   UNL     1      31.631  -6.494 -23.516  0.00  0.00    -0.006 C 
ATOM     13  C   UNL     1      33.739  -6.568 -24.695  0.00  0.00    -0.006 C 
ATOM     14  C   UNL     1      31.188  -5.485 -24.372  0.00  0.00    -0.000 C 
ATOM     15  C   UNL     1      33.295  -5.559 -25.552  0.00  0.00    -0.000 C 
ATOM     16  C   UNL     1      32.019  -5.019 -25.390  0.00  0.00    -0.000 C 
ENDBRANCH  10  11
ENDBRANCH   3  10
ENDBRANCH   1   2
BRANCH   1  19
ATOM     17  O   UNL     1      32.317 -15.026 -21.738  0.00  0.00    -0.276 OA
ATOM     18  N   UNL     1      34.384 -15.286 -22.760  0.00  0.00    -0.234 N 
ATOM     19  C   UNL     1      33.122 -14.737 -22.620  0.00  0.00    +0.216 C 
ATOM     20  H   UNL     1      34.974 -15.003 -23.495  0.00  0.00    +0.171 HD
BRANCH  18  21
ATOM     21  N   UNL     1      34.791 -16.217 -21.868  0.00  0.00    -0.127 NA
BRANCH  21  22
ATOM     22  C   UNL     1      34.906 -17.406 -22.367  0.00  0.00    +0.141 C 
BRANCH  22  24
ATOM     23  O   UNL     1      36.919 -19.018 -21.168  0.00  0.00    -0.287 OA
ATOM     24  C   UNL     1      34.665 -18.616 -21.562  0.00  0.00    +0.036 C 
ATOM     25  C   UNL     1      35.694 -19.370 -20.997  0.00  0.00    +0.189 C 
ATOM     26  C   UNL     1      35.395 -20.506 -20.246  0.00  0.00    +0.021 C 
ATOM     27  C   UNL     1      33.337 -19.000 -21.376  0.00  0.00    +0.000 C 
ATOM     28  C   UNL     1      34.067 -20.889 -20.059  0.00  0.00    -0.001 C 
ATOM     29  C   UNL     1      33.038 -20.136 -20.624  0.00  0.00    -0.000 C 
BRANCH  26  30
ATOM     30  C   UNL     1      36.456 -21.357 -19.613  0.00  0.00    +0.056 C 
BRANCH  30  31
ATOM     31  C   UNL     1      36.065 -21.855 -18.249  0.00  0.00    -0.021 C 
ATOM     32  C   UNL     1      36.856 -21.791 -17.172  0.00  0.00    -0.005 C 
ENDBRANCH  30  31
ENDBRANCH  26  30
ENDBRANCH  22  24
ENDBRANCH  21  22
ENDBRANCH  18  21
ENDBRANCH   1  19
TORSDOF 9
ENDMDL
MODEL 5
REMARK VINA RESULT:     -10.5      6.644     13.321
REMARK  Name = 9675990
REMARK  9 active torsions:
REMARK  status: ('A' for Active; 'I' for Inactive)
REMARK    1  A    between atoms: C_1  and  N_2
REMARK    2  A    between atoms: C_1  and  C_19
REMARK    3  A    between atoms: N_3  and  C_10
REMARK    4  A    between atoms: C_10  and  C_11
REMARK    5  A    between atoms: N_18  and  N_21
REMARK    6  A    between atoms: N_21  and  C_22
REMARK    7  A    between atoms: C_22  and  C_24
REMARK    8  A    between atoms: C_26  and  C_30
REMARK    9  A    between atoms: C_30  and  C_31
REMARK                            x       y       z     vdW  Elec       q    Type
REMARK                         _______ _______ _______ _____ _____    ______ ____
ROOT
ATOM      1  C   UNL     1      33.788 -22.959 -18.876  0.00  0.00    +0.011 C 
ENDROOT
BRANCH   1   2
ATOM      2  N   UNL     1      34.334 -21.626 -19.302  0.00  0.00    +0.390 N 
ATOM      3  N   UNL     1      35.364 -19.675 -21.153  0.00  0.00    +0.387 N 
ATOM      4  C   UNL     1      35.735 -21.738 -19.848  0.00  0.00    -0.100 C 
ATOM      5  C   UNL     1      33.423 -20.929 -20.280  0.00  0.00    -0.100 C 
ATOM      6  C   UNL     1      36.251 -20.344 -20.193  0.00  0.00    -0.100 C 
ATOM      7  C   UNL     1      34.002 -19.557 -20.613  0.00  0.00    -0.100 C 
ATOM      8  H   UNL     1      34.379 -21.050 -18.463  0.00  0.00    -0.079 HD
ATOM      9  H   UNL     1      35.323 -20.244 -21.999  0.00  0.00    -0.079 HD
BRANCH   3  10
ATOM     10  C   UNL     1      35.891 -18.357 -21.508  0.00  0.00    -0.050 C 
BRANCH  10  11
ATOM     11  C   UNL     1      35.316 -17.853 -22.805  0.00  0.00    -0.043 C 
ATOM     12  C   UNL     1      35.041 -16.494 -22.964  0.00  0.00    -0.006 C 
ATOM     13  C   UNL     1      35.062 -18.743 -23.848  0.00  0.00    -0.006 C 
ATOM     14  C   UNL     1      34.511 -16.026 -24.167  0.00  0.00    -0.000 C 
ATOM     15  C   UNL     1      34.530 -18.275 -25.050  0.00  0.00    -0.000 C 
ATOM     16  C   UNL     1      34.255 -16.917 -25.209  0.00  0.00    -0.000 C 
ENDBRANCH  10  11
ENDBRANCH   3  10
ENDBRANCH   1   2
BRANCH   1  19
ATOM     17  O   UNL     1      31.883 -22.625 -17.437  0.00  0.00    -0.276 OA
ATOM     18  N   UNL     1      33.952 -23.090 -16.496  0.00  0.00    -0.234 N 
ATOM     19  C   UNL     1      33.082 -22.868 -17.548  0.00  0.00    +0.216 C 
ATOM     20  H   UNL     1      34.904 -23.279 -16.664  0.00  0.00    +0.171 HD
BRANCH  18  21
ATOM     21  N   UNL     1      33.472 -23.042 -15.232  0.00  0.00    -0.127 NA
BRANCH  21  22
ATOM     22  C   UNL     1      33.561 -24.164 -14.594  0.00  0.00    +0.141 C 
BRANCH  22  24
ATOM     23  O   UNL     1      35.819 -25.505 -15.686  0.00  0.00    -0.287 OA
ATOM     24  C   UNL     1      34.775 -24.543 -13.848  0.00  0.00    +0.036 C 
ATOM     25  C   UNL     1      35.854 -25.201 -14.437  0.00  0.00    +0.189 C 
ATOM     26  C   UNL     1      36.972 -25.531 -13.672  0.00  0.00    +0.021 C 
ATOM     27  C   UNL     1      34.814 -24.214 -12.493  0.00  0.00    +0.000 C 
ATOM     28  C   UNL     1      37.012 -25.202 -12.317  0.00  0.00    -0.001 C 
ATOM     29  C   UNL     1      35.933 -24.543 -11.728  0.00  0.00    -0.000 C 
BRANCH  26  30
ATOM     30  C   UNL     1      38.163 -26.238 -14.247  0.00  0.00    +0.056 C 
BRANCH  30  31
ATOM     31  C   UNL     1      39.463 -25.572 -13.890  0.00  0.00    -0.021 C 
ATOM     32  C   UNL     1      40.480 -25.407 -14.743  0.00  0.00    -0.005 C 
ENDBRANCH  30  31
ENDBRANCH  26  30
ENDBRANCH  22  24
ENDBRANCH  21  22
ENDBRANCH  18  21
ENDBRANCH   1  19
TORSDOF 9
ENDMDL
MODEL 6
REMARK VINA RESULT:     -10.4      5.837     12.024
REMARK  Name = 9675990
REMARK  9 active torsions:
REMARK  status: ('A' for Active; 'I' for Inactive)
REMARK    1  A    between atoms: C_1  and  N_2
REMARK    2  A    between atoms: C_1  and  C_19
REMARK    3  A    between atoms: N_3  and  C_10
REMARK    4  A    between atoms: C_10  and  C_11
REMARK    5  A    between atoms: N_18  and  N_21
REMARK    6  A    between atoms: N_21  and  C_22
REMARK    7  A    between atoms: C_22  and  C_24
REMARK    8  A    between atoms: C_26  and  C_30
REMARK    9  A    between atoms: C_30  and  C_31
REMARK                            x       y       z     vdW  Elec       q    Type
REMARK                         _______ _______ _______ _____ _____    ______ ____
ROOT
ATOM      1  C   UNL     1      34.289 -22.400 -19.410  0.00  0.00    +0.011 C 
ENDROOT
BRANCH   1   2
ATOM      2  N   UNL     1      34.620 -20.979 -19.769  0.00  0.00    +0.390 N 
ATOM      3  N   UNL     1      35.262 -18.790 -21.527  0.00  0.00    +0.387 N 
ATOM      4  C   UNL     1      35.989 -20.857 -20.389  0.00  0.00    -0.100 C 
ATOM      5  C   UNL     1      33.567 -20.357 -20.649  0.00  0.00    -0.100 C 
ATOM      6  C   UNL     1      36.287 -19.385 -20.660  0.00  0.00    -0.100 C 
ATOM      7  C   UNL     1      33.931 -18.900 -20.913  0.00  0.00    -0.100 C 
ATOM      8  H   UNL     1      34.635 -20.456 -18.894  0.00  0.00    -0.079 HD
ATOM      9  H   UNL     1      35.250 -19.305 -22.408  0.00  0.00    -0.079 HD
BRANCH   3  10
ATOM     10  C   UNL     1      35.581 -17.391 -21.814  0.00  0.00    -0.050 C 
BRANCH  10  11
ATOM     11  C   UNL     1      34.959 -16.926 -23.103  0.00  0.00    -0.043 C 
ATOM     12  C   UNL     1      34.354 -15.671 -23.173  0.00  0.00    -0.006 C 
ATOM     13  C   UNL     1      34.989 -17.749 -24.229  0.00  0.00    -0.006 C 
ATOM     14  C   UNL     1      33.778 -15.239 -24.368  0.00  0.00    -0.000 C 
ATOM     15  C   UNL     1      34.413 -17.317 -25.425  0.00  0.00    -0.000 C 
ATOM     16  C   UNL     1      33.808 -16.063 -25.494  0.00  0.00    -0.000 C 
ENDBRANCH  10  11
ENDBRANCH   3  10
ENDBRANCH   1   2
BRANCH   1  19
ATOM     17  O   UNL     1      35.747 -22.439 -17.491  0.00  0.00    -0.276 OA
ATOM     18  N   UNL     1      33.608 -23.321 -17.313  0.00  0.00    -0.234 N 
ATOM     19  C   UNL     1      34.653 -22.708 -17.981  0.00  0.00    +0.216 C 
ATOM     20  H   UNL     1      32.758 -23.505 -17.775  0.00  0.00    +0.171 HD
BRANCH  18  21
ATOM     21  N   UNL     1      33.776 -23.664 -16.016  0.00  0.00    -0.127 NA
BRANCH  21  22
ATOM     22  C   UNL     1      32.855 -23.208 -15.230  0.00  0.00    +0.141 C 
BRANCH  22  24
ATOM     23  O   UNL     1      30.816 -22.393 -17.039  0.00  0.00    -0.287 OA
ATOM     24  C   UNL     1      31.477 -23.730 -15.258  0.00  0.00    +0.036 C 
ATOM     25  C   UNL     1      30.517 -23.292 -16.170  0.00  0.00    +0.189 C 
ATOM     26  C   UNL     1      29.230 -23.829 -16.140  0.00  0.00    +0.021 C 
ATOM     27  C   UNL     1      31.150 -24.705 -14.316  0.00  0.00    +0.000 C 
ATOM     28  C   UNL     1      28.903 -24.805 -15.200  0.00  0.00    -0.001 C 
ATOM     29  C   UNL     1      29.863 -25.243 -14.287  0.00  0.00    -0.000 C 
BRANCH  26  30
ATOM     30  C   UNL     1      28.155 -23.400 -17.094  0.00  0.00    +0.056 C 
BRANCH  30  31
ATOM     31  C   UNL     1      27.298 -22.293 -16.545  0.00  0.00    -0.021 C 
ATOM     32  C   UNL     1      26.440 -21.575 -17.279  0.00  0.00    -0.005 C 
ENDBRANCH  30  31
ENDBRANCH  26  30
ENDBRANCH  22  24
ENDBRANCH  21  22
ENDBRANCH  18  21
ENDBRANCH   1  19
TORSDOF 9
ENDMDL
MODEL 7
REMARK VINA RESULT:     -10.4      2.710      9.597
REMARK  Name = 9675990
REMARK  9 active torsions:
REMARK  status: ('A' for Active; 'I' for Inactive)
REMARK    1  A    between atoms: C_1  and  N_2
REMARK    2  A    between atoms: C_1  and  C_19
REMARK    3  A    between atoms: N_3  and  C_10
REMARK    4  A    between atoms: C_10  and  C_11
REMARK    5  A    between atoms: N_18  and  N_21
REMARK    6  A    between atoms: N_21  and  C_22
REMARK    7  A    between atoms: C_22  and  C_24
REMARK    8  A    between atoms: C_26  and  C_30
REMARK    9  A    between atoms: C_30  and  C_31
REMARK                            x       y       z     vdW  Elec       q    Type
REMARK                         _______ _______ _______ _____ _____    ______ ____
ROOT
ATOM      1  C   UNL     1      34.573 -17.013 -25.412  0.00  0.00    +0.011 C 
ENDROOT
BRANCH   1   2
ATOM      2  N   UNL     1      33.861 -15.891 -24.712  0.00  0.00    +0.390 N 
ATOM      3  N   UNL     1      33.414 -13.168 -23.888  0.00  0.00    +0.387 N 
ATOM      4  C   UNL     1      34.724 -15.248 -23.655  0.00  0.00    -0.100 C 
ATOM      5  C   UNL     1      33.333 -14.864 -25.681  0.00  0.00    -0.100 C 
ATOM      6  C   UNL     1      33.917 -14.169 -22.939  0.00  0.00    -0.100 C 
ATOM      7  C   UNL     1      32.564 -13.796 -24.909  0.00  0.00    -0.100 C 
ATOM      8  H   UNL     1      33.059 -16.306 -24.239  0.00  0.00    -0.079 HD
ATOM      9  H   UNL     1      34.214 -12.742 -24.357  0.00  0.00    -0.079 HD
BRANCH   3  10
ATOM     10  C   UNL     1      32.679 -12.117 -23.185  0.00  0.00    -0.050 C 
BRANCH  10  11
ATOM     11  C   UNL     1      33.282 -10.757 -23.417  0.00  0.00    -0.043 C 
ATOM     12  C   UNL     1      32.725  -9.633 -22.805  0.00  0.00    -0.006 C 
ATOM     13  C   UNL     1      34.399 -10.621 -24.241  0.00  0.00    -0.006 C 
ATOM     14  C   UNL     1      33.286  -8.373 -23.019  0.00  0.00    -0.000 C 
ATOM     15  C   UNL     1      34.959  -9.361 -24.455  0.00  0.00    -0.000 C 
ATOM     16  C   UNL     1      34.402  -8.238 -23.844  0.00  0.00    -0.000 C 
ENDBRANCH  10  11
ENDBRANCH   3  10
ENDBRANCH   1   2
BRANCH   1  19
ATOM     17  O   UNL     1      34.470 -19.234 -24.478  0.00  0.00    -0.276 OA
ATOM     18  N   UNL     1      35.920 -17.676 -23.553  0.00  0.00    -0.234 N 
ATOM     19  C   UNL     1      34.960 -18.107 -24.450  0.00  0.00    +0.216 C 
ATOM     20  H   UNL     1      36.265 -16.755 -23.593  0.00  0.00    +0.171 HD
BRANCH  18  21
ATOM     21  N   UNL     1      36.375 -18.542 -22.620  0.00  0.00    -0.127 NA
BRANCH  21  22
ATOM     22  C   UNL     1      35.855 -18.372 -21.448  0.00  0.00    +0.141 C 
BRANCH  22  24
ATOM     23  O   UNL     1      36.577 -20.539 -19.753  0.00  0.00    -0.287 OA
ATOM     24  C   UNL     1      34.919 -19.347 -20.860  0.00  0.00    +0.036 C 
ATOM     25  C   UNL     1      35.331 -20.392 -20.034  0.00  0.00    +0.189 C 
ATOM     26  C   UNL     1      34.391 -21.280 -19.512  0.00  0.00    +0.021 C 
ATOM     27  C   UNL     1      33.567 -19.189 -21.164  0.00  0.00    +0.000 C 
ATOM     28  C   UNL     1      33.039 -21.122 -19.814  0.00  0.00    -0.001 C 
ATOM     29  C   UNL     1      32.627 -20.076 -20.640  0.00  0.00    -0.000 C 
BRANCH  26  30
ATOM     30  C   UNL     1      34.770 -22.423 -18.618  0.00  0.00    +0.056 C 
BRANCH  30  31
ATOM     31  C   UNL     1      33.594 -22.998 -17.878  0.00  0.00    -0.021 C 
ATOM     32  C   UNL     1      33.618 -23.347 -16.587  0.00  0.00    -0.005 C 
ENDBRANCH  30  31
ENDBRANCH  26  30
ENDBRANCH  22  24
ENDBRANCH  21  22
ENDBRANCH  18  21
ENDBRANCH   1  19
TORSDOF 9
ENDMDL
MODEL 8
REMARK VINA RESULT:     -10.3      2.910      9.994
REMARK  Name = 9675990
REMARK  9 active torsions:
REMARK  status: ('A' for Active; 'I' for Inactive)
REMARK    1  A    between atoms: C_1  and  N_2
REMARK    2  A    between atoms: C_1  and  C_19
REMARK    3  A    between atoms: N_3  and  C_10
REMARK    4  A    between atoms: C_10  and  C_11
REMARK    5  A    between atoms: N_18  and  N_21
REMARK    6  A    between atoms: N_21  and  C_22
REMARK    7  A    between atoms: C_22  and  C_24
REMARK    8  A    between atoms: C_26  and  C_30
REMARK    9  A    between atoms: C_30  and  C_31
REMARK                            x       y       z     vdW  Elec       q    Type
REMARK                         _______ _______ _______ _____ _____    ______ ____
ROOT
ATOM      1  C   UNL     1      35.032 -15.809 -24.011  0.00  0.00    +0.011 C 
ENDROOT
BRANCH   1   2
ATOM      2  N   UNL     1      33.867 -15.052 -23.440  0.00  0.00    +0.390 N 
ATOM      3  N   UNL     1      32.496 -12.773 -22.335  0.00  0.00    +0.387 N 
ATOM      4  C   UNL     1      34.124 -14.603 -22.023  0.00  0.00    -0.100 C 
ATOM      5  C   UNL     1      33.463 -13.892 -24.313  0.00  0.00    -0.100 C 
ATOM      6  C   UNL     1      32.878 -13.907 -21.484  0.00  0.00    -0.100 C 
ATOM      7  C   UNL     1      32.235 -13.216 -23.711  0.00  0.00    -0.100 C 
ATOM      8  H   UNL     1      33.083 -15.703 -23.415  0.00  0.00    -0.079 HD
ATOM      9  H   UNL     1      33.275 -12.114 -22.355  0.00  0.00    -0.079 HD
BRANCH   3  10
ATOM     10  C   UNL     1      31.327 -12.089 -21.785  0.00  0.00    -0.050 C 
BRANCH  10  11
ATOM     11  C   UNL     1      31.671 -10.719 -21.262  0.00  0.00    -0.043 C 
ATOM     12  C   UNL     1      32.065  -9.714 -22.145  0.00  0.00    -0.006 C 
ATOM     13  C   UNL     1      31.592 -10.455 -19.895  0.00  0.00    -0.006 C 
ATOM     14  C   UNL     1      32.382  -8.445 -21.661  0.00  0.00    -0.000 C 
ATOM     15  C   UNL     1      31.911  -9.185 -19.410  0.00  0.00    -0.000 C 
ATOM     16  C   UNL     1      32.305  -8.181 -20.293  0.00  0.00    -0.000 C 
ENDBRANCH  10  11
ENDBRANCH   3  10
ENDBRANCH   1   2
BRANCH   1  19
ATOM     17  O   UNL     1      34.264 -17.893 -24.947  0.00  0.00    -0.276 OA
ATOM     18  N   UNL     1      35.205 -17.876 -22.826  0.00  0.00    -0.234 N 
ATOM     19  C   UNL     1      34.781 -17.294 -24.007  0.00  0.00    +0.216 C 
ATOM     20  H   UNL     1      35.613 -17.329 -22.116  0.00  0.00    +0.171 HD
BRANCH  18  21
ATOM     21  N   UNL     1      35.050 -19.210 -22.665  0.00  0.00    -0.127 NA
BRANCH  21  22
ATOM     22  C   UNL     1      34.266 -19.532 -21.687  0.00  0.00    +0.141 C 
BRANCH  22  24
ATOM     23  O   UNL     1      32.576 -21.170 -20.091  0.00  0.00    -0.287 OA
ATOM     24  C   UNL     1      34.711 -20.400 -20.583  0.00  0.00    +0.036 C 
ATOM     25  C   UNL     1      33.835 -21.184 -19.832  0.00  0.00    +0.189 C 
ATOM     26  C   UNL     1      34.324 -21.983 -18.800  0.00  0.00    +0.021 C 
ATOM     27  C   UNL     1      36.077 -20.416 -20.301  0.00  0.00    +0.000 C 
ATOM     28  C   UNL     1      35.690 -22.000 -18.518  0.00  0.00    -0.001 C 
ATOM     29  C   UNL     1      36.566 -21.217 -19.269  0.00  0.00    -0.000 C 
BRANCH  26  30
ATOM     30  C   UNL     1      33.434 -22.847 -17.957  0.00  0.00    +0.056 C 
BRANCH  30  31
ATOM     31  C   UNL     1      34.041 -23.182 -16.623  0.00  0.00    -0.021 C 
ATOM     32  C   UNL     1      33.341 -23.613 -15.568  0.00  0.00    -0.005 C 
ENDBRANCH  30  31
ENDBRANCH  26  30
ENDBRANCH  22  24
ENDBRANCH  21  22
ENDBRANCH  18  21
ENDBRANCH   1  19
TORSDOF 9
ENDMDL
MODEL 9
REMARK VINA RESULT:     -10.3      3.030      5.171
REMARK  Name = 9675990
REMARK  9 active torsions:
REMARK  status: ('A' for Active; 'I' for Inactive)
REMARK    1  A    between atoms: C_1  and  N_2
REMARK    2  A    between atoms: C_1  and  C_19
REMARK    3  A    between atoms: N_3  and  C_10
REMARK    4  A    between atoms: C_10  and  C_11
REMARK    5  A    between atoms: N_18  and  N_21
REMARK    6  A    between atoms: N_21  and  C_22
REMARK    7  A    between atoms: C_22  and  C_24
REMARK    8  A    between atoms: C_26  and  C_30
REMARK    9  A    between atoms: C_30  and  C_31
REMARK                            x       y       z     vdW  Elec       q    Type
REMARK                         _______ _______ _______ _____ _____    ______ ____
ROOT
ATOM      1  C   UNL     1      35.740 -18.268 -21.562  0.00  0.00    +0.011 C 
ENDROOT
BRANCH   1   2
ATOM      2  N   UNL     1      35.240 -19.620 -21.139  0.00  0.00    +0.390 N 
ATOM      3  N   UNL     1      34.291 -21.614 -19.290  0.00  0.00    +0.387 N 
ATOM      4  C   UNL     1      36.182 -20.294 -20.173  0.00  0.00    -0.100 C 
ATOM      5  C   UNL     1      33.842 -19.557 -20.580  0.00  0.00    -0.100 C 
ATOM      6  C   UNL     1      35.650 -21.685 -19.842  0.00  0.00    -0.100 C 
ATOM      7  C   UNL     1      33.374 -20.968 -20.239  0.00  0.00    -0.100 C 
ATOM      8  H   UNL     1      35.207 -20.194 -21.981  0.00  0.00    -0.079 HD
ATOM      9  H   UNL     1      34.321 -21.048 -18.441  0.00  0.00    -0.079 HD
BRANCH   3  10
ATOM     10  C   UNL     1      33.809 -22.949 -18.938  0.00  0.00    -0.050 C 
BRANCH  10  11
ATOM     11  C   UNL     1      33.442 -23.048 -17.481  0.00  0.00    -0.043 C 
ATOM     12  C   UNL     1      32.100 -23.033 -17.098  0.00  0.00    -0.006 C 
ATOM     13  C   UNL     1      34.442 -23.158 -16.516  0.00  0.00    -0.006 C 
ATOM     14  C   UNL     1      31.759 -23.126 -15.748  0.00  0.00    -0.000 C 
ATOM     15  C   UNL     1      34.101 -23.250 -15.165  0.00  0.00    -0.000 C 
ATOM     16  C   UNL     1      32.760 -23.234 -14.782  0.00  0.00    -0.000 C 
ENDBRANCH  10  11
ENDBRANCH   3  10
ENDBRANCH   1   2
BRANCH   1  19
ATOM     17  O   UNL     1      35.022 -18.795 -23.803  0.00  0.00    -0.276 OA
ATOM     18  N   UNL     1      35.308 -16.574 -23.192  0.00  0.00    -0.234 N 
ATOM     19  C   UNL     1      35.317 -17.940 -22.971  0.00  0.00    +0.216 C 
ATOM     20  H   UNL     1      35.558 -15.949 -22.474  0.00  0.00    +0.171 HD
BRANCH  18  21
ATOM     21  N   UNL     1      34.950 -16.114 -24.412  0.00  0.00    -0.127 NA
BRANCH  21  22
ATOM     22  C   UNL     1      33.748 -15.639 -24.461  0.00  0.00    +0.141 C 
BRANCH  22  24
ATOM     23  O   UNL     1      32.509 -15.314 -21.922  0.00  0.00    -0.287 OA
ATOM     24  C   UNL     1      33.392 -14.350 -23.841  0.00  0.00    +0.036 C 
ATOM     25  C   UNL     1      32.784 -14.251 -22.590  0.00  0.00    +0.189 C 
ATOM     26  C   UNL     1      32.474 -12.998 -22.062  0.00  0.00    +0.021 C 
ATOM     27  C   UNL     1      33.690 -13.196 -24.565  0.00  0.00    +0.000 C 
ATOM     28  C   UNL     1      32.773 -11.843 -22.785  0.00  0.00    -0.001 C 
ATOM     29  C   UNL     1      33.381 -11.942 -24.036  0.00  0.00    -0.000 C 
BRANCH  26  30
ATOM     30  C   UNL     1      31.822 -12.826 -20.723  0.00  0.00    +0.056 C 
BRANCH  30  31
ATOM     31  C   UNL     1      31.423 -11.402 -20.449  0.00  0.00    -0.021 C 
ATOM     32  C   UNL     1      31.497 -10.821 -19.246  0.00  0.00    -0.005 C 
ENDBRANCH  30  31
ENDBRANCH  26  30
ENDBRANCH  22  24
ENDBRANCH  21  22
ENDBRANCH  18  21
ENDBRANCH   1  19
TORSDOF 9
ENDMDL
