MODEL 1
REMARK VINA RESULT:      -9.3      0.000      0.000
REMARK  Name = 11149906
REMARK  7 active torsions:
REMARK  status: ('A' for Active; 'I' for Inactive)
REMARK    1  A    between atoms: C_1  and  C_3
REMARK    2  A    between atoms: C_1  and  O_6
REMARK    3  A    between atoms: C_1  and  C_15
REMARK    4  A    between atoms: C_3  and  O_4
REMARK    5  A    between atoms: O_6  and  C_7
REMARK    6  A    between atoms: C_8  and  C_13
REMARK    7  A    between atoms: C_15  and  C_16
REMARK                            x       y       z     vdW  Elec       q    Type
REMARK                         _______ _______ _______ _____ _____    ______ ____
ROOT
ATOM      1  C   UNL     1      34.691 -17.923 -23.043  0.00  0.00    +0.267 C 
ENDROOT
BRANCH   1   3
ATOM      2  O   UNL     1      34.923 -19.748 -24.634  0.00  0.00    -0.246 OA
ATOM      3  C   UNL     1      34.745 -18.556 -24.419  0.00  0.00    +0.355 C 
BRANCH   3   4
ATOM      4  O   UNL     1      34.554 -17.646 -25.409  0.00  0.00    -0.478 OA
ATOM      5  H   UNL     1      35.245 -17.462 -26.015  0.00  0.00    +0.295 HD
ENDBRANCH   3   4
ENDBRANCH   1   3
BRANCH   1   6
ATOM      6  O   UNL     1      35.577 -18.651 -22.202  0.00  0.00    -0.468 OA
BRANCH   6   7
ATOM      7  C   UNL     1      35.006 -19.535 -21.324  0.00  0.00    +0.139 C 
ATOM      8  C   UNL     1      33.849 -21.329 -19.541  0.00  0.00    -0.022 C 
ATOM      9  C   UNL     1      35.809 -20.444 -20.643  0.00  0.00    +0.037 C 
ATOM     10  C   UNL     1      33.631 -19.515 -21.121  0.00  0.00    +0.037 C 
ATOM     11  C   UNL     1      35.228 -21.345 -19.749  0.00  0.00    -0.001 C 
ATOM     12  C   UNL     1      33.050 -20.414 -20.226  0.00  0.00    -0.001 C 
BRANCH   8  13
ATOM     13  C   UNL     1      33.230 -22.290 -18.584  0.00  0.00    +0.026 C 
ATOM     14  C   UNL     1      34.242 -22.856 -17.591  0.00  0.00    +0.005 C 
ENDBRANCH   8  13
ENDBRANCH   6   7
ENDBRANCH   1   6
BRANCH   1  15
ATOM     15  C   UNL     1      35.151 -16.457 -23.083  0.00  0.00    +0.082 C 
BRANCH  15  16
ATOM     16  C   UNL     1      34.184 -15.534 -22.422  0.00  0.00    -0.018 C 
ATOM     17  C   UNL     1      33.617 -14.483 -23.144  0.00  0.00    -0.004 C 
ATOM     18  C   UNL     1      33.846 -15.720 -21.081  0.00  0.00    -0.004 C 
ATOM     19  C   UNL     1      32.713 -13.620 -22.527  0.00  0.00    -0.000 C 
ATOM     20  C   UNL     1      32.941 -14.857 -20.464  0.00  0.00    -0.000 C 
ATOM     21  C   UNL     1      32.374 -13.806 -21.187  0.00  0.00    -0.000 C 
ENDBRANCH  15  16
ENDBRANCH   1  15
TORSDOF 7
ENDMDL
MODEL 2
REMARK VINA RESULT:      -9.3      0.059      1.082
REMARK  Name = 11149906
REMARK  7 active torsions:
REMARK  status: ('A' for Active; 'I' for Inactive)
REMARK    1  A    between atoms: C_1  and  C_3
REMARK    2  A    between atoms: C_1  and  O_6
REMARK    3  A    between atoms: C_1  and  C_15
REMARK    4  A    between atoms: C_3  and  O_4
REMARK    5  A    between atoms: O_6  and  C_7
REMARK    6  A    between atoms: C_8  and  C_13
REMARK    7  A    between atoms: C_15  and  C_16
REMARK                            x       y       z     vdW  Elec       q    Type
REMARK                         _______ _______ _______ _____ _____    ______ ____
ROOT
ATOM      1  C   UNL     1      34.718 -17.943 -23.001  0.00  0.00    +0.267 C 
ENDROOT
BRANCH   1   3
ATOM      2  O   UNL     1      34.915 -19.747 -24.620  0.00  0.00    -0.246 OA
ATOM      3  C   UNL     1      34.767 -18.555 -24.386  0.00  0.00    +0.355 C 
BRANCH   3   4
ATOM      4  O   UNL     1      34.611 -17.624 -25.363  0.00  0.00    -0.478 OA
ATOM      5  H   UNL     1      33.825 -17.608 -25.872  0.00  0.00    +0.295 HD
ENDBRANCH   3   4
ENDBRANCH   1   3
BRANCH   1   6
ATOM      6  O   UNL     1      35.597 -18.691 -22.171  0.00  0.00    -0.468 OA
BRANCH   6   7
ATOM      7  C   UNL     1      35.018 -19.572 -21.295  0.00  0.00    +0.139 C 
ATOM      8  C   UNL     1      33.839 -21.359 -19.520  0.00  0.00    -0.022 C 
ATOM      9  C   UNL     1      33.641 -19.539 -21.097  0.00  0.00    +0.037 C 
ATOM     10  C   UNL     1      35.810 -20.490 -20.615  0.00  0.00    +0.037 C 
ATOM     11  C   UNL     1      33.051 -20.435 -20.206  0.00  0.00    -0.001 C 
ATOM     12  C   UNL     1      35.219 -21.386 -19.725  0.00  0.00    -0.001 C 
BRANCH   8  13
ATOM     13  C   UNL     1      33.207 -22.318 -18.569  0.00  0.00    +0.026 C 
ATOM     14  C   UNL     1      34.198 -22.850 -17.536  0.00  0.00    +0.005 C 
ENDBRANCH   8  13
ENDBRANCH   6   7
ENDBRANCH   1   6
BRANCH   1  15
ATOM     15  C   UNL     1      35.190 -16.480 -23.018  0.00  0.00    +0.082 C 
BRANCH  15  16
ATOM     16  C   UNL     1      34.220 -15.557 -22.362  0.00  0.00    -0.018 C 
ATOM     17  C   UNL     1      33.676 -14.491 -23.079  0.00  0.00    -0.004 C 
ATOM     18  C   UNL     1      33.856 -15.758 -21.030  0.00  0.00    -0.004 C 
ATOM     19  C   UNL     1      32.770 -13.627 -22.466  0.00  0.00    -0.000 C 
ATOM     20  C   UNL     1      32.949 -14.893 -20.417  0.00  0.00    -0.000 C 
ATOM     21  C   UNL     1      32.406 -13.828 -21.135  0.00  0.00    -0.000 C 
ENDBRANCH  15  16
ENDBRANCH   1  15
TORSDOF 7
ENDMDL
MODEL 3
REMARK VINA RESULT:      -9.2      3.910      8.072
REMARK  Name = 11149906
REMARK  7 active torsions:
REMARK  status: ('A' for Active; 'I' for Inactive)
REMARK    1  A    between atoms: C_1  and  C_3
REMARK    2  A    between atoms: C_1  and  O_6
REMARK    3  A    between atoms: C_1  and  C_15
REMARK    4  A    between atoms: C_3  and  O_4
REMARK    5  A    between atoms: O_6  and  C_7
REMARK    6  A    between atoms: C_8  and  C_13
REMARK    7  A    between atoms: C_15  and  C_16
REMARK                            x       y       z     vdW  Elec       q    Type
REMARK                         _______ _______ _______ _____ _____    ______ ____
ROOT
ATOM      1  C   UNL     1      34.924 -22.677 -16.712  0.00  0.00    +0.267 C 
ENDROOT
BRANCH   1   3
ATOM      2  O   UNL     1      37.011 -21.495 -16.309  0.00  0.00    -0.246 OA
ATOM      3  C   UNL     1      36.384 -22.546 -16.330  0.00  0.00    +0.355 C 
BRANCH   3   4
ATOM      4  O   UNL     1      36.933 -23.741 -15.989  0.00  0.00    -0.478 OA
ATOM      5  H   UNL     1      37.655 -24.081 -16.480  0.00  0.00    +0.295 HD
ENDBRANCH   3   4
ENDBRANCH   1   3
BRANCH   1   6
ATOM      6  O   UNL     1      34.871 -23.023 -18.091  0.00  0.00    -0.468 OA
BRANCH   6   7
ATOM      7  C   UNL     1      34.712 -21.992 -18.979  0.00  0.00    +0.139 C 
ATOM      8  C   UNL     1      34.390 -19.901 -20.784  0.00  0.00    -0.022 C 
ATOM      9  C   UNL     1      35.831 -21.411 -19.566  0.00  0.00    +0.037 C 
ATOM     10  C   UNL     1      33.434 -21.539 -19.287  0.00  0.00    +0.037 C 
ATOM     11  C   UNL     1      35.669 -20.361 -20.471  0.00  0.00    -0.001 C 
ATOM     12  C   UNL     1      33.273 -20.490 -20.192  0.00  0.00    -0.001 C 
BRANCH   8  13
ATOM     13  C   UNL     1      34.218 -18.780 -21.752  0.00  0.00    +0.026 C 
ATOM     14  C   UNL     1      34.999 -19.004 -23.045  0.00  0.00    +0.005 C 
ENDBRANCH   8  13
ENDBRANCH   6   7
ENDBRANCH   1   6
BRANCH   1  15
ATOM     15  C   UNL     1      34.230 -23.786 -15.904  0.00  0.00    +0.082 C 
BRANCH  15  16
ATOM     16  C   UNL     1      32.817 -23.451 -15.566  0.00  0.00    -0.018 C 
ATOM     17  C   UNL     1      31.894 -23.213 -16.585  0.00  0.00    -0.004 C 
ATOM     18  C   UNL     1      32.417 -23.376 -14.231  0.00  0.00    -0.004 C 
ATOM     19  C   UNL     1      30.572 -22.900 -16.269  0.00  0.00    -0.000 C 
ATOM     20  C   UNL     1      31.094 -23.063 -13.917  0.00  0.00    -0.000 C 
ATOM     21  C   UNL     1      30.172 -22.825 -14.935  0.00  0.00    -0.000 C 
ENDBRANCH  15  16
ENDBRANCH   1  15
TORSDOF 7
ENDMDL
MODEL 4
REMARK VINA RESULT:      -8.9      1.934      3.440
REMARK  Name = 11149906
REMARK  7 active torsions:
REMARK  status: ('A' for Active; 'I' for Inactive)
REMARK    1  A    between atoms: C_1  and  C_3
REMARK    2  A    between atoms: C_1  and  O_6
REMARK    3  A    between atoms: C_1  and  C_15
REMARK    4  A    between atoms: C_3  and  O_4
REMARK    5  A    between atoms: O_6  and  C_7
REMARK    6  A    between atoms: C_8  and  C_13
REMARK    7  A    between atoms: C_15  and  C_16
REMARK                            x       y       z     vdW  Elec       q    Type
REMARK                         _______ _______ _______ _____ _____    ______ ____
ROOT
ATOM      1  C   UNL     1      33.635 -14.867 -24.238  0.00  0.00    +0.267 C 
ENDROOT
BRANCH   1   3
ATOM      2  O   UNL     1      33.630 -16.072 -26.350  0.00  0.00    -0.246 OA
ATOM      3  C   UNL     1      33.218 -15.143 -25.669  0.00  0.00    +0.355 C 
BRANCH   3   4
ATOM      4  O   UNL     1      32.308 -14.242 -26.120  0.00  0.00    -0.478 OA
ATOM      5  H   UNL     1      31.546 -14.536 -26.579  0.00  0.00    +0.295 HD
ENDBRANCH   3   4
ENDBRANCH   1   3
BRANCH   1   6
ATOM      6  O   UNL     1      34.852 -15.565 -24.004  0.00  0.00    -0.468 OA
BRANCH   6   7
ATOM      7  C   UNL     1      34.781 -16.677 -23.207  0.00  0.00    +0.139 C 
ATOM      8  C   UNL     1      34.634 -18.934 -21.589  0.00  0.00    -0.022 C 
ATOM      9  C   UNL     1      34.508 -16.535 -21.850  0.00  0.00    +0.037 C 
ATOM     10  C   UNL     1      34.980 -17.936 -23.762  0.00  0.00    +0.037 C 
ATOM     11  C   UNL     1      34.436 -17.668 -21.039  0.00  0.00    -0.001 C 
ATOM     12  C   UNL     1      34.906 -19.069 -22.950  0.00  0.00    -0.001 C 
BRANCH   8  13
ATOM     13  C   UNL     1      34.555 -20.144 -20.721  0.00  0.00    +0.026 C 
ATOM     14  C   UNL     1      33.136 -20.415 -20.229  0.00  0.00    +0.005 C 
ENDBRANCH   8  13
ENDBRANCH   6   7
ENDBRANCH   1   6
BRANCH   1  15
ATOM     15  C   UNL     1      33.879 -13.367 -24.005  0.00  0.00    +0.082 C 
BRANCH  15  16
ATOM     16  C   UNL     1      33.025 -12.808 -22.919  0.00  0.00    -0.018 C 
ATOM     17  C   UNL     1      32.496 -11.522 -23.039  0.00  0.00    -0.004 C 
ATOM     18  C   UNL     1      32.753 -13.570 -21.782  0.00  0.00    -0.004 C 
ATOM     19  C   UNL     1      31.696 -10.999 -22.024  0.00  0.00    -0.000 C 
ATOM     20  C   UNL     1      31.953 -13.046 -20.766  0.00  0.00    -0.000 C 
ATOM     21  C   UNL     1      31.425 -11.760 -20.887  0.00  0.00    -0.000 C 
ENDBRANCH  15  16
ENDBRANCH   1  15
TORSDOF 7
ENDMDL
MODEL 5
REMARK VINA RESULT:      -8.7      6.454      9.762
REMARK  Name = 11149906
REMARK  7 active torsions:
REMARK  status: ('A' for Active; 'I' for Inactive)
REMARK    1  A    between atoms: C_1  and  C_3
REMARK    2  A    between atoms: C_1  and  O_6
REMARK    3  A    between atoms: C_1  and  C_15
REMARK    4  A    between atoms: C_3  and  O_4
REMARK    5  A    between atoms: O_6  and  C_7
REMARK    6  A    between atoms: C_8  and  C_13
REMARK    7  A    between atoms: C_15  and  C_16
REMARK                            x       y       z     vdW  Elec       q    Type
REMARK                         _______ _______ _______ _____ _____    ______ ____
ROOT
ATOM      1  C   UNL     1      32.435  -8.435 -21.542  0.00  0.00    +0.267 C 
ENDROOT
BRANCH   1   3
ATOM      2  O   UNL     1      31.945  -9.226 -19.295  0.00  0.00    -0.246 OA
ATOM      3  C   UNL     1      32.464  -8.394 -20.028  0.00  0.00    +0.355 C 
BRANCH   3   4
ATOM      4  O   UNL     1      33.154  -7.323 -19.558  0.00  0.00    -0.478 OA
ATOM      5  H   UNL     1      33.835  -6.941 -20.076  0.00  0.00    +0.295 HD
ENDBRANCH   3   4
ENDBRANCH   1   3
BRANCH   1   6
ATOM      6  O   UNL     1      31.530  -9.463 -21.926  0.00  0.00    -0.468 OA
BRANCH   6   7
ATOM      7  C   UNL     1      32.081 -10.620 -22.413  0.00  0.00    +0.139 C 
ATOM      8  C   UNL     1      33.202 -12.965 -23.401  0.00  0.00    -0.022 C 
ATOM      9  C   UNL     1      33.005 -10.557 -23.450  0.00  0.00    +0.037 C 
ATOM     10  C   UNL     1      31.713 -11.843 -21.865  0.00  0.00    +0.037 C 
ATOM     11  C   UNL     1      33.567 -11.734 -23.946  0.00  0.00    -0.001 C 
ATOM     12  C   UNL     1      32.275 -13.019 -22.360  0.00  0.00    -0.001 C 
BRANCH   8  13
ATOM     13  C   UNL     1      33.803 -14.222 -23.931  0.00  0.00    +0.026 C 
ATOM     14  C   UNL     1      34.481 -15.047 -22.840  0.00  0.00    +0.005 C 
ENDBRANCH   8  13
ENDBRANCH   6   7
ENDBRANCH   1   6
BRANCH   1  15
ATOM     15  C   UNL     1      31.940  -7.104 -22.129  0.00  0.00    +0.082 C 
BRANCH  15  16
ATOM     16  C   UNL     1      32.695  -6.699 -23.350  0.00  0.00    -0.018 C 
ATOM     17  C   UNL     1      32.117  -5.821 -24.268  0.00  0.00    -0.004 C 
ATOM     18  C   UNL     1      33.978  -7.198 -23.575  0.00  0.00    -0.004 C 
ATOM     19  C   UNL     1      32.823  -5.442 -25.409  0.00  0.00    -0.000 C 
ATOM     20  C   UNL     1      34.683  -6.818 -24.717  0.00  0.00    -0.000 C 
ATOM     21  C   UNL     1      34.106  -5.940 -25.634  0.00  0.00    -0.000 C 
ENDBRANCH  15  16
ENDBRANCH   1  15
TORSDOF 7
ENDMDL
MODEL 6
REMARK VINA RESULT:      -8.7      1.007      6.017
REMARK  Name = 11149906
REMARK  7 active torsions:
REMARK  status: ('A' for Active; 'I' for Inactive)
REMARK    1  A    between atoms: C_1  and  C_3
REMARK    2  A    between atoms: C_1  and  O_6
REMARK    3  A    between atoms: C_1  and  C_15
REMARK    4  A    between atoms: C_3  and  O_4
REMARK    5  A    between atoms: O_6  and  C_7
REMARK    6  A    between atoms: C_8  and  C_13
REMARK    7  A    between atoms: C_15  and  C_16
REMARK                            x       y       z     vdW  Elec       q    Type
REMARK                         _______ _______ _______ _____ _____    ______ ____
ROOT
ATOM      1  C   UNL     1      35.173 -18.053 -23.165  0.00  0.00    +0.267 C 
ENDROOT
BRANCH   1   3
ATOM      2  O   UNL     1      34.457 -17.678 -25.459  0.00  0.00    -0.246 OA
ATOM      3  C   UNL     1      34.748 -18.458 -24.562  0.00  0.00    +0.355 C 
BRANCH   3   4
ATOM      4  O   UNL     1      34.739 -19.807 -24.723  0.00  0.00    -0.478 OA
ATOM      5  H   UNL     1      35.546 -20.284 -24.719  0.00  0.00    +0.295 HD
ENDBRANCH   3   4
ENDBRANCH   1   3
BRANCH   1   6
ATOM      6  O   UNL     1      35.516 -16.673 -23.205  0.00  0.00    -0.468 OA
BRANCH   6   7
ATOM      7  C   UNL     1      34.673 -15.809 -22.558  0.00  0.00    +0.139 C 
ATOM      8  C   UNL     1      32.958 -14.055 -21.247  0.00  0.00    -0.022 C 
ATOM      9  C   UNL     1      33.753 -15.066 -23.292  0.00  0.00    +0.037 C 
ATOM     10  C   UNL     1      34.742 -15.683 -21.176  0.00  0.00    +0.037 C 
ATOM     11  C   UNL     1      32.894 -14.186 -22.634  0.00  0.00    -0.001 C 
ATOM     12  C   UNL     1      33.882 -14.804 -20.518  0.00  0.00    -0.001 C 
BRANCH   8  13
ATOM     13  C   UNL     1      32.038 -13.115 -20.544  0.00  0.00    +0.026 C 
ATOM     14  C   UNL     1      31.572 -11.975 -21.446  0.00  0.00    +0.005 C 
ENDBRANCH   8  13
ENDBRANCH   6   7
ENDBRANCH   1   6
BRANCH   1  15
ATOM     15  C   UNL     1      34.030 -18.242 -22.155  0.00  0.00    +0.082 C 
BRANCH  15  16
ATOM     16  C   UNL     1      34.271 -19.380 -21.221  0.00  0.00    -0.018 C 
ATOM     17  C   UNL     1      35.576 -19.772 -20.922  0.00  0.00    -0.004 C 
ATOM     18  C   UNL     1      33.192 -20.053 -20.647  0.00  0.00    -0.004 C 
ATOM     19  C   UNL     1      35.802 -20.836 -20.050  0.00  0.00    -0.000 C 
ATOM     20  C   UNL     1      33.419 -21.117 -19.774  0.00  0.00    -0.000 C 
ATOM     21  C   UNL     1      34.724 -21.509 -19.475  0.00  0.00    -0.000 C 
ENDBRANCH  15  16
ENDBRANCH   1  15
TORSDOF 7
ENDMDL
MODEL 7
REMARK VINA RESULT:      -8.5      2.090      7.001
REMARK  Name = 11149906
REMARK  7 active torsions:
REMARK  status: ('A' for Active; 'I' for Inactive)
REMARK    1  A    between atoms: C_1  and  C_3
REMARK    2  A    between atoms: C_1  and  O_6
REMARK    3  A    between atoms: C_1  and  C_15
REMARK    4  A    between atoms: C_3  and  O_4
REMARK    5  A    between atoms: O_6  and  C_7
REMARK    6  A    between atoms: C_8  and  C_13
REMARK    7  A    between atoms: C_15  and  C_16
REMARK                            x       y       z     vdW  Elec       q    Type
REMARK                         _______ _______ _______ _____ _____    ______ ____
ROOT
ATOM      1  C   UNL     1      34.943 -17.756 -21.823  0.00  0.00    +0.267 C 
ENDROOT
BRANCH   1   3
ATOM      2  O   UNL     1      35.143 -16.110 -20.043  0.00  0.00    -0.246 OA
ATOM      3  C   UNL     1      34.435 -16.755 -20.804  0.00  0.00    +0.355 C 
BRANCH   3   4
ATOM      4  O   UNL     1      33.082 -16.634 -20.837  0.00  0.00    -0.478 OA
ATOM      5  H   UNL     1      32.563 -17.297 -21.248  0.00  0.00    +0.295 HD
ENDBRANCH   3   4
ENDBRANCH   1   3
BRANCH   1   6
ATOM      6  O   UNL     1      35.645 -17.029 -22.823  0.00  0.00    -0.468 OA
BRANCH   6   7
ATOM      7  C   UNL     1      34.886 -16.332 -23.726  0.00  0.00    +0.139 C 
ATOM      8  C   UNL     1      33.343 -14.919 -25.559  0.00  0.00    -0.022 C 
ATOM      9  C   UNL     1      34.490 -16.945 -24.910  0.00  0.00    +0.037 C 
ATOM     10  C   UNL     1      34.518 -15.020 -23.450  0.00  0.00    +0.037 C 
ATOM     11  C   UNL     1      33.717 -16.236 -25.830  0.00  0.00    -0.001 C 
ATOM     12  C   UNL     1      33.744 -14.312 -24.369  0.00  0.00    -0.001 C 
BRANCH   8  13
ATOM     13  C   UNL     1      32.516 -14.162 -26.542  0.00  0.00    +0.026 C 
ATOM     14  C   UNL     1      33.330 -13.123 -27.308  0.00  0.00    +0.005 C 
ENDBRANCH   8  13
ENDBRANCH   6   7
ENDBRANCH   1   6
BRANCH   1  15
ATOM     15  C   UNL     1      35.910 -18.764 -21.182  0.00  0.00    +0.082 C 
BRANCH  15  16
ATOM     16  C   UNL     1      35.203 -19.914 -20.547  0.00  0.00    -0.018 C 
ATOM     17  C   UNL     1      35.933 -20.902 -19.885  0.00  0.00    -0.004 C 
ATOM     18  C   UNL     1      33.812 -20.001 -20.615  0.00  0.00    -0.004 C 
ATOM     19  C   UNL     1      35.272 -21.977 -19.292  0.00  0.00    -0.000 C 
ATOM     20  C   UNL     1      33.152 -21.077 -20.020  0.00  0.00    -0.000 C 
ATOM     21  C   UNL     1      33.882 -22.065 -19.359  0.00  0.00    -0.000 C 
ENDBRANCH  15  16
ENDBRANCH   1  15
TORSDOF 7
ENDMDL
MODEL 8
REMARK VINA RESULT:      -8.5      6.541      9.036
REMARK  Name = 11149906
REMARK  7 active torsions:
REMARK  status: ('A' for Active; 'I' for Inactive)
REMARK    1  A    between atoms: C_1  and  C_3
REMARK    2  A    between atoms: C_1  and  O_6
REMARK    3  A    between atoms: C_1  and  C_15
REMARK    4  A    between atoms: C_3  and  O_4
REMARK    5  A    between atoms: O_6  and  C_7
REMARK    6  A    between atoms: C_8  and  C_13
REMARK    7  A    between atoms: C_15  and  C_16
REMARK                            x       y       z     vdW  Elec       q    Type
REMARK                         _______ _______ _______ _____ _____    ______ ____
ROOT
ATOM      1  C   UNL     1      34.939 -24.287 -15.378  0.00  0.00    +0.267 C 
ENDROOT
BRANCH   1   3
ATOM      2  O   UNL     1      36.122 -26.385 -15.711  0.00  0.00    -0.246 OA
ATOM      3  C   UNL     1      35.736 -25.504 -14.955  0.00  0.00    +0.355 C 
BRANCH   3   4
ATOM      4  O   UNL     1      35.997 -25.507 -13.622  0.00  0.00    -0.478 OA
ATOM      5  H   UNL     1      36.611 -24.896 -13.264  0.00  0.00    +0.295 HD
ENDBRANCH   3   4
ENDBRANCH   1   3
BRANCH   1   6
ATOM      6  O   UNL     1      34.042 -23.973 -14.320  0.00  0.00    -0.468 OA
BRANCH   6   7
ATOM      7  C   UNL     1      32.703 -24.042 -14.606  0.00  0.00    +0.139 C 
ATOM      8  C   UNL     1      29.988 -24.184 -15.188  0.00  0.00    -0.022 C 
ATOM      9  C   UNL     1      32.152 -23.167 -15.536  0.00  0.00    +0.037 C 
ATOM     10  C   UNL     1      31.910 -24.987 -13.965  0.00  0.00    +0.037 C 
ATOM     11  C   UNL     1      30.789 -23.238 -15.827  0.00  0.00    -0.001 C 
ATOM     12  C   UNL     1      30.548 -25.058 -14.257  0.00  0.00    -0.001 C 
BRANCH   8  13
ATOM     13  C   UNL     1      28.532 -24.259 -15.501  0.00  0.00    +0.026 C 
ATOM     14  C   UNL     1      28.187 -23.590 -16.829  0.00  0.00    +0.005 C 
ENDBRANCH   8  13
ENDBRANCH   6   7
ENDBRANCH   1   6
BRANCH   1  15
ATOM     15  C   UNL     1      35.853 -23.075 -15.619  0.00  0.00    +0.082 C 
BRANCH  15  16
ATOM     16  C   UNL     1      35.725 -22.524 -16.999  0.00  0.00    -0.018 C 
ATOM     17  C   UNL     1      34.552 -22.730 -17.726  0.00  0.00    -0.004 C 
ATOM     18  C   UNL     1      36.778 -21.804 -17.564  0.00  0.00    -0.004 C 
ATOM     19  C   UNL     1      34.432 -22.216 -19.017  0.00  0.00    -0.000 C 
ATOM     20  C   UNL     1      36.657 -21.289 -18.855  0.00  0.00    -0.000 C 
ATOM     21  C   UNL     1      35.484 -21.495 -19.581  0.00  0.00    -0.000 C 
ENDBRANCH  15  16
ENDBRANCH   1  15
TORSDOF 7
ENDMDL
MODEL 9
REMARK VINA RESULT:      -8.4      5.249      8.071
REMARK  Name = 11149906
REMARK  7 active torsions:
REMARK  status: ('A' for Active; 'I' for Inactive)
REMARK    1  A    between atoms: C_1  and  C_3
REMARK    2  A    between atoms: C_1  and  O_6
REMARK    3  A    between atoms: C_1  and  C_15
REMARK    4  A    between atoms: C_3  and  O_4
REMARK    5  A    between atoms: O_6  and  C_7
REMARK    6  A    between atoms: C_8  and  C_13
REMARK    7  A    between atoms: C_15  and  C_16
REMARK                            x       y       z     vdW  Elec       q    Type
REMARK                         _______ _______ _______ _____ _____    ______ ____
ROOT
ATOM      1  C   UNL     1      31.982 -10.373 -21.435  0.00  0.00    +0.267 C 
ENDROOT
BRANCH   1   3
ATOM      2  O   UNL     1      30.782 -10.371 -19.319  0.00  0.00    -0.246 OA
ATOM      3  C   UNL     1      31.700  -9.947 -20.008  0.00  0.00    +0.355 C 
BRANCH   3   4
ATOM      4  O   UNL     1      32.603  -9.038 -19.557  0.00  0.00    -0.478 OA
ATOM      5  H   UNL     1      33.144  -8.574 -20.166  0.00  0.00    +0.295 HD
ENDBRANCH   3   4
ENDBRANCH   1   3
BRANCH   1   6
ATOM      6  O   UNL     1      31.350 -11.631 -21.639  0.00  0.00    -0.468 OA
BRANCH   6   7
ATOM      7  C   UNL     1      32.173 -12.712 -21.816  0.00  0.00    +0.139 C 
ATOM      8  C   UNL     1      33.844 -14.905 -22.176  0.00  0.00    -0.022 C 
ATOM      9  C   UNL     1      32.801 -12.905 -23.041  0.00  0.00    +0.037 C 
ATOM     10  C   UNL     1      32.372 -13.605 -20.769  0.00  0.00    +0.037 C 
ATOM     11  C   UNL     1      33.639 -14.006 -23.222  0.00  0.00    -0.001 C 
ATOM     12  C   UNL     1      33.211 -14.705 -20.949  0.00  0.00    -0.001 C 
BRANCH   8  13
ATOM     13  C   UNL     1      34.741 -16.081 -22.370  0.00  0.00    +0.026 C 
ATOM     14  C   UNL     1      34.948 -16.872 -21.081  0.00  0.00    +0.005 C 
ENDBRANCH   8  13
ENDBRANCH   6   7
ENDBRANCH   1   6
BRANCH   1  15
ATOM     15  C   UNL     1      31.404  -9.367 -22.443  0.00  0.00    +0.082 C 
BRANCH  15  16
ATOM     16  C   UNL     1      32.461  -8.560 -23.119  0.00  0.00    -0.018 C 
ATOM     17  C   UNL     1      33.730  -9.102 -23.320  0.00  0.00    -0.004 C 
ATOM     18  C   UNL     1      32.181  -7.263 -23.548  0.00  0.00    -0.004 C 
ATOM     19  C   UNL     1      34.719  -8.348 -23.951  0.00  0.00    -0.000 C 
ATOM     20  C   UNL     1      33.170  -6.509 -24.180  0.00  0.00    -0.000 C 
ATOM     21  C   UNL     1      34.439  -7.051 -24.382  0.00  0.00    -0.000 C 
ENDBRANCH  15  16
ENDBRANCH   1  15
TORSDOF 7
ENDMDL
