MODEL 1
REMARK VINA RESULT:      -9.3      0.000      0.000
REMARK  Name = 25128145
REMARK  5 active torsions:
REMARK  status: ('A' for Active; 'I' for Inactive)
REMARK    1  A    between atoms: C_3  and  C_23
REMARK    2  A    between atoms: C_9  and  C_10
REMARK    3  A    between atoms: C_11  and  C_19
REMARK    4  A    between atoms: C_23  and  O_24
REMARK    5  A    between atoms: O_24  and  C_27
REMARK                            x       y       z     vdW  Elec       q    Type
REMARK                         _______ _______ _______ _____ _____    ______ ____
ROOT
ATOM      1  O   UNL     1      33.424 -23.947 -18.512  0.00  0.00    -0.270 OA
ATOM      2  N   UNL     1      32.802 -23.323 -16.340  0.00  0.00    -0.278 N 
ATOM      3  C   UNL     1      32.672 -23.527 -13.853  0.00  0.00    +0.064 C 
ATOM      4  C   UNL     1      31.393 -23.714 -16.529  0.00  0.00    +0.076 C 
ATOM      5  C   UNL     1      31.187 -23.885 -13.992  0.00  0.00    +0.007 C 
ATOM      6  C   UNL     1      30.875 -24.533 -15.339  0.00  0.00    +0.020 C 
ATOM      7  C   UNL     1      33.141 -22.694 -15.051  0.00  0.00    +0.097 C 
ATOM      8  C   UNL     1      30.518 -22.492 -16.822  0.00  0.00    +0.022 C 
ATOM      9  C   UNL     1      33.680 -23.429 -17.426  0.00  0.00    +0.250 C 
ENDROOT
BRANCH   9  10
ATOM     10  C   UNL     1      35.033 -22.883 -17.276  0.00  0.00    +0.063 C 
ATOM     11  C   UNL     1      35.499 -21.843 -18.080  0.00  0.00    +0.066 C 
ATOM     12  C   UNL     1      35.862 -23.435 -16.299  0.00  0.00    +0.001 C 
ATOM     13  C   UNL     1      37.156 -22.945 -16.126  0.00  0.00    -0.022 C 
ATOM     14  C   UNL     1      36.794 -21.353 -17.906  0.00  0.00    +0.010 C 
ATOM     15  C   UNL     1      37.622 -21.904 -16.930  0.00  0.00    -0.004 C 
ATOM     16  C   UNL     1      38.044 -23.533 -15.081  0.00  0.00    +0.031 C 
BRANCH  11  19
ATOM     17  N   UNL     1      33.330 -21.312 -18.902  0.00  0.00    -0.215 NA
ATOM     18  N   UNL     1      35.294 -20.695 -20.154  0.00  0.00    -0.193 NA
ATOM     19  C   UNL     1      34.660 -21.250 -19.104  0.00  0.00    +0.031 C 
ATOM     20  C   UNL     1      32.579 -20.751 -19.873  0.00  0.00    +0.164 C 
ATOM     21  C   UNL     1      34.484 -20.153 -21.086  0.00  0.00    +0.107 C 
ATOM     22  C   UNL     1      33.106 -20.152 -20.998  0.00  0.00    +0.022 C 
ENDBRANCH  11  19
ENDBRANCH   9  10
BRANCH   3  23
ATOM     23  C   UNL     1      33.545 -24.772 -13.671  0.00  0.00    +0.209 C 
BRANCH  23  24
ATOM     24  O   UNL     1      34.042 -24.777 -12.347  0.00  0.00    -0.460 OA
BRANCH  24  27
ATOM     25  F   UNL     1      39.361 -23.840 -11.695  0.00  0.00    -0.203 F 
ATOM     26  N   UNL     1      36.226 -25.568 -12.283  0.00  0.00    -0.208 NA
ATOM     27  C   UNL     1      35.381 -24.518 -12.180  0.00  0.00    +0.225 C 
ATOM     28  C   UNL     1      35.787 -23.219 -11.917  0.00  0.00    +0.060 C 
ATOM     29  C   UNL     1      37.147 -22.983 -11.752  0.00  0.00    +0.036 C 
ATOM     30  C   UNL     1      37.541 -25.300 -12.116  0.00  0.00    +0.132 C 
ATOM     31  C   UNL     1      38.047 -24.038 -11.851  0.00  0.00    +0.159 C 
ENDBRANCH  24  27
ENDBRANCH  23  24
ENDBRANCH   3  23
TORSDOF 5
ENDMDL
MODEL 2
REMARK VINA RESULT:      -9.1     10.087     14.018
REMARK  Name = 25128145
REMARK  5 active torsions:
REMARK  status: ('A' for Active; 'I' for Inactive)
REMARK    1  A    between atoms: C_3  and  C_23
REMARK    2  A    between atoms: C_9  and  C_10
REMARK    3  A    between atoms: C_11  and  C_19
REMARK    4  A    between atoms: C_23  and  O_24
REMARK    5  A    between atoms: O_24  and  C_27
REMARK                            x       y       z     vdW  Elec       q    Type
REMARK                         _______ _______ _______ _____ _____    ______ ____
ROOT
ATOM      1  O   UNL     1      31.058 -10.183 -22.855  0.00  0.00    -0.270 OA
ATOM      2  N   UNL     1      32.550 -11.778 -22.003  0.00  0.00    -0.278 N 
ATOM      3  C   UNL     1      33.905 -13.877 -22.020  0.00  0.00    +0.064 C 
ATOM      4  C   UNL     1      31.572 -12.319 -21.041  0.00  0.00    +0.076 C 
ATOM      5  C   UNL     1      32.948 -14.466 -20.977  0.00  0.00    +0.007 C 
ATOM      6  C   UNL     1      31.552 -13.853 -21.067  0.00  0.00    +0.020 C 
ATOM      7  C   UNL     1      33.908 -12.346 -21.947  0.00  0.00    +0.097 C 
ATOM      8  C   UNL     1      31.816 -11.760 -19.637  0.00  0.00    +0.022 C 
ATOM      9  C   UNL     1      32.183 -10.678 -22.790  0.00  0.00    +0.250 C 
ENDROOT
BRANCH   9  10
ATOM     10  C   UNL     1      33.214 -10.047 -23.619  0.00  0.00    +0.063 C 
ATOM     11  C   UNL     1      33.596  -8.718 -23.432  0.00  0.00    +0.066 C 
ATOM     12  C   UNL     1      33.815 -10.811 -24.619  0.00  0.00    +0.001 C 
ATOM     13  C   UNL     1      34.799 -10.247 -25.431  0.00  0.00    -0.022 C 
ATOM     14  C   UNL     1      34.580  -8.154 -24.244  0.00  0.00    +0.010 C 
ATOM     15  C   UNL     1      35.181  -8.919 -25.244  0.00  0.00    -0.004 C 
ATOM     16  C   UNL     1      35.444 -11.064 -26.500  0.00  0.00    +0.031 C 
BRANCH  11  19
ATOM     17  N   UNL     1      33.277  -8.223 -21.127  0.00  0.00    -0.215 NA
ATOM     18  N   UNL     1      32.194  -6.895 -22.821  0.00  0.00    -0.193 NA
ATOM     19  C   UNL     1      32.987  -7.899 -22.401  0.00  0.00    +0.031 C 
ATOM     20  C   UNL     1      32.695  -7.441 -20.194  0.00  0.00    +0.164 C 
ATOM     21  C   UNL     1      31.646  -6.153 -21.837  0.00  0.00    +0.107 C 
ATOM     22  C   UNL     1      31.863  -6.382 -20.493  0.00  0.00    +0.022 C 
ENDBRANCH  11  19
ENDBRANCH   9  10
BRANCH   3  23
ATOM     23  C   UNL     1      33.576 -14.361 -23.435  0.00  0.00    +0.209 C 
BRANCH  23  24
ATOM     24  O   UNL     1      34.749 -14.915 -24.000  0.00  0.00    -0.460 OA
BRANCH  24  27
ATOM     25  F   UNL     1      34.932 -20.328 -24.500  0.00  0.00    -0.203 F 
ATOM     26  N   UNL     1      34.345 -16.829 -25.254  0.00  0.00    -0.208 NA
ATOM     27  C   UNL     1      34.806 -16.283 -24.106  0.00  0.00    +0.225 C 
ATOM     28  C   UNL     1      35.320 -17.019 -23.050  0.00  0.00    +0.060 C 
ATOM     29  C   UNL     1      35.365 -18.402 -23.181  0.00  0.00    +0.036 C 
ATOM     30  C   UNL     1      34.405 -18.176 -25.345  0.00  0.00    +0.132 C 
ATOM     31  C   UNL     1      34.901 -18.999 -24.348  0.00  0.00    +0.159 C 
ENDBRANCH  24  27
ENDBRANCH  23  24
ENDBRANCH   3  23
TORSDOF 5
ENDMDL
MODEL 3
REMARK VINA RESULT:      -9.0      8.598     13.157
REMARK  Name = 25128145
REMARK  5 active torsions:
REMARK  status: ('A' for Active; 'I' for Inactive)
REMARK    1  A    between atoms: C_3  and  C_23
REMARK    2  A    between atoms: C_9  and  C_10
REMARK    3  A    between atoms: C_11  and  C_19
REMARK    4  A    between atoms: C_23  and  O_24
REMARK    5  A    between atoms: O_24  and  C_27
REMARK                            x       y       z     vdW  Elec       q    Type
REMARK                         _______ _______ _______ _____ _____    ______ ____
ROOT
ATOM      1  O   UNL     1      35.057 -16.041 -21.041  0.00  0.00    -0.270 OA
ATOM      2  N   UNL     1      33.202 -14.702 -21.548  0.00  0.00    -0.278 N 
ATOM      3  C   UNL     1      32.004 -12.715 -22.476  0.00  0.00    +0.064 C 
ATOM      4  C   UNL     1      33.013 -14.268 -20.152  0.00  0.00    +0.076 C 
ATOM      5  C   UNL     1      31.733 -12.248 -21.040  0.00  0.00    +0.007 C 
ATOM      6  C   UNL     1      32.792 -12.752 -20.062  0.00  0.00    +0.020 C 
ATOM      7  C   UNL     1      32.199 -14.234 -22.521  0.00  0.00    +0.097 C 
ATOM      8  C   UNL     1      31.893 -15.064 -19.476  0.00  0.00    +0.022 C 
ATOM      9  C   UNL     1      34.209 -15.633 -21.833  0.00  0.00    +0.250 C 
ENDROOT
BRANCH   9  10
ATOM     10  C   UNL     1      34.279 -16.181 -23.192  0.00  0.00    +0.063 C 
ATOM     11  C   UNL     1      34.719 -17.482 -23.437  0.00  0.00    +0.066 C 
ATOM     12  C   UNL     1      33.895 -15.362 -24.253  0.00  0.00    +0.001 C 
ATOM     13  C   UNL     1      33.949 -15.846 -25.560  0.00  0.00    -0.022 C 
ATOM     14  C   UNL     1      34.773 -17.965 -24.745  0.00  0.00    +0.010 C 
ATOM     15  C   UNL     1      34.388 -17.147 -25.806  0.00  0.00    -0.004 C 
ATOM     16  C   UNL     1      33.537 -14.972 -26.697  0.00  0.00    +0.031 C 
BRANCH  11  19
ATOM     17  N   UNL     1      34.151 -19.067 -21.755  0.00  0.00    -0.215 NA
ATOM     18  N   UNL     1      36.439 -18.369 -22.052  0.00  0.00    -0.193 NA
ATOM     19  C   UNL     1      35.126 -18.355 -22.353  0.00  0.00    +0.031 C 
ATOM     20  C   UNL     1      34.565 -19.869 -20.752  0.00  0.00    +0.164 C 
ATOM     21  C   UNL     1      36.782 -19.192 -21.041  0.00  0.00    +0.107 C 
ATOM     22  C   UNL     1      35.880 -19.973 -20.347  0.00  0.00    +0.022 C 
ENDBRANCH  11  19
ENDBRANCH   9  10
BRANCH   3  23
ATOM     23  C   UNL     1      33.199 -11.986 -23.098  0.00  0.00    +0.209 C 
BRANCH  23  24
ATOM     24  O   UNL     1      32.705 -10.972 -23.951  0.00  0.00    -0.460 OA
BRANCH  24  27
ATOM     25  F   UNL     1      32.663  -5.887 -22.017  0.00  0.00    -0.203 F 
ATOM     26  N   UNL     1      31.542  -9.187 -23.022  0.00  0.00    -0.208 NA
ATOM     27  C   UNL     1      32.717  -9.686 -23.465  0.00  0.00    +0.225 C 
ATOM     28  C   UNL     1      33.910  -8.981 -23.458  0.00  0.00    +0.060 C 
ATOM     29  C   UNL     1      33.896  -7.683 -22.963  0.00  0.00    +0.036 C 
ATOM     30  C   UNL     1      31.567  -7.921 -22.548  0.00  0.00    +0.132 C 
ATOM     31  C   UNL     1      32.706  -7.135 -22.498  0.00  0.00    +0.159 C 
ENDBRANCH  24  27
ENDBRANCH  23  24
ENDBRANCH   3  23
TORSDOF 5
ENDMDL
MODEL 4
REMARK VINA RESULT:      -8.6      9.027     13.211
REMARK  Name = 25128145
REMARK  5 active torsions:
REMARK  status: ('A' for Active; 'I' for Inactive)
REMARK    1  A    between atoms: C_3  and  C_23
REMARK    2  A    between atoms: C_9  and  C_10
REMARK    3  A    between atoms: C_11  and  C_19
REMARK    4  A    between atoms: C_23  and  O_24
REMARK    5  A    between atoms: O_24  and  C_27
REMARK                            x       y       z     vdW  Elec       q    Type
REMARK                         _______ _______ _______ _____ _____    ______ ____
ROOT
ATOM      1  O   UNL     1      33.808 -10.515 -24.447  0.00  0.00    -0.270 OA
ATOM      2  N   UNL     1      33.081 -12.672 -25.002  0.00  0.00    -0.278 N 
ATOM      3  C   UNL     1      33.182 -15.168 -25.081  0.00  0.00    +0.064 C 
ATOM      4  C   UNL     1      33.438 -12.530 -26.425  0.00  0.00    +0.076 C 
ATOM      5  C   UNL     1      33.501 -15.075 -26.578  0.00  0.00    +0.007 C 
ATOM      6  C   UNL     1      34.194 -13.763 -26.939  0.00  0.00    +0.020 C 
ATOM      7  C   UNL     1      32.411 -13.927 -24.616  0.00  0.00    +0.097 C 
ATOM      8  C   UNL     1      32.203 -12.206 -27.272  0.00  0.00    +0.022 C 
ATOM      9  C   UNL     1      33.255 -11.573 -24.151  0.00  0.00    +0.250 C 
ENDROOT
BRANCH   9  10
ATOM     10  C   UNL     1      32.743 -11.672 -22.780  0.00  0.00    +0.063 C 
ATOM     11  C   UNL     1      32.236 -10.563 -22.103  0.00  0.00    +0.066 C 
ATOM     12  C   UNL     1      32.777 -12.917 -22.152  0.00  0.00    +0.001 C 
ATOM     13  C   UNL     1      32.302 -13.053 -20.848  0.00  0.00    -0.022 C 
ATOM     14  C   UNL     1      31.761 -10.699 -20.799  0.00  0.00    +0.010 C 
ATOM     15  C   UNL     1      31.794 -11.944 -20.172  0.00  0.00    -0.004 C 
ATOM     16  C   UNL     1      32.336 -14.384 -20.176  0.00  0.00    +0.031 C 
BRANCH  11  19
ATOM     17  N   UNL     1      31.065  -8.953 -23.408  0.00  0.00    -0.215 NA
ATOM     18  N   UNL     1      33.275  -8.474 -22.573  0.00  0.00    -0.193 NA
ATOM     19  C   UNL     1      32.190  -9.256 -22.731  0.00  0.00    +0.031 C 
ATOM     20  C   UNL     1      31.056  -7.730 -23.978  0.00  0.00    +0.164 C 
ATOM     21  C   UNL     1      33.198  -7.267 -23.168  0.00  0.00    +0.107 C 
ATOM     22  C   UNL     1      32.103  -6.836 -23.891  0.00  0.00    +0.022 C 
ENDBRANCH  11  19
ENDBRANCH   9  10
BRANCH   3  23
ATOM     23  C   UNL     1      34.443 -15.381 -24.239  0.00  0.00    +0.209 C 
BRANCH  23  24
ATOM     24  O   UNL     1      34.914 -16.695 -24.470  0.00  0.00    -0.460 OA
BRANCH  24  27
ATOM     25  F   UNL     1      35.193 -19.954 -20.123  0.00  0.00    -0.203 F 
ATOM     26  N   UNL     1      35.255 -16.972 -22.188  0.00  0.00    -0.208 NA
ATOM     27  C   UNL     1      34.979 -17.535 -23.385  0.00  0.00    +0.225 C 
ATOM     28  C   UNL     1      34.764 -18.892 -23.572  0.00  0.00    +0.060 C 
ATOM     29  C   UNL     1      34.836 -19.722 -22.460  0.00  0.00    +0.036 C 
ATOM     30  C   UNL     1      35.317 -17.810 -21.129  0.00  0.00    +0.132 C 
ATOM     31  C   UNL     1      35.118 -19.178 -21.211  0.00  0.00    +0.159 C 
ENDBRANCH  24  27
ENDBRANCH  23  24
ENDBRANCH   3  23
TORSDOF 5
ENDMDL
MODEL 5
REMARK VINA RESULT:      -8.6     14.884     19.269
REMARK  Name = 25128145
REMARK  5 active torsions:
REMARK  status: ('A' for Active; 'I' for Inactive)
REMARK    1  A    between atoms: C_3  and  C_23
REMARK    2  A    between atoms: C_9  and  C_10
REMARK    3  A    between atoms: C_11  and  C_19
REMARK    4  A    between atoms: C_23  and  O_24
REMARK    5  A    between atoms: O_24  and  C_27
REMARK                            x       y       z     vdW  Elec       q    Type
REMARK                         _______ _______ _______ _____ _____    ______ ____
ROOT
ATOM      1  O   UNL     1      34.151  -7.588 -21.493  0.00  0.00    -0.270 OA
ATOM      2  N   UNL     1      32.443  -6.894 -22.941  0.00  0.00    -0.278 N 
ATOM      3  C   UNL     1      31.471  -5.881 -25.008  0.00  0.00    +0.064 C 
ATOM      4  C   UNL     1      32.067  -5.743 -22.100  0.00  0.00    +0.076 C 
ATOM      5  C   UNL     1      31.009  -4.685 -24.166  0.00  0.00    +0.007 C 
ATOM      6  C   UNL     1      31.892  -4.470 -22.939  0.00  0.00    +0.020 C 
ATOM      7  C   UNL     1      31.613  -7.133 -24.135  0.00  0.00    +0.097 C 
ATOM      8  C   UNL     1      30.829  -6.061 -21.255  0.00  0.00    +0.022 C 
ATOM      9  C   UNL     1      33.445  -7.761 -22.486  0.00  0.00    +0.250 C 
ENDROOT
BRANCH   9  10
ATOM     10  C   UNL     1      33.694  -8.990 -23.248  0.00  0.00    +0.063 C 
ATOM     11  C   UNL     1      33.096 -10.202 -22.902  0.00  0.00    +0.066 C 
ATOM     12  C   UNL     1      34.557  -8.924 -24.341  0.00  0.00    +0.001 C 
ATOM     13  C   UNL     1      34.821 -10.071 -25.090  0.00  0.00    -0.022 C 
ATOM     14  C   UNL     1      33.361 -11.348 -23.651  0.00  0.00    +0.010 C 
ATOM     15  C   UNL     1      34.223 -11.283 -24.745  0.00  0.00    -0.004 C 
ATOM     16  C   UNL     1      35.742 -10.002 -26.261  0.00  0.00    +0.031 C 
BRANCH  11  19
ATOM     17  N   UNL     1      31.151 -11.139 -21.902  0.00  0.00    -0.215 NA
ATOM     18  N   UNL     1      32.495  -9.543 -20.695  0.00  0.00    -0.193 NA
ATOM     19  C   UNL     1      32.196 -10.300 -21.769  0.00  0.00    +0.031 C 
ATOM     20  C   UNL     1      30.334 -11.206 -20.829  0.00  0.00    +0.164 C 
ATOM     21  C   UNL     1      31.638  -9.660 -19.661  0.00  0.00    +0.107 C 
ATOM     22  C   UNL     1      30.530 -10.482 -19.671  0.00  0.00    +0.022 C 
ENDBRANCH  11  19
ENDBRANCH   9  10
BRANCH   3  23
ATOM     23  C   UNL     1      32.771  -5.582 -25.760  0.00  0.00    +0.209 C 
BRANCH  23  24
ATOM     24  O   UNL     1      32.601  -4.377 -26.481  0.00  0.00    -0.460 OA
BRANCH  24  27
ATOM     25  F   UNL     1      37.060  -1.862 -28.321  0.00  0.00    -0.203 F 
ATOM     26  N   UNL     1      33.738  -2.411 -26.970  0.00  0.00    -0.208 NA
ATOM     27  C   UNL     1      33.737  -3.762 -26.948  0.00  0.00    +0.225 C 
ATOM     28  C   UNL     1      34.802  -4.545 -27.366  0.00  0.00    +0.060 C 
ATOM     29  C   UNL     1      35.940  -3.899 -27.835  0.00  0.00    +0.036 C 
ATOM     30  C   UNL     1      34.862  -1.818 -27.433  0.00  0.00    +0.132 C 
ATOM     31  C   UNL     1      35.978  -2.510 -27.873  0.00  0.00    +0.159 C 
ENDBRANCH  24  27
ENDBRANCH  23  24
ENDBRANCH   3  23
TORSDOF 5
ENDMDL
MODEL 6
REMARK VINA RESULT:      -8.3      9.193     13.119
REMARK  Name = 25128145
REMARK  5 active torsions:
REMARK  status: ('A' for Active; 'I' for Inactive)
REMARK    1  A    between atoms: C_3  and  C_23
REMARK    2  A    between atoms: C_9  and  C_10
REMARK    3  A    between atoms: C_11  and  C_19
REMARK    4  A    between atoms: C_23  and  O_24
REMARK    5  A    between atoms: O_24  and  C_27
REMARK                            x       y       z     vdW  Elec       q    Type
REMARK                         _______ _______ _______ _____ _____    ______ ____
ROOT
ATOM      1  O   UNL     1      31.182 -11.208 -23.100  0.00  0.00    -0.270 OA
ATOM      2  N   UNL     1      32.858 -12.550 -22.161  0.00  0.00    -0.278 N 
ATOM      3  C   UNL     1      34.515 -14.419 -22.087  0.00  0.00    +0.064 C 
ATOM      4  C   UNL     1      31.932 -13.224 -21.232  0.00  0.00    +0.076 C 
ATOM      5  C   UNL     1      33.612 -15.136 -21.076  0.00  0.00    +0.007 C 
ATOM      6  C   UNL     1      32.145 -14.743 -21.234  0.00  0.00    +0.020 C 
ATOM      7  C   UNL     1      34.283 -12.905 -22.038  0.00  0.00    +0.097 C 
ATOM      8  C   UNL     1      32.027 -12.620 -19.828  0.00  0.00    +0.022 C 
ATOM      9  C   UNL     1      32.364 -11.526 -22.980  0.00  0.00    +0.250 C 
ENDROOT
BRANCH   9  10
ATOM     10  C   UNL     1      33.324 -10.754 -23.776  0.00  0.00    +0.063 C 
ATOM     11  C   UNL     1      33.646  -9.434 -23.459  0.00  0.00    +0.066 C 
ATOM     12  C   UNL     1      33.916 -11.372 -24.876  0.00  0.00    +0.001 C 
ATOM     13  C   UNL     1      34.832 -10.671 -25.660  0.00  0.00    -0.022 C 
ATOM     14  C   UNL     1      34.563  -8.733 -24.243  0.00  0.00    +0.010 C 
ATOM     15  C   UNL     1      35.155  -9.351 -25.343  0.00  0.00    -0.004 C 
ATOM     16  C   UNL     1      35.468 -11.331 -26.837  0.00  0.00    +0.031 C 
BRANCH  11  19
ATOM     17  N   UNL     1      32.703  -7.474 -22.492  0.00  0.00    -0.215 NA
ATOM     18  N   UNL     1      32.887  -9.503 -21.205  0.00  0.00    -0.193 NA
ATOM     19  C   UNL     1      33.045  -8.765 -22.321  0.00  0.00    +0.031 C 
ATOM     20  C   UNL     1      32.146  -6.884 -21.414  0.00  0.00    +0.164 C 
ATOM     21  C   UNL     1      32.324  -8.852 -20.167  0.00  0.00    +0.107 C 
ATOM     22  C   UNL     1      31.931  -7.529 -20.214  0.00  0.00    +0.022 C 
ENDBRANCH  11  19
ENDBRANCH   9  10
BRANCH   3  23
ATOM     23  C   UNL     1      34.325 -14.961 -23.507  0.00  0.00    +0.209 C 
BRANCH  23  24
ATOM     24  O   UNL     1      35.359 -15.889 -23.770  0.00  0.00    -0.460 OA
BRANCH  24  27
ATOM     25  F   UNL     1      35.123 -20.684 -21.212  0.00  0.00    -0.203 F 
ATOM     26  N   UNL     1      36.107 -17.303 -22.085  0.00  0.00    -0.208 NA
ATOM     27  C   UNL     1      35.283 -17.106 -23.138  0.00  0.00    +0.225 C 
ATOM     28  C   UNL     1      34.383 -18.051 -23.605  0.00  0.00    +0.060 C 
ATOM     29  C   UNL     1      34.325 -19.275 -22.949  0.00  0.00    +0.036 C 
ATOM     30  C   UNL     1      36.023 -18.506 -21.472  0.00  0.00    +0.132 C 
ATOM     31  C   UNL     1      35.158 -19.515 -21.862  0.00  0.00    +0.159 C 
ENDBRANCH  24  27
ENDBRANCH  23  24
ENDBRANCH   3  23
TORSDOF 5
ENDMDL
MODEL 7
REMARK VINA RESULT:      -8.3      9.741     14.253
REMARK  Name = 25128145
REMARK  5 active torsions:
REMARK  status: ('A' for Active; 'I' for Inactive)
REMARK    1  A    between atoms: C_3  and  C_23
REMARK    2  A    between atoms: C_9  and  C_10
REMARK    3  A    between atoms: C_11  and  C_19
REMARK    4  A    between atoms: C_23  and  O_24
REMARK    5  A    between atoms: O_24  and  C_27
REMARK                            x       y       z     vdW  Elec       q    Type
REMARK                         _______ _______ _______ _____ _____    ______ ____
ROOT
ATOM      1  O   UNL     1      34.965 -14.585 -21.604  0.00  0.00    -0.270 OA
ATOM      2  N   UNL     1      32.861 -13.555 -21.656  0.00  0.00    -0.278 N 
ATOM      3  C   UNL     1      31.219 -11.734 -22.143  0.00  0.00    +0.064 C 
ATOM      4  C   UNL     1      32.848 -13.291 -20.205  0.00  0.00    +0.076 C 
ATOM      5  C   UNL     1      31.128 -11.458 -20.637  0.00  0.00    +0.007 C 
ATOM      6  C   UNL     1      32.406 -11.853 -19.901  0.00  0.00    +0.020 C 
ATOM      7  C   UNL     1      31.644 -13.185 -22.400  0.00  0.00    +0.097 C 
ATOM      8  C   UNL     1      32.002 -14.332 -19.465  0.00  0.00    +0.022 C 
ATOM      9  C   UNL     1      33.940 -14.263 -22.202  0.00  0.00    +0.250 C 
ENDROOT
BRANCH   9  10
ATOM     10  C   UNL     1      33.861 -14.662 -23.611  0.00  0.00    +0.063 C 
ATOM     11  C   UNL     1      34.167 -15.959 -24.024  0.00  0.00    +0.066 C 
ATOM     12  C   UNL     1      33.473 -13.704 -24.547  0.00  0.00    +0.001 C 
ATOM     13  C   UNL     1      33.389 -14.044 -25.897  0.00  0.00    -0.022 C 
ATOM     14  C   UNL     1      34.082 -16.298 -25.375  0.00  0.00    +0.010 C 
ATOM     15  C   UNL     1      33.693 -15.340 -26.311  0.00  0.00    -0.004 C 
ATOM     16  C   UNL     1      32.972 -13.021 -26.900  0.00  0.00    +0.031 C 
BRANCH  11  19
ATOM     17  N   UNL     1      33.654 -17.355 -22.167  0.00  0.00    -0.215 NA
ATOM     18  N   UNL     1      35.834 -17.439 -23.191  0.00  0.00    -0.193 NA
ATOM     19  C   UNL     1      34.574 -16.975 -23.073  0.00  0.00    +0.031 C 
ATOM     20  C   UNL     1      34.066 -18.302 -21.299  0.00  0.00    +0.164 C 
ATOM     21  C   UNL     1      36.178 -18.383 -22.292  0.00  0.00    +0.107 C 
ATOM     22  C   UNL     1      35.328 -18.858 -21.314  0.00  0.00    +0.022 C 
ENDBRANCH  11  19
ENDBRANCH   9  10
BRANCH   3  23
ATOM     23  C   UNL     1      32.157 -10.752 -22.849  0.00  0.00    +0.209 C 
BRANCH  23  24
ATOM     24  O   UNL     1      31.936  -9.462 -22.312  0.00  0.00    -0.460 OA
BRANCH  24  27
ATOM     25  F   UNL     1      33.291  -5.200 -25.408  0.00  0.00    -0.203 F 
ATOM     26  N   UNL     1      31.301  -7.644 -23.613  0.00  0.00    -0.208 NA
ATOM     27  C   UNL     1      32.300  -8.390 -23.090  0.00  0.00    +0.225 C 
ATOM     28  C   UNL     1      33.647  -8.135 -23.295  0.00  0.00    +0.060 C 
ATOM     29  C   UNL     1      33.990  -7.045 -24.087  0.00  0.00    +0.036 C 
ATOM     30  C   UNL     1      31.673  -6.593 -24.378  0.00  0.00    +0.132 C 
ATOM     31  C   UNL     1      32.990  -6.254 -24.642  0.00  0.00    +0.159 C 
ENDBRANCH  24  27
ENDBRANCH  23  24
ENDBRANCH   3  23
TORSDOF 5
ENDMDL
MODEL 8
REMARK VINA RESULT:      -8.2      9.696     14.248
REMARK  Name = 25128145
REMARK  5 active torsions:
REMARK  status: ('A' for Active; 'I' for Inactive)
REMARK    1  A    between atoms: C_3  and  C_23
REMARK    2  A    between atoms: C_9  and  C_10
REMARK    3  A    between atoms: C_11  and  C_19
REMARK    4  A    between atoms: C_23  and  O_24
REMARK    5  A    between atoms: O_24  and  C_27
REMARK                            x       y       z     vdW  Elec       q    Type
REMARK                         _______ _______ _______ _____ _____    ______ ____
ROOT
ATOM      1  O   UNL     1      35.060 -14.590 -21.766  0.00  0.00    -0.270 OA
ATOM      2  N   UNL     1      32.928 -13.617 -21.713  0.00  0.00    -0.278 N 
ATOM      3  C   UNL     1      31.220 -11.834 -22.099  0.00  0.00    +0.064 C 
ATOM      4  C   UNL     1      32.967 -13.380 -20.258  0.00  0.00    +0.076 C 
ATOM      5  C   UNL     1      31.183 -11.587 -20.586  0.00  0.00    +0.007 C 
ATOM      6  C   UNL     1      32.500 -11.961 -19.909  0.00  0.00    +0.020 C 
ATOM      7  C   UNL     1      31.673 -13.267 -22.401  0.00  0.00    +0.097 C 
ATOM      8  C   UNL     1      32.180 -14.457 -19.506  0.00  0.00    +0.022 C 
ATOM      9  C   UNL     1      34.003 -14.285 -22.316  0.00  0.00    +0.250 C 
ENDROOT
BRANCH   9  10
ATOM     10  C   UNL     1      33.878 -14.661 -23.728  0.00  0.00    +0.063 C 
ATOM     11  C   UNL     1      34.146 -15.956 -24.169  0.00  0.00    +0.066 C 
ATOM     12  C   UNL     1      33.484 -13.680 -24.638  0.00  0.00    +0.001 C 
ATOM     13  C   UNL     1      33.356 -13.997 -25.990  0.00  0.00    -0.022 C 
ATOM     14  C   UNL     1      34.018 -16.273 -25.522  0.00  0.00    +0.010 C 
ATOM     15  C   UNL     1      33.623 -15.293 -26.432  0.00  0.00    -0.004 C 
ATOM     16  C   UNL     1      32.933 -12.951 -26.966  0.00  0.00    +0.031 C 
BRANCH  11  19
ATOM     17  N   UNL     1      35.793 -17.503 -23.422  0.00  0.00    -0.215 NA
ATOM     18  N   UNL     1      33.666 -17.348 -22.300  0.00  0.00    -0.193 NA
ATOM     19  C   UNL     1      34.558 -16.995 -23.245  0.00  0.00    +0.031 C 
ATOM     20  C   UNL     1      36.144 -18.466 -22.544  0.00  0.00    +0.164 C 
ATOM     21  C   UNL     1      34.082 -18.315 -21.457  0.00  0.00    +0.107 C 
ATOM     22  C   UNL     1      35.322 -18.917 -21.532  0.00  0.00    +0.022 C 
ENDBRANCH  11  19
ENDBRANCH   9  10
BRANCH   3  23
ATOM     23  C   UNL     1      32.102 -10.813 -22.823  0.00  0.00    +0.209 C 
BRANCH  23  24
ATOM     24  O   UNL     1      31.852  -9.537 -22.268  0.00  0.00    -0.460 OA
BRANCH  24  27
ATOM     25  F   UNL     1      33.326  -5.240 -25.261  0.00  0.00    -0.203 F 
ATOM     26  N   UNL     1      33.511  -8.308 -23.334  0.00  0.00    -0.208 NA
ATOM     27  C   UNL     1      32.202  -8.445 -23.026  0.00  0.00    +0.225 C 
ATOM     28  C   UNL     1      31.214  -7.559 -23.425  0.00  0.00    +0.060 C 
ATOM     29  C   UNL     1      31.594  -6.462 -24.189  0.00  0.00    +0.036 C 
ATOM     30  C   UNL     1      33.843  -7.229 -24.079  0.00  0.00    +0.132 C 
ATOM     31  C   UNL     1      32.932  -6.287 -24.527  0.00  0.00    +0.159 C 
ENDBRANCH  24  27
ENDBRANCH  23  24
ENDBRANCH   3  23
TORSDOF 5
ENDMDL
MODEL 9
REMARK VINA RESULT:      -7.7      7.612     11.694
REMARK  Name = 25128145
REMARK  5 active torsions:
REMARK  status: ('A' for Active; 'I' for Inactive)
REMARK    1  A    between atoms: C_3  and  C_23
REMARK    2  A    between atoms: C_9  and  C_10
REMARK    3  A    between atoms: C_11  and  C_19
REMARK    4  A    between atoms: C_23  and  O_24
REMARK    5  A    between atoms: O_24  and  C_27
REMARK                            x       y       z     vdW  Elec       q    Type
REMARK                         _______ _______ _______ _____ _____    ______ ____
ROOT
ATOM      1  O   UNL     1      31.277 -12.550 -23.329  0.00  0.00    -0.270 OA
ATOM      2  N   UNL     1      33.046 -13.408 -22.055  0.00  0.00    -0.278 N 
ATOM      3  C   UNL     1      34.949 -14.939 -21.526  0.00  0.00    +0.064 C 
ATOM      4  C   UNL     1      32.154 -14.041 -21.067  0.00  0.00    +0.076 C 
ATOM      5  C   UNL     1      34.079 -15.595 -20.447  0.00  0.00    +0.007 C 
ATOM      6  C   UNL     1      32.589 -15.481 -20.760  0.00  0.00    +0.020 C 
ATOM      7  C   UNL     1      34.492 -13.499 -21.785  0.00  0.00    +0.097 C 
ATOM      8  C   UNL     1      32.037 -13.184 -19.803  0.00  0.00    +0.022 C 
ATOM      9  C   UNL     1      32.478 -12.645 -23.083  0.00  0.00    +0.250 C 
ENDROOT
BRANCH   9  10
ATOM     10  C   UNL     1      33.378 -11.886 -23.958  0.00  0.00    +0.063 C 
ATOM     11  C   UNL     1      33.845 -12.411 -25.163  0.00  0.00    +0.066 C 
ATOM     12  C   UNL     1      33.768 -10.609 -23.555  0.00  0.00    +0.001 C 
ATOM     13  C   UNL     1      34.625  -9.857 -24.358  0.00  0.00    -0.022 C 
ATOM     14  C   UNL     1      34.701 -11.658 -25.966  0.00  0.00    +0.010 C 
ATOM     15  C   UNL     1      35.091 -10.381 -25.564  0.00  0.00    -0.004 C 
ATOM     16  C   UNL     1      35.042  -8.490 -23.929  0.00  0.00    +0.031 C 
BRANCH  11  19
ATOM     17  N   UNL     1      32.490 -13.798 -26.544  0.00  0.00    -0.215 NA
ATOM     18  N   UNL     1      34.102 -14.773 -25.040  0.00  0.00    -0.193 NA
ATOM     19  C   UNL     1      33.456 -13.736 -25.607  0.00  0.00    +0.031 C 
ATOM     20  C   UNL     1      32.155 -15.045 -26.934  0.00  0.00    +0.164 C 
ATOM     21  C   UNL     1      33.717 -15.990 -25.476  0.00  0.00    +0.107 C 
ATOM     22  C   UNL     1      32.739 -16.189 -26.430  0.00  0.00    +0.022 C 
ENDBRANCH  11  19
ENDBRANCH   9  10
BRANCH   3  23
ATOM     23  C   UNL     1      34.965 -15.755 -22.822  0.00  0.00    +0.209 C 
BRANCH  23  24
ATOM     24  O   UNL     1      35.948 -16.764 -22.700  0.00  0.00    -0.460 OA
BRANCH  24  27
ATOM     25  F   UNL     1      34.568 -21.358 -20.134  0.00  0.00    -0.203 F 
ATOM     26  N   UNL     1      36.492 -18.488 -21.240  0.00  0.00    -0.208 NA
ATOM     27  C   UNL     1      35.579 -17.923 -22.061  0.00  0.00    +0.225 C 
ATOM     28  C   UNL     1      34.314 -18.442 -22.289  0.00  0.00    +0.060 C 
ATOM     29  C   UNL     1      33.965 -19.616 -21.631  0.00  0.00    +0.036 C 
ATOM     30  C   UNL     1      36.116 -19.629 -20.618  0.00  0.00    +0.132 C 
ATOM     31  C   UNL     1      34.878 -20.227 -20.779  0.00  0.00    +0.159 C 
ENDBRANCH  24  27
ENDBRANCH  23  24
ENDBRANCH   3  23
TORSDOF 5
ENDMDL
