MODEL 1
REMARK VINA RESULT:      -9.1      0.000      0.000
REMARK  Name = 46937124
REMARK  9 active torsions:
REMARK  status: ('A' for Active; 'I' for Inactive)
REMARK    1  A    between atoms: C_3  and  C_20
REMARK    2  A    between atoms: C_6  and  O_15
REMARK    3  A    between atoms: CA_9  and  C_12
REMARK    4  A    between atoms: C_12  and  O_13
REMARK    5  A    between atoms: O_15  and  C_16
REMARK    6  A    between atoms: C_16  and  C_17
REMARK    7  A    between atoms: C_17  and  C_18
REMARK    8  A    between atoms: C_20  and  C_22
REMARK    9  A    between atoms: C_20  and  C_23
REMARK                            x       y       z     vdW  Elec       q    Type
REMARK                         _______ _______ _______ _____ _____    ______ ____
ROOT
ATOM      1  N   UNL     1      35.263 -17.398 -23.530  0.00  0.00    -0.329 N 
ATOM      2  C   UNL     1      34.859 -15.755 -21.891  0.00  0.00    +0.040 C 
ATOM      3  C   UNL     1      35.620 -17.097 -22.152  0.00  0.00    +0.080 C 
ATOM      4  C   UNL     1      34.169 -15.470 -23.217  0.00  0.00    +0.003 C 
ATOM      5  C   UNL     1      33.822 -15.741 -20.764  0.00  0.00    +0.006 C 
ATOM      6  C   UNL     1      33.284 -14.273 -23.325  0.00  0.00    +0.135 C 
ATOM      7  C   UNL     1      33.012 -14.438 -20.779  0.00  0.00    +0.003 C 
ATOM      8  C   UNL     1      32.319 -14.212 -22.132  0.00  0.00    +0.034 C 
ATOM      9  CA  UNL     1      34.446 -16.452 -24.083  0.00  0.00    +0.115 C 
ATOM     10  H   UNL     1      35.576 -18.197 -24.013  0.00  0.00    +0.147 HD
ENDROOT
BRANCH   9  12
ATOM     11  OXT UNL     1      33.834 -15.640 -26.232  0.00  0.00    -0.244 OA
ATOM     12  C   UNL     1      33.962 -16.572 -25.449  0.00  0.00    +0.351 C 
BRANCH  12  13
ATOM     13  O   UNL     1      33.675 -17.865 -25.727  0.00  0.00    -0.476 OA
ATOM     14  H   UNL     1      33.406 -18.443 -25.039  0.00  0.00    +0.295 HD
ENDBRANCH  12  13
ENDBRANCH   9  12
BRANCH   6  15
ATOM     15  O   UNL     1      34.112 -13.112 -23.320  0.00  0.00    -0.352 OA
BRANCH  15  16
ATOM     16  C   UNL     1      33.870 -12.299 -24.458  0.00  0.00    +0.142 C 
BRANCH  16  17
ATOM     17  C   UNL     1      33.698 -10.857 -24.004  0.00  0.00    +0.032 C 
BRANCH  17  18
ATOM     18  C   UNL     1      34.876  -9.987 -24.434  0.00  0.00    +0.003 C 
ATOM     19  C   UNL     1      35.405 -10.399 -25.798  0.00  0.00    +0.000 C 
ENDBRANCH  17  18
ENDBRANCH  16  17
ENDBRANCH  15  16
ENDBRANCH   6  15
BRANCH   3  20
ATOM     20  C   UNL     1      35.268 -18.271 -21.254  0.00  0.00    +0.083 C 
BRANCH  20  22
ATOM     21  O   UNL     1      36.720 -19.727 -19.937  0.00  0.00    -0.288 OA
ATOM     22  C   UNL     1      36.555 -19.007 -20.916  0.00  0.00    +0.209 C 
ENDBRANCH  20  22
BRANCH  20  23
ATOM     23  C   UNL     1      34.222 -19.178 -21.923  0.00  0.00    +0.009 C 
ATOM     24  C   UNL     1      33.207 -19.741 -20.935  0.00  0.00    +0.001 C 
ENDBRANCH  20  23
ENDBRANCH   3  20
TORSDOF 9
ENDMDL
MODEL 2
REMARK VINA RESULT:      -8.2      1.275      1.574
REMARK  Name = 46937124
REMARK  9 active torsions:
REMARK  status: ('A' for Active; 'I' for Inactive)
REMARK    1  A    between atoms: C_3  and  C_20
REMARK    2  A    between atoms: C_6  and  O_15
REMARK    3  A    between atoms: CA_9  and  C_12
REMARK    4  A    between atoms: C_12  and  O_13
REMARK    5  A    between atoms: O_15  and  C_16
REMARK    6  A    between atoms: C_16  and  C_17
REMARK    7  A    between atoms: C_17  and  C_18
REMARK    8  A    between atoms: C_20  and  C_22
REMARK    9  A    between atoms: C_20  and  C_23
REMARK                            x       y       z     vdW  Elec       q    Type
REMARK                         _______ _______ _______ _____ _____    ______ ____
ROOT
ATOM      1  N   UNL     1      34.588 -16.376 -24.474  0.00  0.00    -0.329 N 
ATOM      2  C   UNL     1      34.477 -15.121 -22.484  0.00  0.00    +0.040 C 
ATOM      3  C   UNL     1      35.110 -16.403 -23.116  0.00  0.00    +0.080 C 
ATOM      4  C   UNL     1      33.670 -14.519 -23.625  0.00  0.00    +0.003 C 
ATOM      5  C   UNL     1      33.569 -15.310 -21.264  0.00  0.00    +0.006 C 
ATOM      6  C   UNL     1      32.862 -13.290 -23.367  0.00  0.00    +0.135 C 
ATOM      7  C   UNL     1      32.855 -14.002 -20.902  0.00  0.00    +0.003 C 
ATOM      8  C   UNL     1      32.038 -13.452 -22.082  0.00  0.00    +0.034 C 
ATOM      9  CA  UNL     1      33.784 -15.296 -24.709  0.00  0.00    +0.115 C 
ATOM     10  H   UNL     1      34.791 -17.061 -25.150  0.00  0.00    +0.147 HD
ENDROOT
BRANCH   9  12
ATOM     11  OXT UNL     1      32.986 -14.001 -26.536  0.00  0.00    -0.244 OA
ATOM     12  C   UNL     1      33.149 -15.090 -26.000  0.00  0.00    +0.351 C 
BRANCH  12  13
ATOM     13  O   UNL     1      32.765 -16.277 -26.524  0.00  0.00    -0.476 OA
ATOM     14  H   UNL     1      32.140 -16.809 -26.070  0.00  0.00    +0.295 HD
ENDBRANCH  12  13
ENDBRANCH   9  12
BRANCH   6  15
ATOM     15  O   UNL     1      33.765 -12.197 -23.212  0.00  0.00    -0.352 OA
BRANCH  15  16
ATOM     16  C   UNL     1      33.455 -11.140 -24.108  0.00  0.00    +0.142 C 
BRANCH  16  17
ATOM     17  C   UNL     1      34.481 -11.132 -25.232  0.00  0.00    +0.032 C 
BRANCH  17  18
ATOM     18  C   UNL     1      35.283  -9.834 -25.254  0.00  0.00    +0.003 C 
ATOM     19  C   UNL     1      34.886  -8.914 -24.111  0.00  0.00    +0.000 C 
ENDBRANCH  17  18
ENDBRANCH  16  17
ENDBRANCH  15  16
ENDBRANCH   6  15
BRANCH   3  20
ATOM     20  C   UNL     1      34.777 -17.731 -22.456  0.00  0.00    +0.083 C 
BRANCH  20  22
ATOM     21  O   UNL     1      36.089 -18.819 -20.708  0.00  0.00    -0.288 OA
ATOM     22  C   UNL     1      36.042 -18.261 -21.799  0.00  0.00    +0.209 C 
ENDBRANCH  20  22
BRANCH  20  23
ATOM     23  C   UNL     1      34.178 -18.714 -23.474  0.00  0.00    +0.009 C 
ATOM     24  C   UNL     1      35.217 -19.656 -24.070  0.00  0.00    +0.001 C 
ENDBRANCH  20  23
ENDBRANCH   3  20
TORSDOF 9
ENDMDL
MODEL 3
REMARK VINA RESULT:      -8.1      9.586     11.760
REMARK  Name = 46937124
REMARK  9 active torsions:
REMARK  status: ('A' for Active; 'I' for Inactive)
REMARK    1  A    between atoms: C_3  and  C_20
REMARK    2  A    between atoms: C_6  and  O_15
REMARK    3  A    between atoms: CA_9  and  C_12
REMARK    4  A    between atoms: C_12  and  O_13
REMARK    5  A    between atoms: O_15  and  C_16
REMARK    6  A    between atoms: C_16  and  C_17
REMARK    7  A    between atoms: C_17  and  C_18
REMARK    8  A    between atoms: C_20  and  C_22
REMARK    9  A    between atoms: C_20  and  C_23
REMARK                            x       y       z     vdW  Elec       q    Type
REMARK                         _______ _______ _______ _____ _____    ______ ____
ROOT
ATOM      1  N   UNL     1      34.201 -23.138 -15.879  0.00  0.00    -0.329 N 
ATOM      2  C   UNL     1      32.446 -23.646 -14.393  0.00  0.00    +0.040 C 
ATOM      3  C   UNL     1      33.988 -23.394 -14.463  0.00  0.00    +0.080 C 
ATOM      4  C   UNL     1      31.989 -23.471 -15.833  0.00  0.00    +0.003 C 
ATOM      5  C   UNL     1      31.976 -25.008 -13.872  0.00  0.00    +0.006 C 
ATOM      6  C   UNL     1      30.551 -23.700 -16.166  0.00  0.00    +0.135 C 
ATOM      7  C   UNL     1      30.466 -25.182 -14.073  0.00  0.00    +0.003 C 
ATOM      8  C   UNL     1      30.063 -25.018 -15.547  0.00  0.00    +0.034 C 
ATOM      9  CA  UNL     1      33.045 -23.193 -16.606  0.00  0.00    +0.115 C 
ATOM     10  H   UNL     1      35.084 -22.947 -16.272  0.00  0.00    +0.147 HD
ENDROOT
BRANCH   9  12
ATOM     11  OXT UNL     1      32.487 -22.049 -18.613  0.00  0.00    -0.244 OA
ATOM     12  C   UNL     1      33.043 -22.979 -18.044  0.00  0.00    +0.351 C 
BRANCH  12  13
ATOM     13  O   UNL     1      33.745 -23.959 -18.659  0.00  0.00    -0.476 OA
ATOM     14  H   UNL     1      34.345 -24.485 -18.167  0.00  0.00    +0.295 HD
ENDBRANCH  12  13
ENDBRANCH   9  12
BRANCH   6  15
ATOM     15  O   UNL     1      29.797 -22.618 -15.623  0.00  0.00    -0.352 OA
BRANCH  15  16
ATOM     16  C   UNL     1      28.405 -22.895 -15.649  0.00  0.00    +0.142 C 
BRANCH  16  17
ATOM     17  C   UNL     1      27.835 -22.423 -16.978  0.00  0.00    +0.032 C 
BRANCH  17  18
ATOM     18  C   UNL     1      26.463 -21.777 -16.806  0.00  0.00    +0.003 C 
ATOM     19  C   UNL     1      25.971 -21.158 -18.104  0.00  0.00    +0.000 C 
ENDBRANCH  17  18
ENDBRANCH  16  17
ENDBRANCH  15  16
ENDBRANCH   6  15
BRANCH   3  20
ATOM     20  C   UNL     1      34.889 -24.525 -13.996  0.00  0.00    +0.083 C 
BRANCH  20  22
ATOM     21  O   UNL     1      34.982 -24.869 -11.580  0.00  0.00    -0.288 OA
ATOM     22  C   UNL     1      35.320 -24.226 -12.568  0.00  0.00    +0.209 C 
ENDBRANCH  20  22
BRANCH  20  23
ATOM     23  C   UNL     1      36.081 -24.706 -14.950  0.00  0.00    +0.009 C 
ATOM     24  C   UNL     1      36.515 -26.160 -15.087  0.00  0.00    +0.001 C 
ENDBRANCH  20  23
ENDBRANCH   3  20
TORSDOF 9
ENDMDL
MODEL 4
REMARK VINA RESULT:      -7.9      7.936     11.869
REMARK  Name = 46937124
REMARK  9 active torsions:
REMARK  status: ('A' for Active; 'I' for Inactive)
REMARK    1  A    between atoms: C_3  and  C_20
REMARK    2  A    between atoms: C_6  and  O_15
REMARK    3  A    between atoms: CA_9  and  C_12
REMARK    4  A    between atoms: C_12  and  O_13
REMARK    5  A    between atoms: O_15  and  C_16
REMARK    6  A    between atoms: C_16  and  C_17
REMARK    7  A    between atoms: C_17  and  C_18
REMARK    8  A    between atoms: C_20  and  C_22
REMARK    9  A    between atoms: C_20  and  C_23
REMARK                            x       y       z     vdW  Elec       q    Type
REMARK                         _______ _______ _______ _____ _____    ______ ____
ROOT
ATOM      1  N   UNL     1      36.017 -25.233 -13.506  0.00  0.00    -0.329 N 
ATOM      2  C   UNL     1      36.876 -24.328 -15.504  0.00  0.00    +0.040 C 
ATOM      3  C   UNL     1      37.231 -25.270 -14.307  0.00  0.00    +0.080 C 
ATOM      4  C   UNL     1      35.449 -23.891 -15.205  0.00  0.00    +0.003 C 
ATOM      5  C   UNL     1      37.753 -23.091 -15.713  0.00  0.00    +0.006 C 
ATOM      6  C   UNL     1      34.787 -22.917 -16.123  0.00  0.00    +0.135 C 
ATOM      7  C   UNL     1      37.151 -22.161 -16.773  0.00  0.00    +0.003 C 
ATOM      8  C   UNL     1      35.720 -21.733 -16.409  0.00  0.00    +0.034 C 
ATOM      9  CA  UNL     1      35.046 -24.443 -14.054  0.00  0.00    +0.115 C 
ATOM     10  H   UNL     1      35.907 -25.722 -12.659  0.00  0.00    +0.147 HD
ENDROOT
BRANCH   9  12
ATOM     11  OXT UNL     1      32.702 -24.738 -13.791  0.00  0.00    -0.244 OA
ATOM     12  C   UNL     1      33.760 -24.259 -13.402  0.00  0.00    +0.351 C 
BRANCH  12  13
ATOM     13  O   UNL     1      33.903 -23.482 -12.304  0.00  0.00    -0.476 OA
ATOM     14  H   UNL     1      34.662 -23.575 -11.761  0.00  0.00    +0.295 HD
ENDBRANCH  12  13
ENDBRANCH   9  12
BRANCH   6  15
ATOM     15  O   UNL     1      34.497 -23.594 -17.345  0.00  0.00    -0.352 OA
BRANCH  15  16
ATOM     16  C   UNL     1      33.527 -22.891 -18.106  0.00  0.00    +0.142 C 
BRANCH  16  17
ATOM     17  C   UNL     1      34.082 -22.644 -19.501  0.00  0.00    +0.032 C 
BRANCH  17  18
ATOM     18  C   UNL     1      34.313 -21.158 -19.761  0.00  0.00    +0.003 C 
ATOM     19  C   UNL     1      33.035 -20.464 -20.204  0.00  0.00    +0.000 C 
ENDBRANCH  17  18
ENDBRANCH  16  17
ENDBRANCH  15  16
ENDBRANCH   6  15
BRANCH   3  20
ATOM     20  C   UNL     1      38.428 -24.878 -13.457  0.00  0.00    +0.083 C 
BRANCH  20  22
ATOM     21  O   UNL     1      39.609 -26.714 -14.553  0.00  0.00    -0.288 OA
ATOM     22  C   UNL     1      39.474 -25.975 -13.583  0.00  0.00    +0.209 C 
ENDBRANCH  20  22
BRANCH  20  23
ATOM     23  C   UNL     1      38.007 -24.622 -12.001  0.00  0.00    +0.009 C 
ATOM     24  C   UNL     1      37.723 -23.152 -11.717  0.00  0.00    +0.001 C 
ENDBRANCH  20  23
ENDBRANCH   3  20
TORSDOF 9
ENDMDL
MODEL 5
REMARK VINA RESULT:      -7.8      3.040      6.635
REMARK  Name = 46937124
REMARK  9 active torsions:
REMARK  status: ('A' for Active; 'I' for Inactive)
REMARK    1  A    between atoms: C_3  and  C_20
REMARK    2  A    between atoms: C_6  and  O_15
REMARK    3  A    between atoms: CA_9  and  C_12
REMARK    4  A    between atoms: C_12  and  O_13
REMARK    5  A    between atoms: O_15  and  C_16
REMARK    6  A    between atoms: C_16  and  C_17
REMARK    7  A    between atoms: C_17  and  C_18
REMARK    8  A    between atoms: C_20  and  C_22
REMARK    9  A    between atoms: C_20  and  C_23
REMARK                            x       y       z     vdW  Elec       q    Type
REMARK                         _______ _______ _______ _____ _____    ______ ____
ROOT
ATOM      1  N   UNL     1      32.499 -10.817 -23.329  0.00  0.00    -0.329 N 
ATOM      2  C   UNL     1      32.227 -12.855 -22.180  0.00  0.00    +0.040 C 
ATOM      3  C   UNL     1      31.703 -11.383 -22.251  0.00  0.00    +0.080 C 
ATOM      4  C   UNL     1      33.271 -12.917 -23.285  0.00  0.00    +0.003 C 
ATOM      5  C   UNL     1      32.853 -13.319 -20.862  0.00  0.00    +0.006 C 
ATOM      6  C   UNL     1      34.041 -14.182 -23.478  0.00  0.00    +0.135 C 
ATOM      7  C   UNL     1      33.512 -14.694 -21.020  0.00  0.00    +0.003 C 
ATOM      8  C   UNL     1      34.574 -14.694 -22.132  0.00  0.00    +0.034 C 
ATOM      9  CA  UNL     1      33.365 -11.721 -23.878  0.00  0.00    +0.115 C 
ATOM     10  H   UNL     1      32.422  -9.883 -23.632  0.00  0.00    +0.147 HD
ENDROOT
BRANCH   9  12
ATOM     11  OXT UNL     1      34.139 -11.710 -26.125  0.00  0.00    -0.244 OA
ATOM     12  C   UNL     1      34.261 -11.352 -24.961  0.00  0.00    +0.351 C 
BRANCH  12  13
ATOM     13  O   UNL     1      35.250 -10.555 -24.494  0.00  0.00    -0.476 OA
ATOM     14  H   UNL     1      35.747 -10.816 -23.743  0.00  0.00    +0.295 HD
ENDBRANCH  12  13
ENDBRANCH   9  12
BRANCH   6  15
ATOM     15  O   UNL     1      33.158 -15.153 -24.034  0.00  0.00    -0.352 OA
BRANCH  15  16
ATOM     16  C   UNL     1      33.534 -15.494 -25.360  0.00  0.00    +0.142 C 
BRANCH  16  17
ATOM     17  C   UNL     1      34.757 -16.398 -25.306  0.00  0.00    +0.032 C 
BRANCH  17  18
ATOM     18  C   UNL     1      34.381 -17.834 -24.949  0.00  0.00    +0.003 C 
ATOM     19  C   UNL     1      35.049 -18.280 -23.658  0.00  0.00    +0.000 C 
ENDBRANCH  17  18
ENDBRANCH  16  17
ENDBRANCH  15  16
ENDBRANCH   6  15
BRANCH   3  20
ATOM     20  C   UNL     1      31.853 -10.540 -20.995  0.00  0.00    +0.083 C 
BRANCH  20  22
ATOM     21  O   UNL     1      30.770 -10.842 -18.827  0.00  0.00    -0.288 OA
ATOM     22  C   UNL     1      30.715 -10.894 -20.052  0.00  0.00    +0.209 C 
ENDBRANCH  20  22
BRANCH  20  23
ATOM     23  C   UNL     1      31.895  -9.043 -21.341  0.00  0.00    +0.009 C 
ATOM     24  C   UNL     1      32.552  -8.201 -20.254  0.00  0.00    +0.001 C 
ENDBRANCH  20  23
ENDBRANCH   3  20
TORSDOF 9
ENDMDL
MODEL 6
REMARK VINA RESULT:      -7.8      9.548     11.562
REMARK  Name = 46937124
REMARK  9 active torsions:
REMARK  status: ('A' for Active; 'I' for Inactive)
REMARK    1  A    between atoms: C_3  and  C_20
REMARK    2  A    between atoms: C_6  and  O_15
REMARK    3  A    between atoms: CA_9  and  C_12
REMARK    4  A    between atoms: C_12  and  O_13
REMARK    5  A    between atoms: O_15  and  C_16
REMARK    6  A    between atoms: C_16  and  C_17
REMARK    7  A    between atoms: C_17  and  C_18
REMARK    8  A    between atoms: C_20  and  C_22
REMARK    9  A    between atoms: C_20  and  C_23
REMARK                            x       y       z     vdW  Elec       q    Type
REMARK                         _______ _______ _______ _____ _____    ______ ____
ROOT
ATOM      1  N   UNL     1      34.573 -23.068 -16.076  0.00  0.00    -0.329 N 
ATOM      2  C   UNL     1      32.973 -23.538 -14.412  0.00  0.00    +0.040 C 
ATOM      3  C   UNL     1      34.496 -23.263 -14.636  0.00  0.00    +0.080 C 
ATOM      4  C   UNL     1      32.381 -23.436 -15.810  0.00  0.00    +0.003 C 
ATOM      5  C   UNL     1      32.582 -24.881 -13.790  0.00  0.00    +0.006 C 
ATOM      6  C   UNL     1      30.924 -23.705 -15.997  0.00  0.00    +0.135 C 
ATOM      7  C   UNL     1      31.064 -25.090 -13.842  0.00  0.00    +0.003 C 
ATOM      8  C   UNL     1      30.523 -25.001 -15.278  0.00  0.00    +0.034 C 
ATOM      9  CA  UNL     1      33.356 -23.176 -16.689  0.00  0.00    +0.115 C 
ATOM     10  H   UNL     1      35.411 -22.880 -16.557  0.00  0.00    +0.147 HD
ENDROOT
BRANCH   9  12
ATOM     11  OXT UNL     1      32.662 -22.091 -18.687  0.00  0.00    -0.244 OA
ATOM     12  C   UNL     1      33.217 -23.029 -18.128  0.00  0.00    +0.351 C 
BRANCH  12  13
ATOM     13  O   UNL     1      33.789 -24.080 -18.760  0.00  0.00    -0.476 OA
ATOM     14  H   UNL     1      34.673 -24.320 -18.561  0.00  0.00    +0.295 HD
ENDBRANCH  12  13
ENDBRANCH   9  12
BRANCH   6  15
ATOM     15  O   UNL     1      30.201 -22.612 -15.434  0.00  0.00    -0.352 OA
BRANCH  15  16
ATOM     16  C   UNL     1      28.804 -22.866 -15.429  0.00  0.00    +0.142 C 
BRANCH  16  17
ATOM     17  C   UNL     1      28.213 -22.393 -16.749  0.00  0.00    +0.032 C 
BRANCH  17  18
ATOM     18  C   UNL     1      26.769 -21.927 -16.585  0.00  0.00    +0.003 C 
ATOM     19  C   UNL     1      26.204 -21.394 -17.892  0.00  0.00    +0.000 C 
ENDBRANCH  17  18
ENDBRANCH  16  17
ENDBRANCH  15  16
ENDBRANCH   6  15
BRANCH   3  20
ATOM     20  C   UNL     1      35.461 -24.356 -14.205  0.00  0.00    +0.083 C 
BRANCH  20  22
ATOM     21  O   UNL     1      37.440 -22.953 -14.482  0.00  0.00    -0.288 OA
ATOM     22  C   UNL     1      36.762 -23.694 -13.779  0.00  0.00    +0.209 C 
ENDBRANCH  20  22
BRANCH  20  23
ATOM     23  C   UNL     1      35.659 -25.386 -15.329  0.00  0.00    +0.009 C 
ATOM     24  C   UNL     1      36.695 -26.448 -14.984  0.00  0.00    +0.001 C 
ENDBRANCH  20  23
ENDBRANCH   3  20
TORSDOF 9
ENDMDL
MODEL 7
REMARK VINA RESULT:      -7.7      8.414     12.257
REMARK  Name = 46937124
REMARK  9 active torsions:
REMARK  status: ('A' for Active; 'I' for Inactive)
REMARK    1  A    between atoms: C_3  and  C_20
REMARK    2  A    between atoms: C_6  and  O_15
REMARK    3  A    between atoms: CA_9  and  C_12
REMARK    4  A    between atoms: C_12  and  O_13
REMARK    5  A    between atoms: O_15  and  C_16
REMARK    6  A    between atoms: C_16  and  C_17
REMARK    7  A    between atoms: C_17  and  C_18
REMARK    8  A    between atoms: C_20  and  C_22
REMARK    9  A    between atoms: C_20  and  C_23
REMARK                            x       y       z     vdW  Elec       q    Type
REMARK                         _______ _______ _______ _____ _____    ______ ____
ROOT
ATOM      1  N   UNL     1      36.049 -25.503 -13.269  0.00  0.00    -0.329 N 
ATOM      2  C   UNL     1      36.990 -24.638 -15.248  0.00  0.00    +0.040 C 
ATOM      3  C   UNL     1      37.238 -25.662 -14.092  0.00  0.00    +0.080 C 
ATOM      4  C   UNL     1      35.633 -24.037 -14.909  0.00  0.00    +0.003 C 
ATOM      5  C   UNL     1      38.014 -23.514 -15.427  0.00  0.00    +0.006 C 
ATOM      6  C   UNL     1      35.088 -22.955 -15.781  0.00  0.00    +0.135 C 
ATOM      7  C   UNL     1      37.520 -22.477 -16.443  0.00  0.00    +0.003 C 
ATOM      8  C   UNL     1      36.159 -21.886 -16.040  0.00  0.00    +0.034 C 
ATOM      9  CA  UNL     1      35.178 -24.578 -13.773  0.00  0.00    +0.115 C 
ATOM     10  H   UNL     1      35.888 -26.006 -12.439  0.00  0.00    +0.147 HD
ENDROOT
BRANCH   9  12
ATOM     11  OXT UNL     1      32.827 -24.666 -13.428  0.00  0.00    -0.244 OA
ATOM     12  C   UNL     1      33.933 -24.259 -13.094  0.00  0.00    +0.351 C 
BRANCH  12  13
ATOM     13  O   UNL     1      34.175 -23.447 -12.038  0.00  0.00    -0.476 OA
ATOM     14  H   UNL     1      35.042 -23.381 -11.688  0.00  0.00    +0.295 HD
ENDBRANCH  12  13
ENDBRANCH   9  12
BRANCH   6  15
ATOM     15  O   UNL     1      34.700 -23.543 -17.021  0.00  0.00    -0.352 OA
BRANCH  15  16
ATOM     16  C   UNL     1      33.358 -23.218 -17.350  0.00  0.00    +0.142 C 
BRANCH  16  17
ATOM     17  C   UNL     1      33.358 -22.307 -18.569  0.00  0.00    +0.032 C 
BRANCH  17  18
ATOM     18  C   UNL     1      34.653 -22.434 -19.367  0.00  0.00    +0.003 C 
ATOM     19  C   UNL     1      35.199 -21.072 -19.763  0.00  0.00    +0.000 C 
ENDBRANCH  17  18
ENDBRANCH  16  17
ENDBRANCH  15  16
ENDBRANCH   6  15
BRANCH   3  20
ATOM     20  C   UNL     1      38.486 -25.455 -13.249  0.00  0.00    +0.083 C 
BRANCH  20  22
ATOM     21  O   UNL     1      37.729 -24.488 -11.138  0.00  0.00    -0.288 OA
ATOM     22  C   UNL     1      38.205 -24.336 -12.258  0.00  0.00    +0.209 C 
ENDBRANCH  20  22
BRANCH  20  23
ATOM     23  C   UNL     1      39.707 -25.169 -14.138  0.00  0.00    +0.009 C 
ATOM     24  C   UNL     1      40.649 -26.361 -14.252  0.00  0.00    +0.001 C 
ENDBRANCH  20  23
ENDBRANCH   3  20
TORSDOF 9
ENDMDL
MODEL 8
REMARK VINA RESULT:      -7.7      1.849      6.504
REMARK  Name = 46937124
REMARK  9 active torsions:
REMARK  status: ('A' for Active; 'I' for Inactive)
REMARK    1  A    between atoms: C_3  and  C_20
REMARK    2  A    between atoms: C_6  and  O_15
REMARK    3  A    between atoms: CA_9  and  C_12
REMARK    4  A    between atoms: C_12  and  O_13
REMARK    5  A    between atoms: O_15  and  C_16
REMARK    6  A    between atoms: C_16  and  C_17
REMARK    7  A    between atoms: C_17  and  C_18
REMARK    8  A    between atoms: C_20  and  C_22
REMARK    9  A    between atoms: C_20  and  C_23
REMARK                            x       y       z     vdW  Elec       q    Type
REMARK                         _______ _______ _______ _____ _____    ______ ____
ROOT
ATOM      1  N   UNL     1      32.995 -14.301 -24.372  0.00  0.00    -0.329 N 
ATOM      2  C   UNL     1      33.065 -14.922 -22.101  0.00  0.00    +0.040 C 
ATOM      3  C   UNL     1      32.558 -13.808 -23.075  0.00  0.00    +0.080 C 
ATOM      4  C   UNL     1      33.725 -15.934 -23.026  0.00  0.00    +0.003 C 
ATOM      5  C   UNL     1      34.056 -14.508 -21.010  0.00  0.00    +0.006 C 
ATOM      6  C   UNL     1      34.388 -17.130 -22.428  0.00  0.00    +0.135 C 
ATOM      7  C   UNL     1      34.624 -15.736 -20.288  0.00  0.00    +0.003 C 
ATOM      8  C   UNL     1      35.299 -16.712 -21.265  0.00  0.00    +0.034 C 
ATOM      9  CA  UNL     1      33.646 -15.500 -24.290  0.00  0.00    +0.115 C 
ATOM     10  H   UNL     1      32.840 -13.823 -25.218  0.00  0.00    +0.147 HD
ENDROOT
BRANCH   9  12
ATOM     11  OXT UNL     1      34.886 -17.155 -25.461  0.00  0.00    -0.244 OA
ATOM     12  C   UNL     1      34.175 -16.158 -25.473  0.00  0.00    +0.351 C 
BRANCH  12  13
ATOM     13  O   UNL     1      33.768 -15.508 -26.587  0.00  0.00    -0.476 OA
ATOM     14  H   UNL     1      33.764 -14.570 -26.606  0.00  0.00    +0.295 HD
ENDBRANCH  12  13
ENDBRANCH   9  12
BRANCH   6  15
ATOM     15  O   UNL     1      33.369 -17.999 -21.939  0.00  0.00    -0.352 OA
BRANCH  15  16
ATOM     16  C   UNL     1      33.916 -19.215 -21.453  0.00  0.00    +0.142 C 
BRANCH  16  17
ATOM     17  C   UNL     1      32.884 -19.899 -20.567  0.00  0.00    +0.032 C 
BRANCH  17  18
ATOM     18  C   UNL     1      33.487 -21.074 -19.803  0.00  0.00    +0.003 C 
ATOM     19  C   UNL     1      35.007 -21.036 -19.830  0.00  0.00    +0.000 C 
ENDBRANCH  17  18
ENDBRANCH  16  17
ENDBRANCH  15  16
ENDBRANCH   6  15
BRANCH   3  20
ATOM     20  C   UNL     1      33.090 -12.403 -22.846  0.00  0.00    +0.083 C 
BRANCH  20  22
ATOM     21  O   UNL     1      31.241 -11.833 -21.357  0.00  0.00    -0.288 OA
ATOM     22  C   UNL     1      31.949 -11.548 -22.317  0.00  0.00    +0.209 C 
ENDBRANCH  20  22
BRANCH  20  23
ATOM     23  C   UNL     1      33.711 -11.835 -24.132  0.00  0.00    +0.009 C 
ATOM     24  C   UNL     1      33.954 -10.333 -24.060  0.00  0.00    +0.001 C 
ENDBRANCH  20  23
ENDBRANCH   3  20
TORSDOF 9
ENDMDL
MODEL 9
REMARK VINA RESULT:      -7.4     10.190     12.620
REMARK  Name = 46937124
REMARK  9 active torsions:
REMARK  status: ('A' for Active; 'I' for Inactive)
REMARK    1  A    between atoms: C_3  and  C_20
REMARK    2  A    between atoms: C_6  and  O_15
REMARK    3  A    between atoms: CA_9  and  C_12
REMARK    4  A    between atoms: C_12  and  O_13
REMARK    5  A    between atoms: O_15  and  C_16
REMARK    6  A    between atoms: C_16  and  C_17
REMARK    7  A    between atoms: C_17  and  C_18
REMARK    8  A    between atoms: C_20  and  C_22
REMARK    9  A    between atoms: C_20  and  C_23
REMARK                            x       y       z     vdW  Elec       q    Type
REMARK                         _______ _______ _______ _____ _____    ______ ____
ROOT
ATOM      1  N   UNL     1      36.168 -25.268 -13.342  0.00  0.00    -0.329 N 
ATOM      2  C   UNL     1      36.871 -24.408 -15.418  0.00  0.00    +0.040 C 
ATOM      3  C   UNL     1      37.317 -25.323 -14.232  0.00  0.00    +0.080 C 
ATOM      4  C   UNL     1      35.471 -23.964 -15.021  0.00  0.00    +0.003 C 
ATOM      5  C   UNL     1      37.729 -23.175 -15.720  0.00  0.00    +0.006 C 
ATOM      6  C   UNL     1      34.739 -23.010 -15.908  0.00  0.00    +0.135 C 
ATOM      7  C   UNL     1      37.046 -22.269 -16.751  0.00  0.00    +0.003 C 
ATOM      8  C   UNL     1      35.646 -21.832 -16.290  0.00  0.00    +0.034 C 
ATOM      9  CA  UNL     1      35.156 -24.491 -13.832  0.00  0.00    +0.115 C 
ATOM     10  H   UNL     1      36.123 -25.739 -12.478  0.00  0.00    +0.147 HD
ENDROOT
BRANCH   9  12
ATOM     11  OXT UNL     1      32.856 -24.835 -13.344  0.00  0.00    -0.244 OA
ATOM     12  C   UNL     1      33.923 -24.293 -13.089  0.00  0.00    +0.351 C 
BRANCH  12  13
ATOM     13  O   UNL     1      34.128 -23.421 -12.074  0.00  0.00    -0.476 OA
ATOM     14  H   UNL     1      34.552 -23.709 -11.288  0.00  0.00    +0.295 HD
ENDBRANCH  12  13
ENDBRANCH   9  12
BRANCH   6  15
ATOM     15  O   UNL     1      34.358 -23.713 -17.089  0.00  0.00    -0.352 OA
BRANCH  15  16
ATOM     16  C   UNL     1      33.034 -23.385 -17.481  0.00  0.00    +0.142 C 
BRANCH  16  17
ATOM     17  C   UNL     1      32.232 -23.018 -16.241  0.00  0.00    +0.032 C 
BRANCH  17  18
ATOM     18  C   UNL     1      30.937 -23.822 -16.148  0.00  0.00    +0.003 C 
ATOM     19  C   UNL     1      29.719 -22.947 -16.396  0.00  0.00    +0.000 C 
ENDBRANCH  17  18
ENDBRANCH  16  17
ENDBRANCH  15  16
ENDBRANCH   6  15
BRANCH   3  20
ATOM     20  C   UNL     1      38.576 -24.913 -13.484  0.00  0.00    +0.083 C 
BRANCH  20  22
ATOM     21  O   UNL     1      39.629 -26.808 -14.607  0.00  0.00    -0.288 OA
ATOM     22  C   UNL     1      39.617 -26.003 -13.682  0.00  0.00    +0.209 C 
ENDBRANCH  20  22
BRANCH  20  23
ATOM     23  C   UNL     1      38.270 -24.645 -12.002  0.00  0.00    +0.009 C 
ATOM     24  C   UNL     1      37.896 -23.194 -11.727  0.00  0.00    +0.001 C 
ENDBRANCH  20  23
ENDBRANCH   3  20
TORSDOF 9
ENDMDL
