MODEL 1
REMARK VINA RESULT:     -10.4      0.000      0.000
REMARK  Name = 66359
REMARK  2 active torsions:
REMARK  status: ('A' for Active; 'I' for Inactive)
REMARK    1  A    between atoms: C_5  and  O_20
REMARK    2  A    between atoms: O_20  and  C_22
REMARK                            x       y       z     vdW  Elec       q    Type
REMARK                         _______ _______ _______ _____ _____    ______ ____
ROOT
ATOM      1  O   UNL     1      33.757 -19.250 -21.714  0.00  0.00    -0.291 OA
ATOM      2  C   UNL     1      35.915 -22.702 -15.380  0.00  0.00    +0.011 C 
ATOM      3  C   UNL     1      35.072 -23.872 -14.822  0.00  0.00    +0.056 C 
ATOM      4  C   UNL     1      36.019 -22.767 -16.903  0.00  0.00    +0.023 C 
ATOM      5  C   UNL     1      35.154 -23.523 -13.324  0.00  0.00    +0.172 C 
ATOM      6  C   UNL     1      37.167 -22.721 -14.513  0.00  0.00    +0.004 C 
ATOM      7  C   UNL     1      36.628 -23.105 -13.121  0.00  0.00    +0.044 C 
ATOM      8  C   UNL     1      34.598 -22.650 -17.497  0.00  0.00    -0.027 C 
ATOM      9  C   UNL     1      36.979 -21.711 -17.459  0.00  0.00    +0.009 C 
ATOM     10  C   UNL     1      33.717 -23.813 -15.474  0.00  0.00    -0.024 C 
ATOM     11  C   UNL     1      35.640 -25.287 -15.091  0.00  0.00    +0.008 C 
ATOM     12  C   UNL     1      33.532 -23.273 -16.694  0.00  0.00    -0.009 C 
ATOM     13  C   UNL     1      34.373 -21.987 -18.661  0.00  0.00    -0.030 C 
ATOM     14  C   UNL     1      36.882 -21.690 -18.979  0.00  0.00    +0.026 C 
ATOM     15  C   UNL     1      35.475 -21.348 -19.403  0.00  0.00    -0.024 C 
ATOM     16  C   UNL     1      33.021 -21.848 -19.338  0.00  0.00    +0.034 C 
ATOM     17  C   UNL     1      35.280 -20.468 -20.398  0.00  0.00    +0.033 C 
ATOM     18  C   UNL     1      32.778 -20.445 -19.881  0.00  0.00    +0.074 C 
ATOM     19  C   UNL     1      33.919 -20.013 -20.764  0.00  0.00    +0.173 C 
ENDROOT
BRANCH   5  20
ATOM     20  O   UNL     1      34.809 -24.608 -12.482  0.00  0.00    -0.452 OA
BRANCH  20  22
ATOM     21  O   UNL     1      36.605 -25.881 -11.781  0.00  0.00    -0.250 OA
ATOM     22  C   UNL     1      35.770 -25.007 -11.591  0.00  0.00    +0.317 C 
ATOM     23  C   UNL     1      35.661 -24.212 -10.326  0.00  0.00    +0.121 C 
ENDBRANCH  20  22
ENDBRANCH   5  20
TORSDOF 2
ENDMDL
MODEL 2
REMARK VINA RESULT:     -10.3      2.626      8.943
REMARK  Name = 66359
REMARK  2 active torsions:
REMARK  status: ('A' for Active; 'I' for Inactive)
REMARK    1  A    between atoms: C_5  and  O_20
REMARK    2  A    between atoms: O_20  and  C_22
REMARK                            x       y       z     vdW  Elec       q    Type
REMARK                         _______ _______ _______ _____ _____    ______ ____
ROOT
ATOM      1  O   UNL     1      35.779 -23.715 -15.062  0.00  0.00    -0.291 OA
ATOM      2  C   UNL     1      34.248 -19.006 -20.735  0.00  0.00    +0.011 C 
ATOM      3  C   UNL     1      35.365 -18.626 -21.735  0.00  0.00    +0.056 C 
ATOM      4  C   UNL     1      34.316 -20.486 -20.359  0.00  0.00    +0.023 C 
ATOM      5  C   UNL     1      35.033 -17.130 -21.895  0.00  0.00    +0.172 C 
ATOM      6  C   UNL     1      32.992 -18.420 -21.365  0.00  0.00    +0.004 C 
ATOM      7  C   UNL     1      33.491 -17.101 -21.987  0.00  0.00    +0.044 C 
ATOM      8  C   UNL     1      35.675 -20.757 -19.675  0.00  0.00    -0.027 C 
ATOM      9  C   UNL     1      33.125 -20.915 -19.497  0.00  0.00    +0.009 C 
ATOM     10  C   UNL     1      36.684 -18.979 -21.104  0.00  0.00    -0.024 C 
ATOM     11  C   UNL     1      35.308 -19.353 -23.099  0.00  0.00    +0.008 C 
ATOM     12  C   UNL     1      36.803 -19.961 -20.190  0.00  0.00    -0.009 C 
ATOM     13  C   UNL     1      35.785 -21.646 -18.655  0.00  0.00    -0.030 C 
ATOM     14  C   UNL     1      33.355 -22.332 -18.988  0.00  0.00    +0.026 C 
ATOM     15  C   UNL     1      34.612 -22.386 -18.155  0.00  0.00    -0.024 C 
ATOM     16  C   UNL     1      37.079 -22.002 -17.945  0.00  0.00    +0.034 C 
ATOM     17  C   UNL     1      34.608 -23.065 -16.997  0.00  0.00    +0.033 C 
ATOM     18  C   UNL     1      36.910 -22.108 -16.434  0.00  0.00    +0.074 C 
ATOM     19  C   UNL     1      35.780 -23.043 -16.091  0.00  0.00    +0.173 C 
ENDROOT
BRANCH   5  20
ATOM     20  O   UNL     1      35.626 -16.551 -23.043  0.00  0.00    -0.452 OA
BRANCH  20  22
ATOM     21  O   UNL     1      34.509 -14.566 -23.424  0.00  0.00    -0.250 OA
ATOM     22  C   UNL     1      34.833 -15.696 -23.762  0.00  0.00    +0.317 C 
ATOM     23  C   UNL     1      34.410 -16.342 -25.046  0.00  0.00    +0.121 C 
ENDBRANCH  20  22
ENDBRANCH   5  20
TORSDOF 2
ENDMDL
MODEL 3
REMARK VINA RESULT:     -10.2      1.602      2.156
REMARK  Name = 66359
REMARK  2 active torsions:
REMARK  status: ('A' for Active; 'I' for Inactive)
REMARK    1  A    between atoms: C_5  and  O_20
REMARK    2  A    between atoms: O_20  and  C_22
REMARK                            x       y       z     vdW  Elec       q    Type
REMARK                         _______ _______ _______ _____ _____    ______ ____
ROOT
ATOM      1  O   UNL     1      34.467 -18.221 -22.350  0.00  0.00    -0.291 OA
ATOM      2  C   UNL     1      35.286 -22.554 -16.247  0.00  0.00    +0.011 C 
ATOM      3  C   UNL     1      34.237 -23.648 -15.940  0.00  0.00    +0.056 C 
ATOM      4  C   UNL     1      35.591 -22.479 -17.742  0.00  0.00    +0.023 C 
ATOM      5  C   UNL     1      34.152 -23.465 -14.413  0.00  0.00    +0.172 C 
ATOM      6  C   UNL     1      36.393 -22.832 -15.240  0.00  0.00    +0.004 C 
ATOM      7  C   UNL     1      35.624 -23.276 -13.981  0.00  0.00    +0.044 C 
ATOM      8  C   UNL     1      34.292 -22.110 -18.491  0.00  0.00    -0.027 C 
ATOM      9  C   UNL     1      36.742 -21.515 -18.046  0.00  0.00    +0.009 C 
ATOM     10  C   UNL     1      33.003 -23.338 -16.744  0.00  0.00    -0.024 C 
ATOM     11  C   UNL     1      34.659 -25.092 -16.301  0.00  0.00    +0.008 C 
ATOM     12  C   UNL     1      33.056 -22.658 -17.906  0.00  0.00    -0.009 C 
ATOM     13  C   UNL     1      34.313 -21.309 -19.588  0.00  0.00    -0.030 C 
ATOM     14  C   UNL     1      36.860 -21.328 -19.553  0.00  0.00    +0.026 C 
ATOM     15  C   UNL     1      35.578 -20.756 -20.106  0.00  0.00    -0.024 C 
ATOM     16  C   UNL     1      33.096 -20.918 -20.406  0.00  0.00    +0.034 C 
ATOM     17  C   UNL     1      35.632 -19.762 -21.007  0.00  0.00    +0.033 C 
ATOM     18  C   UNL     1      33.104 -19.448 -20.806  0.00  0.00    +0.074 C 
ATOM     19  C   UNL     1      34.401 -19.090 -21.484  0.00  0.00    +0.173 C 
ENDROOT
BRANCH   5  20
ATOM     20  O   UNL     1      33.563 -24.572 -13.754  0.00  0.00    -0.452 OA
BRANCH  20  22
ATOM     21  O   UNL     1      31.498 -25.567 -14.035  0.00  0.00    -0.250 OA
ATOM     22  C   UNL     1      32.194 -24.605 -13.740  0.00  0.00    +0.317 C 
ATOM     23  C   UNL     1      31.651 -23.278 -13.305  0.00  0.00    +0.121 C 
ENDBRANCH  20  22
ENDBRANCH   5  20
TORSDOF 2
ENDMDL
MODEL 4
REMARK VINA RESULT:      -9.9      2.967      4.437
REMARK  Name = 66359
REMARK  2 active torsions:
REMARK  status: ('A' for Active; 'I' for Inactive)
REMARK    1  A    between atoms: C_5  and  O_20
REMARK    2  A    between atoms: O_20  and  C_22
REMARK                            x       y       z     vdW  Elec       q    Type
REMARK                         _______ _______ _______ _____ _____    ______ ____
ROOT
ATOM      1  O   UNL     1      27.964 -22.034 -15.546  0.00  0.00    -0.291 OA
ATOM      2  C   UNL     1      35.424 -23.055 -15.644  0.00  0.00    +0.011 C 
ATOM      3  C   UNL     1      36.072 -24.049 -14.652  0.00  0.00    +0.056 C 
ATOM      4  C   UNL     1      34.109 -23.600 -16.198  0.00  0.00    +0.023 C 
ATOM      5  C   UNL     1      37.323 -23.228 -14.286  0.00  0.00    +0.172 C 
ATOM      6  C   UNL     1      36.569 -22.687 -16.577  0.00  0.00    +0.004 C 
ATOM      7  C   UNL     1      37.791 -22.644 -15.638  0.00  0.00    +0.044 C 
ATOM      8  C   UNL     1      33.126 -23.803 -15.024  0.00  0.00    -0.027 C 
ATOM      9  C   UNL     1      33.534 -22.703 -17.300  0.00  0.00    +0.009 C 
ATOM     10  C   UNL     1      35.076 -24.319 -13.557  0.00  0.00    -0.024 C 
ATOM     11  C   UNL     1      36.467 -25.421 -15.250  0.00  0.00    +0.008 C 
ATOM     12  C   UNL     1      33.747 -24.220 -13.755  0.00  0.00    -0.009 C 
ATOM     13  C   UNL     1      31.795 -23.573 -15.170  0.00  0.00    -0.030 C 
ATOM     14  C   UNL     1      32.135 -23.183 -17.664  0.00  0.00    +0.026 C 
ATOM     15  C   UNL     1      31.235 -23.118 -16.455  0.00  0.00    -0.024 C 
ATOM     16  C   UNL     1      30.752 -23.775 -14.086  0.00  0.00    +0.034 C 
ATOM     17  C   UNL     1      29.992 -22.627 -16.583  0.00  0.00    +0.033 C 
ATOM     18  C   UNL     1      29.726 -22.649 -14.042  0.00  0.00    +0.074 C 
ATOM     19  C   UNL     1      29.118 -22.432 -15.403  0.00  0.00    +0.173 C 
ENDROOT
BRANCH   5  20
ATOM     20  O   UNL     1      38.341 -24.008 -13.686  0.00  0.00    -0.452 OA
BRANCH  20  22
ATOM     21  O   UNL     1      38.512 -23.125 -11.558  0.00  0.00    -0.250 OA
ATOM     22  C   UNL     1      38.326 -24.066 -12.317  0.00  0.00    +0.317 C 
ATOM     23  C   UNL     1      38.045 -25.467 -11.864  0.00  0.00    +0.121 C 
ENDBRANCH  20  22
ENDBRANCH   5  20
TORSDOF 2
ENDMDL
MODEL 5
REMARK VINA RESULT:      -9.9      8.663     13.386
REMARK  Name = 66359
REMARK  2 active torsions:
REMARK  status: ('A' for Active; 'I' for Inactive)
REMARK    1  A    between atoms: C_5  and  O_20
REMARK    2  A    between atoms: O_20  and  C_22
REMARK                            x       y       z     vdW  Elec       q    Type
REMARK                         _______ _______ _______ _____ _____    ______ ____
ROOT
ATOM      1  O   UNL     1      35.657 -18.298 -22.504  0.00  0.00    -0.291 OA
ATOM      2  C   UNL     1      32.346 -11.762 -20.762  0.00  0.00    +0.011 C 
ATOM      3  C   UNL     1      31.888 -10.812 -21.893  0.00  0.00    +0.056 C 
ATOM      4  C   UNL     1      32.061 -13.222 -21.111  0.00  0.00    +0.023 C 
ATOM      5  C   UNL     1      32.310  -9.474 -21.257  0.00  0.00    +0.172 C 
ATOM      6  C   UNL     1      31.757 -11.131 -19.508  0.00  0.00    +0.004 C 
ATOM      7  C   UNL     1      31.888  -9.620 -19.777  0.00  0.00    +0.044 C 
ATOM      8  C   UNL     1      32.854 -13.588 -22.384  0.00  0.00    -0.027 C 
ATOM      9  C   UNL     1      32.360 -14.162 -19.939  0.00  0.00    +0.009 C 
ATOM     10  C   UNL     1      32.592 -11.231 -23.156  0.00  0.00    -0.024 C 
ATOM     11  C   UNL     1      30.371 -10.826 -22.197  0.00  0.00    +0.008 C 
ATOM     12  C   UNL     1      33.001 -12.497 -23.363  0.00  0.00    -0.009 C 
ATOM     13  C   UNL     1      33.394 -14.824 -22.548  0.00  0.00    -0.030 C 
ATOM     14  C   UNL     1      32.254 -15.607 -20.409  0.00  0.00    +0.026 C 
ATOM     15  C   UNL     1      33.248 -15.865 -21.515  0.00  0.00    -0.024 C 
ATOM     16  C   UNL     1      34.160 -15.285 -23.775  0.00  0.00    +0.034 C 
ATOM     17  C   UNL     1      33.972 -16.996 -21.502  0.00  0.00    +0.033 C 
ATOM     18  C   UNL     1      35.399 -16.098 -23.422  0.00  0.00    +0.074 C 
ATOM     19  C   UNL     1      35.042 -17.233 -22.498  0.00  0.00    +0.173 C 
ENDROOT
BRANCH   5  20
ATOM     20  O   UNL     1      31.687  -8.354 -21.859  0.00  0.00    -0.452 OA
BRANCH  20  22
ATOM     21  O   UNL     1      32.156  -6.103 -21.642  0.00  0.00    -0.250 OA
ATOM     22  C   UNL     1      32.464  -7.234 -21.993  0.00  0.00    +0.317 C 
ATOM     23  C   UNL     1      33.769  -7.586 -22.639  0.00  0.00    +0.121 C 
ENDBRANCH  20  22
ENDBRANCH   5  20
TORSDOF 2
ENDMDL
MODEL 6
REMARK VINA RESULT:      -9.8     10.649     15.796
REMARK  Name = 66359
REMARK  2 active torsions:
REMARK  status: ('A' for Active; 'I' for Inactive)
REMARK    1  A    between atoms: C_5  and  O_20
REMARK    2  A    between atoms: O_20  and  C_22
REMARK                            x       y       z     vdW  Elec       q    Type
REMARK                         _______ _______ _______ _____ _____    ______ ____
ROOT
ATOM      1  O   UNL     1      34.044 -16.217 -21.076  0.00  0.00    -0.291 OA
ATOM      2  C   UNL     1      32.414  -8.902 -21.803  0.00  0.00    +0.011 C 
ATOM      3  C   UNL     1      32.207  -8.301 -23.213  0.00  0.00    +0.056 C 
ATOM      4  C   UNL     1      31.783 -10.289 -21.690  0.00  0.00    +0.023 C 
ATOM      5  C   UNL     1      32.938  -6.961 -23.003  0.00  0.00    +0.172 C 
ATOM      6  C   UNL     1      31.988  -7.775 -20.871  0.00  0.00    +0.004 C 
ATOM      7  C   UNL     1      32.484  -6.509 -21.596  0.00  0.00    +0.044 C 
ATOM      8  C   UNL     1      32.472 -11.226 -22.707  0.00  0.00    -0.027 C 
ATOM      9  C   UNL     1      31.838 -10.831 -20.258  0.00  0.00    +0.009 C 
ATOM     10  C   UNL     1      32.795  -9.262 -24.210  0.00  0.00    -0.024 C 
ATOM     11  C   UNL     1      30.734  -8.069 -23.625  0.00  0.00    +0.008 C 
ATOM     12  C   UNL     1      32.885 -10.584 -23.967  0.00  0.00    -0.009 C 
ATOM     13  C   UNL     1      32.695 -12.535 -22.421  0.00  0.00    -0.030 C 
ATOM     14  C   UNL     1      31.387 -12.286 -20.250  0.00  0.00    +0.026 C 
ATOM     15  C   UNL     1      32.294 -13.114 -21.127  0.00  0.00    -0.024 C 
ATOM     16  C   UNL     1      33.333 -13.537 -23.366  0.00  0.00    +0.034 C 
ATOM     17  C   UNL     1      32.721 -14.310 -20.691  0.00  0.00    +0.033 C 
ATOM     18  C   UNL     1      34.335 -14.448 -22.667  0.00  0.00    +0.074 C 
ATOM     19  C   UNL     1      33.707 -15.100 -21.463  0.00  0.00    +0.173 C 
ENDROOT
BRANCH   5  20
ATOM     20  O   UNL     1      32.610  -5.993 -23.982  0.00  0.00    -0.452 OA
BRANCH  20  22
ATOM     21  O   UNL     1      34.569  -6.417 -25.129  0.00  0.00    -0.250 OA
ATOM     22  C   UNL     1      33.458  -5.910 -25.054  0.00  0.00    +0.317 C 
ATOM     23  C   UNL     1      32.831  -5.099 -26.147  0.00  0.00    +0.121 C 
ENDBRANCH  20  22
ENDBRANCH   5  20
TORSDOF 2
ENDMDL
MODEL 7
REMARK VINA RESULT:      -9.7      1.497      7.905
REMARK  Name = 66359
REMARK  2 active torsions:
REMARK  status: ('A' for Active; 'I' for Inactive)
REMARK    1  A    between atoms: C_5  and  O_20
REMARK    2  A    between atoms: O_20  and  C_22
REMARK                            x       y       z     vdW  Elec       q    Type
REMARK                         _______ _______ _______ _____ _____    ______ ____
ROOT
ATOM      1  O   UNL     1      34.724 -24.285 -12.467  0.00  0.00    -0.291 OA
ATOM      2  C   UNL     1      34.167 -21.054 -19.246  0.00  0.00    +0.011 C 
ATOM      3  C   UNL     1      35.440 -20.836 -20.096  0.00  0.00    +0.056 C 
ATOM      4  C   UNL     1      34.196 -22.406 -18.536  0.00  0.00    +0.023 C 
ATOM      5  C   UNL     1      35.113 -19.436 -20.650  0.00  0.00    +0.172 C 
ATOM      6  C   UNL     1      33.037 -20.702 -20.204  0.00  0.00    +0.004 C 
ATOM      7  C   UNL     1      33.613 -19.525 -21.015  0.00  0.00    +0.044 C 
ATOM      8  C   UNL     1      35.410 -22.434 -17.581  0.00  0.00    -0.027 C 
ATOM      9  C   UNL     1      32.876 -22.708 -17.819  0.00  0.00    +0.009 C 
ATOM     10  C   UNL     1      36.628 -20.957 -19.180  0.00  0.00    -0.024 C 
ATOM     11  C   UNL     1      35.652 -21.850 -21.246  0.00  0.00    +0.008 C 
ATOM     12  C   UNL     1      36.596 -21.703 -18.059  0.00  0.00    -0.009 C 
ATOM     13  C   UNL     1      35.349 -23.067 -16.381  0.00  0.00    -0.030 C 
ATOM     14  C   UNL     1      33.037 -23.960 -16.967  0.00  0.00    +0.026 C 
ATOM     15  C   UNL     1      34.120 -23.749 -15.938  0.00  0.00    -0.024 C 
ATOM     16  C   UNL     1      36.497 -23.175 -15.393  0.00  0.00    +0.034 C 
ATOM     17  C   UNL     1      33.917 -24.153 -14.673  0.00  0.00    +0.033 C 
ATOM     18  C   UNL     1      36.054 -22.953 -13.952  0.00  0.00    +0.074 C 
ATOM     19  C   UNL     1      34.901 -23.858 -13.607  0.00  0.00    +0.173 C 
ENDROOT
BRANCH   5  20
ATOM     20  O   UNL     1      35.894 -19.090 -21.778  0.00  0.00    -0.452 OA
BRANCH  20  22
ATOM     21  O   UNL     1      35.313 -16.870 -22.039  0.00  0.00    -0.250 OA
ATOM     22  C   UNL     1      35.475 -17.996 -22.488  0.00  0.00    +0.317 C 
ATOM     23  C   UNL     1      35.236 -18.371 -23.919  0.00  0.00    +0.121 C 
ENDBRANCH  20  22
ENDBRANCH   5  20
TORSDOF 2
ENDMDL
MODEL 8
REMARK VINA RESULT:      -9.4      2.834      4.725
REMARK  Name = 66359
REMARK  2 active torsions:
REMARK  status: ('A' for Active; 'I' for Inactive)
REMARK    1  A    between atoms: C_5  and  O_20
REMARK    2  A    between atoms: O_20  and  C_22
REMARK                            x       y       z     vdW  Elec       q    Type
REMARK                         _______ _______ _______ _____ _____    ______ ____
ROOT
ATOM      1  O   UNL     1      34.507 -14.555 -22.854  0.00  0.00    -0.291 OA
ATOM      2  C   UNL     1      35.538 -21.003 -19.104  0.00  0.00    +0.011 C 
ATOM      3  C   UNL     1      34.368 -22.005 -18.972  0.00  0.00    +0.056 C 
ATOM      4  C   UNL     1      35.583 -20.379 -20.499  0.00  0.00    +0.023 C 
ATOM      5  C   UNL     1      34.591 -22.430 -17.508  0.00  0.00    +0.172 C 
ATOM      6  C   UNL     1      36.731 -21.775 -18.559  0.00  0.00    +0.004 C 
ATOM      7  C   UNL     1      36.125 -22.591 -17.400  0.00  0.00    +0.044 C 
ATOM      8  C   UNL     1      34.267 -19.603 -20.732  0.00  0.00    -0.027 C 
ATOM      9  C   UNL     1      36.826 -19.507 -20.699  0.00  0.00    +0.009 C 
ATOM     10  C   UNL     1      33.095 -21.269 -19.293  0.00  0.00    -0.024 C 
ATOM     11  C   UNL     1      34.432 -23.228 -19.918  0.00  0.00    +0.008 C 
ATOM     12  C   UNL     1      33.073 -20.197 -20.109  0.00  0.00    -0.009 C 
ATOM     13  C   UNL     1      34.249 -18.443 -21.438  0.00  0.00    -0.030 C 
ATOM     14  C   UNL     1      36.709 -18.756 -22.019  0.00  0.00    +0.026 C 
ATOM     15  C   UNL     1      35.485 -17.874 -22.007  0.00  0.00    -0.024 C 
ATOM     16  C   UNL     1      33.005 -17.629 -21.746  0.00  0.00    +0.034 C 
ATOM     17  C   UNL     1      35.571 -16.619 -22.475  0.00  0.00    +0.033 C 
ATOM     18  C   UNL     1      33.228 -16.131 -21.580  0.00  0.00    +0.074 C 
ATOM     19  C   UNL     1      34.428 -15.682 -22.370  0.00  0.00    +0.173 C 
ENDROOT
BRANCH   5  20
ATOM     20  O   UNL     1      33.926 -23.634 -17.173  0.00  0.00    -0.452 OA
BRANCH  20  22
ATOM     21  O   UNL     1      33.606 -23.816 -14.893  0.00  0.00    -0.250 OA
ATOM     22  C   UNL     1      33.183 -23.610 -16.022  0.00  0.00    +0.317 C 
ATOM     23  C   UNL     1      31.754 -23.291 -16.338  0.00  0.00    +0.121 C 
ENDBRANCH  20  22
ENDBRANCH   5  20
TORSDOF 2
ENDMDL
MODEL 9
REMARK VINA RESULT:      -8.8     14.573     18.822
REMARK  Name = 66359
REMARK  2 active torsions:
REMARK  status: ('A' for Active; 'I' for Inactive)
REMARK    1  A    between atoms: C_5  and  O_20
REMARK    2  A    between atoms: O_20  and  C_22
REMARK                            x       y       z     vdW  Elec       q    Type
REMARK                         _______ _______ _______ _____ _____    ______ ____
ROOT
ATOM      1  O   UNL     1      33.001  -1.786 -29.445  0.00  0.00    -0.291 OA
ATOM      2  C   UNL     1      31.874  -7.111 -24.241  0.00  0.00    +0.011 C 
ATOM      3  C   UNL     1      33.079  -7.912 -23.694  0.00  0.00    +0.056 C 
ATOM      4  C   UNL     1      32.223  -5.634 -24.423  0.00  0.00    +0.023 C 
ATOM      5  C   UNL     1      32.423  -9.305 -23.636  0.00  0.00    +0.172 C 
ATOM      6  C   UNL     1      30.726  -7.533 -23.335  0.00  0.00    +0.004 C 
ATOM      7  C   UNL     1      31.010  -9.025 -23.075  0.00  0.00    +0.044 C 
ATOM      8  C   UNL     1      33.370  -5.524 -25.452  0.00  0.00    -0.027 C 
ATOM      9  C   UNL     1      31.000  -4.798 -24.811  0.00  0.00    +0.009 C 
ATOM     10  C   UNL     1      34.225  -7.725 -24.651  0.00  0.00    -0.024 C 
ATOM     11  C   UNL     1      33.583  -7.479 -22.297  0.00  0.00    +0.008 C 
ATOM     12  C   UNL     1      34.346  -6.627 -25.421  0.00  0.00    -0.009 C 
ATOM     13  C   UNL     1      33.431  -4.491 -26.332  0.00  0.00    -0.030 C 
ATOM     14  C   UNL     1      31.447  -3.388 -25.176  0.00  0.00    +0.026 C 
ATOM     15  C   UNL     1      32.403  -3.435 -26.343  0.00  0.00    -0.024 C 
ATOM     16  C   UNL     1      34.533  -4.280 -27.355  0.00  0.00    +0.034 C 
ATOM     17  C   UNL     1      32.265  -2.551 -27.345  0.00  0.00    +0.033 C 
ATOM     18  C   UNL     1      33.997  -3.839 -28.712  0.00  0.00    +0.074 C 
ATOM     19  C   UNL     1      33.103  -2.637 -28.563  0.00  0.00    +0.173 C 
ENDROOT
BRANCH   5  20
ATOM     20  O   UNL     1      33.129 -10.215 -22.813  0.00  0.00    -0.452 OA
BRANCH  20  22
ATOM     21  O   UNL     1      32.800 -12.500 -22.738  0.00  0.00    -0.250 OA
ATOM     22  C   UNL     1      33.234 -11.497 -23.286  0.00  0.00    +0.317 C 
ATOM     23  C   UNL     1      33.966 -11.505 -24.594  0.00  0.00    +0.121 C 
ENDBRANCH  20  22
ENDBRANCH   5  20
TORSDOF 2
ENDMDL
