MODEL 1
REMARK VINA RESULT:      -9.8      0.000      0.000
REMARK  Name = 244809
REMARK  3 active torsions:
REMARK  status: ('A' for Active; 'I' for Inactive)
REMARK    1  A    between atoms: C_5  and  O_19
REMARK    2  A    between atoms: C_8  and  O_21
REMARK    3  A    between atoms: C_18  and  O_23
REMARK                            x       y       z     vdW  Elec       q    Type
REMARK                         _______ _______ _______ _____ _____    ______ ____
ROOT
ATOM      1  C   UNL     1      37.201 -25.282 -13.409  0.00  0.00    +0.027 C 
ATOM      2  C   UNL     1      37.266 -24.208 -14.519  0.00  0.00    +0.005 C 
ATOM      3  C   UNL     1      35.939 -24.075 -15.270  0.00  0.00    +0.005 C 
ATOM      4  C   UNL     1      34.834 -23.630 -14.265  0.00  0.00    +0.022 C 
ATOM      5  C   UNL     1      38.675 -25.274 -12.942  0.00  0.00    +0.137 C 
ATOM      6  C   UNL     1      36.147 -24.829 -12.387  0.00  0.00    +0.003 C 
ATOM      7  C   UNL     1      38.529 -24.557 -15.307  0.00  0.00    +0.032 C 
ATOM      8  C   UNL     1      39.461 -25.214 -14.271  0.00  0.00    +0.137 C 
ATOM      9  C   UNL     1      34.773 -24.582 -13.041  0.00  0.00    +0.004 C 
ATOM     10  C   UNL     1      36.009 -23.058 -16.412  0.00  0.00    +0.005 C 
ATOM     11  C   UNL     1      36.849 -26.705 -13.912  0.00  0.00    +0.002 C 
ATOM     12  C   UNL     1      33.502 -23.401 -14.972  0.00  0.00    -0.026 C 
ATOM     13  C   UNL     1      34.707 -23.081 -17.207  0.00  0.00    +0.026 C 
ATOM     14  C   UNL     1      33.464 -23.101 -16.352  0.00  0.00    -0.023 C 
ATOM     15  C   UNL     1      32.290 -23.395 -14.258  0.00  0.00    -0.001 C 
ATOM     16  C   UNL     1      32.231 -22.857 -16.983  0.00  0.00    +0.032 C 
ATOM     17  C   UNL     1      31.073 -23.142 -14.895  0.00  0.00    +0.037 C 
ATOM     18  C   UNL     1      31.042 -22.878 -16.258  0.00  0.00    +0.138 C 
ENDROOT
BRANCH   5  19
ATOM     19  O   UNL     1      38.971 -24.120 -12.162  0.00  0.00    -0.382 OA
ATOM     20  H   UNL     1      39.727 -24.306 -11.583  0.00  0.00    +0.210 HD
ENDBRANCH   5  19
BRANCH   8  21
ATOM     21  O   UNL     1      40.675 -24.492 -14.149  0.00  0.00    -0.382 OA
ATOM     22  H   UNL     1      40.651 -23.954 -13.342  0.00  0.00    +0.210 HD
ENDBRANCH   8  21
BRANCH  18  23
ATOM     23  O   UNL     1      29.859 -22.636 -16.882  0.00  0.00    -0.471 OA
ATOM     24  C   UNL     1      28.672 -22.772 -16.101  0.00  0.00    +0.252 C 
ENDBRANCH  18  23
TORSDOF 3
ENDMDL
MODEL 2
REMARK VINA RESULT:      -9.1      2.687      3.923
REMARK  Name = 244809
REMARK  3 active torsions:
REMARK  status: ('A' for Active; 'I' for Inactive)
REMARK    1  A    between atoms: C_5  and  O_19
REMARK    2  A    between atoms: C_8  and  O_21
REMARK    3  A    between atoms: C_18  and  O_23
REMARK                            x       y       z     vdW  Elec       q    Type
REMARK                         _______ _______ _______ _____ _____    ______ ____
ROOT
ATOM      1  C   UNL     1      35.758 -24.992 -14.128  0.00  0.00    +0.027 C 
ATOM      2  C   UNL     1      36.548 -23.673 -14.286  0.00  0.00    +0.005 C 
ATOM      3  C   UNL     1      36.548 -23.172 -15.732  0.00  0.00    +0.005 C 
ATOM      4  C   UNL     1      35.080 -22.883 -16.166  0.00  0.00    +0.022 C 
ATOM      5  C   UNL     1      36.046 -25.298 -12.640  0.00  0.00    +0.137 C 
ATOM      6  C   UNL     1      34.297 -24.706 -14.507  0.00  0.00    +0.003 C 
ATOM      7  C   UNL     1      37.886 -23.950 -13.600  0.00  0.00    +0.032 C 
ATOM      8  C   UNL     1      37.552 -24.978 -12.502  0.00  0.00    +0.137 C 
ATOM      9  C   UNL     1      34.170 -24.117 -15.926  0.00  0.00    +0.004 C 
ATOM     10  C   UNL     1      37.378 -21.899 -15.914  0.00  0.00    +0.005 C 
ATOM     11  C   UNL     1      36.291 -26.166 -14.987  0.00  0.00    +0.002 C 
ATOM     12  C   UNL     1      35.022 -22.302 -17.575  0.00  0.00    -0.026 C 
ATOM     13  C   UNL     1      37.457 -21.539 -17.395  0.00  0.00    +0.026 C 
ATOM     14  C   UNL     1      36.139 -21.634 -18.123  0.00  0.00    -0.023 C 
ATOM     15  C   UNL     1      33.835 -22.338 -18.329  0.00  0.00    -0.001 C 
ATOM     16  C   UNL     1      36.060 -21.072 -19.409  0.00  0.00    +0.032 C 
ATOM     17  C   UNL     1      33.767 -21.768 -19.603  0.00  0.00    +0.037 C 
ATOM     18  C   UNL     1      34.880 -21.140 -20.145  0.00  0.00    +0.138 C 
ENDROOT
BRANCH   5  19
ATOM     19  O   UNL     1      35.297 -24.449 -11.775  0.00  0.00    -0.382 OA
ATOM     20  H   UNL     1      34.420 -24.292 -12.158  0.00  0.00    +0.210 HD
ENDBRANCH   5  19
BRANCH   8  21
ATOM     21  O   UNL     1      37.882 -24.477 -11.218  0.00  0.00    -0.382 OA
ATOM     22  H   UNL     1      38.833 -24.287 -11.180  0.00  0.00    +0.210 HD
ENDBRANCH   8  21
BRANCH  18  23
ATOM     23  O   UNL     1      34.818 -20.589 -21.387  0.00  0.00    -0.471 OA
ATOM     24  C   UNL     1      34.058 -19.389 -21.528  0.00  0.00    +0.252 C 
ENDBRANCH  18  23
TORSDOF 3
ENDMDL
MODEL 3
REMARK VINA RESULT:      -9.1      1.230      7.130
REMARK  Name = 244809
REMARK  3 active torsions:
REMARK  status: ('A' for Active; 'I' for Inactive)
REMARK    1  A    between atoms: C_5  and  O_19
REMARK    2  A    between atoms: C_8  and  O_21
REMARK    3  A    between atoms: C_18  and  O_23
REMARK                            x       y       z     vdW  Elec       q    Type
REMARK                         _______ _______ _______ _____ _____    ______ ____
ROOT
ATOM      1  C   UNL     1      30.757 -23.725 -14.629  0.00  0.00    +0.027 C 
ATOM      2  C   UNL     1      31.578 -23.608 -15.933  0.00  0.00    +0.005 C 
ATOM      3  C   UNL     1      33.070 -23.407 -15.659  0.00  0.00    +0.005 C 
ATOM      4  C   UNL     1      33.611 -24.647 -14.885  0.00  0.00    +0.022 C 
ATOM      5  C   UNL     1      29.328 -23.782 -15.218  0.00  0.00    +0.137 C 
ATOM      6  C   UNL     1      31.250 -24.973 -13.882  0.00  0.00    +0.003 C 
ATOM      7  C   UNL     1      30.831 -22.557 -16.757  0.00  0.00    +0.032 C 
ATOM      8  C   UNL     1      29.360 -22.699 -16.320  0.00  0.00    +0.137 C 
ATOM      9  C   UNL     1      32.767 -24.927 -13.613  0.00  0.00    +0.004 C 
ATOM     10  C   UNL     1      33.886 -23.228 -16.941  0.00  0.00    +0.005 C 
ATOM     11  C   UNL     1      30.857 -22.493 -13.695  0.00  0.00    +0.002 C 
ATOM     12  C   UNL     1      35.115 -24.542 -14.651  0.00  0.00    -0.026 C 
ATOM     13  C   UNL     1      35.332 -22.888 -16.591  0.00  0.00    +0.026 C 
ATOM     14  C   UNL     1      35.918 -23.741 -15.493  0.00  0.00    -0.023 C 
ATOM     15  C   UNL     1      35.752 -25.304 -13.655  0.00  0.00    -0.001 C 
ATOM     16  C   UNL     1      37.307 -23.682 -15.288  0.00  0.00    +0.032 C 
ATOM     17  C   UNL     1      37.135 -25.243 -13.468  0.00  0.00    +0.037 C 
ATOM     18  C   UNL     1      37.912 -24.428 -14.281  0.00  0.00    +0.138 C 
ENDROOT
BRANCH   5  19
ATOM     19  O   UNL     1      29.054 -25.051 -15.805  0.00  0.00    -0.382 OA
ATOM     20  H   UNL     1      28.509 -24.929 -16.599  0.00  0.00    +0.210 HD
ENDBRANCH   5  19
BRANCH   8  21
ATOM     21  O   UNL     1      28.531 -23.025 -17.423  0.00  0.00    -0.382 OA
ATOM     22  H   UNL     1      27.877 -22.320 -17.555  0.00  0.00    +0.210 HD
ENDBRANCH   8  21
BRANCH  18  23
ATOM     23  O   UNL     1      39.258 -24.364 -14.098  0.00  0.00    -0.471 OA
ATOM     24  C   UNL     1      40.025 -25.498 -14.501  0.00  0.00    +0.252 C 
ENDBRANCH  18  23
TORSDOF 3
ENDMDL
MODEL 4
REMARK VINA RESULT:      -8.8      4.139      5.919
REMARK  Name = 244809
REMARK  3 active torsions:
REMARK  status: ('A' for Active; 'I' for Inactive)
REMARK    1  A    between atoms: C_5  and  O_19
REMARK    2  A    between atoms: C_8  and  O_21
REMARK    3  A    between atoms: C_18  and  O_23
REMARK                            x       y       z     vdW  Elec       q    Type
REMARK                         _______ _______ _______ _____ _____    ______ ____
ROOT
ATOM      1  C   UNL     1      36.273 -22.926 -15.875  0.00  0.00    +0.027 C 
ATOM      2  C   UNL     1      35.228 -23.414 -16.904  0.00  0.00    +0.005 C 
ATOM      3  C   UNL     1      34.785 -22.296 -17.851  0.00  0.00    +0.005 C 
ATOM      4  C   UNL     1      36.024 -21.798 -18.655  0.00  0.00    +0.022 C 
ATOM      5  C   UNL     1      36.412 -24.201 -15.011  0.00  0.00    +0.137 C 
ATOM      6  C   UNL     1      37.517 -22.478 -16.656  0.00  0.00    +0.003 C 
ATOM      7  C   UNL     1      34.171 -24.127 -16.059  0.00  0.00    +0.032 C 
ATOM      8  C   UNL     1      34.950 -24.674 -14.848  0.00  0.00    +0.137 C 
ATOM      9  C   UNL     1      37.186 -21.399 -17.707  0.00  0.00    +0.004 C 
ATOM     10  C   UNL     1      33.706 -22.751 -18.836  0.00  0.00    +0.005 C 
ATOM     11  C   UNL     1      35.788 -21.766 -14.970  0.00  0.00    +0.002 C 
ATOM     12  C   UNL     1      35.631 -20.736 -19.677  0.00  0.00    -0.026 C 
ATOM     13  C   UNL     1      33.208 -21.558 -19.646  0.00  0.00    +0.026 C 
ATOM     14  C   UNL     1      34.307 -20.665 -20.165  0.00  0.00    -0.023 C 
ATOM     15  C   UNL     1      36.587 -19.861 -20.223  0.00  0.00    -0.001 C 
ATOM     16  C   UNL     1      33.967 -19.703 -21.134  0.00  0.00    +0.032 C 
ATOM     17  C   UNL     1      36.238 -18.917 -21.191  0.00  0.00    +0.037 C 
ATOM     18  C   UNL     1      34.928 -18.834 -21.643  0.00  0.00    +0.138 C 
ENDROOT
BRANCH   5  19
ATOM     19  O   UNL     1      37.166 -25.207 -15.681  0.00  0.00    -0.382 OA
ATOM     20  H   UNL     1      37.473 -25.863 -15.036  0.00  0.00    +0.210 HD
ENDBRANCH   5  19
BRANCH   8  21
ATOM     21  O   UNL     1      34.844 -26.085 -14.768  0.00  0.00    -0.382 OA
ATOM     22  H   UNL     1      33.914 -26.345 -14.860  0.00  0.00    +0.210 HD
ENDBRANCH   8  21
BRANCH  18  23
ATOM     23  O   UNL     1      34.585 -17.912 -22.582  0.00  0.00    -0.471 OA
ATOM     24  C   UNL     1      34.993 -18.169 -23.925  0.00  0.00    +0.252 C 
ENDBRANCH  18  23
TORSDOF 3
ENDMDL
MODEL 5
REMARK VINA RESULT:      -8.3      4.999      7.988
REMARK  Name = 244809
REMARK  3 active torsions:
REMARK  status: ('A' for Active; 'I' for Inactive)
REMARK    1  A    between atoms: C_5  and  O_19
REMARK    2  A    between atoms: C_8  and  O_21
REMARK    3  A    between atoms: C_18  and  O_23
REMARK                            x       y       z     vdW  Elec       q    Type
REMARK                         _______ _______ _______ _____ _____    ______ ____
ROOT
ATOM      1  C   UNL     1      33.924 -19.119 -21.424  0.00  0.00    +0.027 C 
ATOM      2  C   UNL     1      35.242 -19.889 -21.180  0.00  0.00    +0.005 C 
ATOM      3  C   UNL     1      35.305 -20.493 -19.775  0.00  0.00    +0.005 C 
ATOM      4  C   UNL     1      34.139 -21.514 -19.614  0.00  0.00    +0.022 C 
ATOM      5  C   UNL     1      34.212 -18.537 -22.827  0.00  0.00    +0.137 C 
ATOM      6  C   UNL     1      32.771 -20.128 -21.314  0.00  0.00    +0.003 C 
ATOM      7  C   UNL     1      36.336 -18.912 -21.613  0.00  0.00    +0.032 C 
ATOM      8  C   UNL     1      35.677 -18.059 -22.714  0.00  0.00    +0.137 C 
ATOM      9  C   UNL     1      32.772 -20.866 -19.961  0.00  0.00    +0.004 C 
ATOM     10  C   UNL     1      36.631 -21.207 -19.500  0.00  0.00    +0.005 C 
ATOM     11  C   UNL     1      33.676 -17.945 -20.443  0.00  0.00    +0.002 C 
ATOM     12  C   UNL     1      34.197 -22.211 -18.257  0.00  0.00    -0.026 C 
ATOM     13  C   UNL     1      36.685 -21.654 -18.042  0.00  0.00    +0.026 C 
ATOM     14  C   UNL     1      35.416 -22.305 -17.550  0.00  0.00    -0.023 C 
ATOM     15  C   UNL     1      33.066 -22.852 -17.719  0.00  0.00    -0.001 C 
ATOM     16  C   UNL     1      35.462 -22.981 -16.318  0.00  0.00    +0.032 C 
ATOM     17  C   UNL     1      33.128 -23.528 -16.499  0.00  0.00    +0.037 C 
ATOM     18  C   UNL     1      34.323 -23.589 -15.795  0.00  0.00    +0.138 C 
ENDROOT
BRANCH   5  19
ATOM     19  O   UNL     1      34.113 -19.534 -23.839  0.00  0.00    -0.382 OA
ATOM     20  H   UNL     1      34.759 -19.351 -24.538  0.00  0.00    +0.210 HD
ENDBRANCH   5  19
BRANCH   8  21
ATOM     21  O   UNL     1      36.380 -18.176 -23.939  0.00  0.00    -0.382 OA
ATOM     22  H   UNL     1      37.334 -18.200 -23.764  0.00  0.00    +0.210 HD
ENDBRANCH   8  21
BRANCH  18  23
ATOM     23  O   UNL     1      34.385 -24.243 -14.605  0.00  0.00    -0.471 OA
ATOM     24  C   UNL     1      33.188 -24.296 -13.830  0.00  0.00    +0.252 C 
ENDBRANCH  18  23
TORSDOF 3
ENDMDL
MODEL 6
REMARK VINA RESULT:      -8.2      2.849      4.457
REMARK  Name = 244809
REMARK  3 active torsions:
REMARK  status: ('A' for Active; 'I' for Inactive)
REMARK    1  A    between atoms: C_5  and  O_19
REMARK    2  A    between atoms: C_8  and  O_21
REMARK    3  A    between atoms: C_18  and  O_23
REMARK                            x       y       z     vdW  Elec       q    Type
REMARK                         _______ _______ _______ _____ _____    ______ ____
ROOT
ATOM      1  C   UNL     1      37.236 -23.472 -14.638  0.00  0.00    +0.027 C 
ATOM      2  C   UNL     1      36.013 -24.183 -15.259  0.00  0.00    +0.005 C 
ATOM      3  C   UNL     1      35.230 -23.267 -16.202  0.00  0.00    +0.005 C 
ATOM      4  C   UNL     1      36.161 -22.842 -17.378  0.00  0.00    +0.022 C 
ATOM      5  C   UNL     1      37.722 -24.573 -13.667  0.00  0.00    +0.137 C 
ATOM      6  C   UNL     1      38.183 -23.091 -15.786  0.00  0.00    +0.003 C 
ATOM      7  C   UNL     1      35.289 -24.802 -14.062  0.00  0.00    +0.032 C 
ATOM      8  C   UNL     1      36.407 -25.093 -13.043  0.00  0.00    +0.137 C 
ATOM      9  C   UNL     1      37.484 -22.225 -16.852  0.00  0.00    +0.004 C 
ATOM     10  C   UNL     1      33.982 -23.941 -16.776  0.00  0.00    +0.005 C 
ATOM     11  C   UNL     1      36.892 -22.205 -13.815  0.00  0.00    +0.002 C 
ATOM     12  C   UNL     1      35.411 -21.990 -18.398  0.00  0.00    -0.026 C 
ATOM     13  C   UNL     1      33.174 -22.931 -17.586  0.00  0.00    +0.026 C 
ATOM     14  C   UNL     1      34.006 -22.077 -18.511  0.00  0.00    -0.023 C 
ATOM     15  C   UNL     1      36.101 -21.168 -19.307  0.00  0.00    -0.001 C 
ATOM     16  C   UNL     1      33.332 -21.313 -19.480  0.00  0.00    +0.032 C 
ATOM     17  C   UNL     1      35.420 -20.421 -20.270  0.00  0.00    +0.037 C 
ATOM     18  C   UNL     1      34.035 -20.489 -20.354  0.00  0.00    +0.138 C 
ENDROOT
BRANCH   5  19
ATOM     19  O   UNL     1      38.371 -25.634 -14.362  0.00  0.00    -0.382 OA
ATOM     20  H   UNL     1      39.163 -25.904 -13.872  0.00  0.00    +0.210 HD
ENDBRANCH   5  19
BRANCH   8  21
ATOM     21  O   UNL     1      36.466 -26.475 -12.732  0.00  0.00    -0.382 OA
ATOM     22  H   UNL     1      35.983 -26.979 -13.405  0.00  0.00    +0.210 HD
ENDBRANCH   8  21
BRANCH  18  23
ATOM     23  O   UNL     1      33.370 -19.758 -21.288  0.00  0.00    -0.471 OA
ATOM     24  C   UNL     1      34.152 -18.918 -22.136  0.00  0.00    +0.252 C 
ENDBRANCH  18  23
TORSDOF 3
ENDMDL
MODEL 7
REMARK VINA RESULT:      -8.1     13.918     16.683
REMARK  Name = 244809
REMARK  3 active torsions:
REMARK  status: ('A' for Active; 'I' for Inactive)
REMARK    1  A    between atoms: C_5  and  O_19
REMARK    2  A    between atoms: C_8  and  O_21
REMARK    3  A    between atoms: C_18  and  O_23
REMARK                            x       y       z     vdW  Elec       q    Type
REMARK                         _______ _______ _______ _____ _____    ______ ____
ROOT
ATOM      1  C   UNL     1      32.241  -8.058 -21.980  0.00  0.00    +0.027 C 
ATOM      2  C   UNL     1      32.486  -8.664 -23.381  0.00  0.00    +0.005 C 
ATOM      3  C   UNL     1      33.113 -10.058 -23.304  0.00  0.00    +0.005 C 
ATOM      4  C   UNL     1      32.133 -11.010 -22.556  0.00  0.00    +0.022 C 
ATOM      5  C   UNL     1      31.746  -6.649 -22.381  0.00  0.00    +0.137 C 
ATOM      6  C   UNL     1      31.238  -8.964 -21.251  0.00  0.00    +0.003 C 
ATOM      7  C   UNL     1      33.223  -7.563 -24.144  0.00  0.00    +0.032 C 
ATOM      8  C   UNL     1      32.711  -6.250 -23.521  0.00  0.00    +0.137 C 
ATOM      9  C   UNL     1      31.724 -10.425 -21.178  0.00  0.00    +0.004 C 
ATOM     10  C   UNL     1      33.416 -10.643 -24.685  0.00  0.00    +0.005 C 
ATOM     11  C   UNL     1      33.518  -7.905 -21.115  0.00  0.00    +0.002 C 
ATOM     12  C   UNL     1      32.668 -12.438 -22.518  0.00  0.00    -0.026 C 
ATOM     13  C   UNL     1      34.170 -11.961 -24.535  0.00  0.00    +0.026 C 
ATOM     14  C   UNL     1      33.597 -12.882 -23.486  0.00  0.00    -0.023 C 
ATOM     15  C   UNL     1      32.189 -13.371 -21.581  0.00  0.00    -0.001 C 
ATOM     16  C   UNL     1      34.055 -14.211 -23.461  0.00  0.00    +0.032 C 
ATOM     17  C   UNL     1      32.646 -14.691 -21.573  0.00  0.00    +0.037 C 
ATOM     18  C   UNL     1      33.582 -15.111 -22.509  0.00  0.00    +0.138 C 
ENDROOT
BRANCH   5  19
ATOM     19  O   UNL     1      30.412  -6.685 -22.878  0.00  0.00    -0.382 OA
ATOM     20  H   UNL     1      29.789  -6.619 -22.137  0.00  0.00    +0.210 HD
ENDBRANCH   5  19
BRANCH   8  21
ATOM     21  O   UNL     1      32.087  -5.432 -24.496  0.00  0.00    -0.382 OA
ATOM     22  H   UNL     1      31.526  -4.775 -24.055  0.00  0.00    +0.210 HD
ENDBRANCH   8  21
BRANCH  18  23
ATOM     23  O   UNL     1      34.031 -16.394 -22.499  0.00  0.00    -0.471 OA
ATOM     24  C   UNL     1      34.846 -16.790 -21.397  0.00  0.00    +0.252 C 
ENDBRANCH  18  23
TORSDOF 3
ENDMDL
MODEL 8
REMARK VINA RESULT:      -8.1      1.688      3.657
REMARK  Name = 244809
REMARK  3 active torsions:
REMARK  status: ('A' for Active; 'I' for Inactive)
REMARK    1  A    between atoms: C_5  and  O_19
REMARK    2  A    between atoms: C_8  and  O_21
REMARK    3  A    between atoms: C_18  and  O_23
REMARK                            x       y       z     vdW  Elec       q    Type
REMARK                         _______ _______ _______ _____ _____    ______ ____
ROOT
ATOM      1  C   UNL     1      35.484 -23.763 -15.256  0.00  0.00    +0.027 C 
ATOM      2  C   UNL     1      34.522 -24.562 -14.348  0.00  0.00    +0.005 C 
ATOM      3  C   UNL     1      33.129 -23.931 -14.286  0.00  0.00    +0.005 C 
ATOM      4  C   UNL     1      32.514 -23.928 -15.717  0.00  0.00    +0.022 C 
ATOM      5  C   UNL     1      36.794 -24.547 -15.013  0.00  0.00    +0.137 C 
ATOM      6  C   UNL     1      34.910 -23.795 -16.680  0.00  0.00    +0.003 C 
ATOM      7  C   UNL     1      35.303 -24.755 -13.047  0.00  0.00    +0.032 C 
ATOM      8  C   UNL     1      36.780 -24.786 -13.486  0.00  0.00    +0.137 C 
ATOM      9  C   UNL     1      33.469 -23.252 -16.738  0.00  0.00    +0.004 C 
ATOM     10  C   UNL     1      32.185 -24.679 -13.342  0.00  0.00    +0.005 C 
ATOM     11  C   UNL     1      35.701 -22.291 -14.822  0.00  0.00    +0.002 C 
ATOM     12  C   UNL     1      31.089 -23.382 -15.707  0.00  0.00    -0.026 C 
ATOM     13  C   UNL     1      30.869 -23.917 -13.214  0.00  0.00    +0.026 C 
ATOM     14  C   UNL     1      30.313 -23.424 -14.528  0.00  0.00    -0.023 C 
ATOM     15  C   UNL     1      30.482 -22.908 -16.884  0.00  0.00    -0.001 C 
ATOM     16  C   UNL     1      28.989 -22.951 -14.542  0.00  0.00    +0.032 C 
ATOM     17  C   UNL     1      29.164 -22.448 -16.886  0.00  0.00    +0.037 C 
ATOM     18  C   UNL     1      28.418 -22.465 -15.715  0.00  0.00    +0.138 C 
ENDROOT
BRANCH   5  19
ATOM     19  O   UNL     1      36.788 -25.800 -15.691  0.00  0.00    -0.382 OA
ATOM     20  H   UNL     1      35.879 -26.027 -15.942  0.00  0.00    +0.210 HD
ENDBRANCH   5  19
BRANCH   8  21
ATOM     21  O   UNL     1      37.394 -26.012 -13.125  0.00  0.00    -0.382 OA
ATOM     22  H   UNL     1      37.738 -25.947 -12.220  0.00  0.00    +0.210 HD
ENDBRANCH   8  21
BRANCH  18  23
ATOM     23  O   UNL     1      27.135 -22.014 -15.713  0.00  0.00    -0.471 OA
ATOM     24  C   UNL     1      26.537 -21.749 -16.982  0.00  0.00    +0.252 C 
ENDBRANCH  18  23
TORSDOF 3
ENDMDL
MODEL 9
REMARK VINA RESULT:      -7.3      3.545      6.367
REMARK  Name = 244809
REMARK  3 active torsions:
REMARK  status: ('A' for Active; 'I' for Inactive)
REMARK    1  A    between atoms: C_5  and  O_19
REMARK    2  A    between atoms: C_8  and  O_21
REMARK    3  A    between atoms: C_18  and  O_23
REMARK                            x       y       z     vdW  Elec       q    Type
REMARK                         _______ _______ _______ _____ _____    ______ ____
ROOT
ATOM      1  C   UNL     1      32.305 -23.605 -14.248  0.00  0.00    +0.027 C 
ATOM      2  C   UNL     1      31.962 -23.892 -15.728  0.00  0.00    +0.005 C 
ATOM      3  C   UNL     1      32.709 -22.961 -16.684  0.00  0.00    +0.005 C 
ATOM      4  C   UNL     1      34.241 -23.189 -16.515  0.00  0.00    +0.022 C 
ATOM      5  C   UNL     1      31.328 -24.581 -13.553  0.00  0.00    +0.137 C 
ATOM      6  C   UNL     1      33.805 -23.874 -14.060  0.00  0.00    +0.003 C 
ATOM      7  C   UNL     1      30.433 -23.915 -15.763  0.00  0.00    +0.032 C 
ATOM      8  C   UNL     1      30.022 -24.403 -14.360  0.00  0.00    +0.137 C 
ATOM      9  C   UNL     1      34.670 -23.045 -15.030  0.00  0.00    +0.004 C 
ATOM     10  C   UNL     1      32.332 -23.195 -18.149  0.00  0.00    +0.005 C 
ATOM     11  C   UNL     1      31.978 -22.163 -13.783  0.00  0.00    +0.002 C 
ATOM     12  C   UNL     1      35.040 -22.343 -17.502  0.00  0.00    -0.026 C 
ATOM     13  C   UNL     1      32.997 -22.141 -19.030  0.00  0.00    +0.026 C 
ATOM     14  C   UNL     1      34.450 -21.894 -18.704  0.00  0.00    -0.023 C 
ATOM     15  C   UNL     1      36.402 -22.065 -17.288  0.00  0.00    -0.001 C 
ATOM     16  C   UNL     1      35.208 -21.146 -19.622  0.00  0.00    +0.032 C 
ATOM     17  C   UNL     1      37.147 -21.329 -18.211  0.00  0.00    +0.037 C 
ATOM     18  C   UNL     1      36.550 -20.864 -19.376  0.00  0.00    +0.138 C 
ENDROOT
BRANCH   5  19
ATOM     19  O   UNL     1      31.772 -25.930 -13.659  0.00  0.00    -0.382 OA
ATOM     20  H   UNL     1      32.741 -25.951 -13.684  0.00  0.00    +0.210 HD
ENDBRANCH   5  19
BRANCH   8  21
ATOM     21  O   UNL     1      29.266 -25.599 -14.438  0.00  0.00    -0.382 OA
ATOM     22  H   UNL     1      28.741 -25.703 -13.628  0.00  0.00    +0.210 HD
ENDBRANCH   8  21
BRANCH  18  23
ATOM     23  O   UNL     1      37.271 -20.143 -20.275  0.00  0.00    -0.471 OA
ATOM     24  C   UNL     1      36.591 -19.096 -20.965  0.00  0.00    +0.252 C 
ENDBRANCH  18  23
TORSDOF 3
ENDMDL
