MODEL 1
REMARK VINA RESULT:      -8.0      0.000      0.000
REMARK  Name = 451668
REMARK  4 active torsions:
REMARK  status: ('A' for Active; 'I' for Inactive)
REMARK    1  A    between atoms: N_2  and  C1*_15
REMARK    2  A    between atoms: C3*_12  and  O3*_16
REMARK    3  A    between atoms: C4*_14  and  C5*_18
REMARK    4  A    between atoms: C5*_18  and  O5*_19
REMARK                            x       y       z     vdW  Elec       q    Type
REMARK                         _______ _______ _______ _____ _____    ______ ____
ROOT
ATOM      1  O   UNL     1      36.758 -20.137 -20.111  0.00  0.00    -0.192 OA
ATOM      2  N   UNL     1      34.693 -19.439 -20.844  0.00  0.00    -0.179 N 
ATOM      3  N   UNL     1      34.950 -21.371 -19.485  0.00  0.00    -0.252 NA
ATOM      4  N   UNL     1      32.809 -20.701 -20.208  0.00  0.00    -0.174 NA
ATOM      5  N   UNL     1      33.093 -22.613 -18.860  0.00  0.00    -0.293 N 
ATOM      6  C   UNL     1      35.539 -20.309 -20.143  0.00  0.00    +0.282 C 
ATOM      7  C   UNL     1      33.343 -19.705 -20.827  0.00  0.00    +0.245 C 
ATOM      8  C   UNL     1      33.656 -21.549 -19.521  0.00  0.00    +0.151 C 
ATOM      9  H   UNL     1      33.664 -23.240 -18.360  0.00  0.00    +0.155 HD
ATOM     10  H   UNL     1      32.118 -22.749 -18.886  0.00  0.00    +0.155 HD
ENDROOT
BRANCH   2  15
ATOM     11  O4* UNL     1      35.120 -17.141 -20.730  0.00  0.00    -0.334 OA
ATOM     12  C3* UNL     1      34.577 -16.520 -22.953  0.00  0.00    +0.144 C 
ATOM     13  C2* UNL     1      34.477 -18.025 -22.846  0.00  0.00    +0.083 C 
ATOM     14  C4* UNL     1      34.543 -16.069 -21.499  0.00  0.00    +0.173 C 
ATOM     15  C1* UNL     1      35.224 -18.312 -21.553  0.00  0.00    +0.206 C 
BRANCH  12  16
ATOM     16  O3* UNL     1      35.824 -16.162 -23.543  0.00  0.00    -0.382 OA
ATOM     17  H3* UNL     1      35.724 -16.113 -24.507  0.00  0.00    +0.210 HD
ENDBRANCH  12  16
BRANCH  14  18
ATOM     18  C5* UNL     1      33.130 -15.830 -20.985  0.00  0.00    +0.169 C 
BRANCH  18  19
ATOM     19  O5* UNL     1      32.421 -15.054 -21.936  0.00  0.00    -0.379 OA
ATOM     20  H5* UNL     1      31.547 -14.825 -21.582  0.00  0.00    +0.211 HD
ENDBRANCH  18  19
ENDBRANCH  14  18
ENDBRANCH   2  15
TORSDOF 4
ENDMDL
MODEL 2
REMARK VINA RESULT:      -7.4      6.439      9.534
REMARK  Name = 451668
REMARK  4 active torsions:
REMARK  status: ('A' for Active; 'I' for Inactive)
REMARK    1  A    between atoms: N_2  and  C1*_15
REMARK    2  A    between atoms: C3*_12  and  O3*_16
REMARK    3  A    between atoms: C4*_14  and  C5*_18
REMARK    4  A    between atoms: C5*_18  and  O5*_19
REMARK                            x       y       z     vdW  Elec       q    Type
REMARK                         _______ _______ _______ _____ _____    ______ ____
ROOT
ATOM      1  O   UNL     1      37.476 -21.634 -16.643  0.00  0.00    -0.192 OA
ATOM      2  N   UNL     1      36.253 -23.098 -15.358  0.00  0.00    -0.179 N 
ATOM      3  N   UNL     1      35.509 -22.392 -17.501  0.00  0.00    -0.252 NA
ATOM      4  N   UNL     1      34.215 -23.895 -16.227  0.00  0.00    -0.174 NA
ATOM      5  N   UNL     1      33.500 -23.179 -18.355  0.00  0.00    -0.293 N 
ATOM      6  C   UNL     1      36.470 -22.332 -16.512  0.00  0.00    +0.282 C 
ATOM      7  C   UNL     1      35.103 -23.850 -15.295  0.00  0.00    +0.245 C 
ATOM      8  C   UNL     1      34.443 -23.136 -17.358  0.00  0.00    +0.151 C 
ATOM      9  H   UNL     1      33.627 -22.651 -19.176  0.00  0.00    +0.155 HD
ATOM     10  H   UNL     1      32.696 -23.738 -18.249  0.00  0.00    +0.155 HD
ENDROOT
BRANCH   2  15
ATOM     11  O4* UNL     1      38.101 -24.200 -14.439  0.00  0.00    -0.334 OA
ATOM     12  C3* UNL     1      37.587 -23.994 -12.133  0.00  0.00    +0.144 C 
ATOM     13  C2* UNL     1      36.549 -23.226 -12.919  0.00  0.00    +0.083 C 
ATOM     14  C4* UNL     1      38.213 -24.900 -13.185  0.00  0.00    +0.173 C 
ATOM     15  C1* UNL     1      37.203 -23.092 -14.284  0.00  0.00    +0.206 C 
BRANCH  12  16
ATOM     16  O3* UNL     1      38.566 -23.094 -11.622  0.00  0.00    -0.382 OA
ATOM     17  H3* UNL     1      39.251 -23.594 -11.151  0.00  0.00    +0.210 HD
ENDBRANCH  12  16
BRANCH  14  18
ATOM     18  C5* UNL     1      37.490 -26.233 -13.326  0.00  0.00    +0.169 C 
BRANCH  18  19
ATOM     19  O5* UNL     1      36.861 -26.546 -12.094  0.00  0.00    -0.379 OA
ATOM     20  H5* UNL     1      35.965 -26.877 -12.263  0.00  0.00    +0.211 HD
ENDBRANCH  18  19
ENDBRANCH  14  18
ENDBRANCH   2  15
TORSDOF 4
ENDMDL
MODEL 3
REMARK VINA RESULT:      -7.3      6.784      9.819
REMARK  Name = 451668
REMARK  4 active torsions:
REMARK  status: ('A' for Active; 'I' for Inactive)
REMARK    1  A    between atoms: N_2  and  C1*_15
REMARK    2  A    between atoms: C3*_12  and  O3*_16
REMARK    3  A    between atoms: C4*_14  and  C5*_18
REMARK    4  A    between atoms: C5*_18  and  O5*_19
REMARK                            x       y       z     vdW  Elec       q    Type
REMARK                         _______ _______ _______ _____ _____    ______ ____
ROOT
ATOM      1  O   UNL     1      34.083 -23.998 -15.932  0.00  0.00    -0.192 OA
ATOM      2  N   UNL     1      36.280 -23.653 -15.347  0.00  0.00    -0.179 N 
ATOM      3  N   UNL     1      35.301 -22.573 -17.223  0.00  0.00    -0.252 NA
ATOM      4  N   UNL     1      37.558 -22.183 -16.670  0.00  0.00    -0.174 NA
ATOM      5  N   UNL     1      36.562 -21.125 -18.526  0.00  0.00    -0.293 N 
ATOM      6  C   UNL     1      35.157 -23.440 -16.158  0.00  0.00    +0.282 C 
ATOM      7  C   UNL     1      37.441 -22.988 -15.672  0.00  0.00    +0.245 C 
ATOM      8  C   UNL     1      36.443 -21.982 -17.459  0.00  0.00    +0.151 C 
ATOM      9  H   UNL     1      35.788 -20.957 -19.111  0.00  0.00    +0.155 HD
ATOM     10  H   UNL     1      37.421 -20.678 -18.704  0.00  0.00    +0.155 HD
ENDROOT
BRANCH   2  15
ATOM     11  O4* UNL     1      35.741 -23.814 -13.076  0.00  0.00    -0.334 OA
ATOM     12  C3* UNL     1      37.467 -25.270 -12.354  0.00  0.00    +0.144 C 
ATOM     13  C2* UNL     1      37.568 -25.127 -13.856  0.00  0.00    +0.083 C 
ATOM     14  C4* UNL     1      36.601 -24.083 -11.953  0.00  0.00    +0.173 C 
ATOM     15  C1* UNL     1      36.215 -24.537 -14.221  0.00  0.00    +0.206 C 
BRANCH  12  16
ATOM     16  O3* UNL     1      36.802 -26.488 -12.031  0.00  0.00    -0.382 OA
ATOM     17  H3* UNL     1      37.252 -27.229 -12.467  0.00  0.00    +0.210 HD
ENDBRANCH  12  16
BRANCH  14  18
ATOM     18  C5* UNL     1      37.412 -22.826 -11.670  0.00  0.00    +0.169 C 
BRANCH  18  19
ATOM     19  O5* UNL     1      38.785 -23.173 -11.593  0.00  0.00    -0.379 OA
ATOM     20  H5* UNL     1      38.870 -24.094 -11.299  0.00  0.00    +0.211 HD
ENDBRANCH  18  19
ENDBRANCH  14  18
ENDBRANCH   2  15
TORSDOF 4
ENDMDL
MODEL 4
REMARK VINA RESULT:      -7.2      7.862      9.417
REMARK  Name = 451668
REMARK  4 active torsions:
REMARK  status: ('A' for Active; 'I' for Inactive)
REMARK    1  A    between atoms: N_2  and  C1*_15
REMARK    2  A    between atoms: C3*_12  and  O3*_16
REMARK    3  A    between atoms: C4*_14  and  C5*_18
REMARK    4  A    between atoms: C5*_18  and  O5*_19
REMARK                            x       y       z     vdW  Elec       q    Type
REMARK                         _______ _______ _______ _____ _____    ______ ____
ROOT
ATOM      1  O   UNL     1      32.737 -23.041 -16.705  0.00  0.00    -0.192 OA
ATOM      2  N   UNL     1      33.399 -23.969 -14.708  0.00  0.00    -0.179 N 
ATOM      3  N   UNL     1      31.151 -24.101 -15.464  0.00  0.00    -0.252 NA
ATOM      4  N   UNL     1      31.773 -25.071 -13.408  0.00  0.00    -0.174 NA
ATOM      5  N   UNL     1      29.550 -25.186 -14.182  0.00  0.00    -0.293 N 
ATOM      6  C   UNL     1      32.442 -23.667 -15.686  0.00  0.00    +0.282 C 
ATOM      7  C   UNL     1      32.983 -24.673 -13.600  0.00  0.00    +0.245 C 
ATOM      8  C   UNL     1      30.842 -24.766 -14.381  0.00  0.00    +0.151 C 
ATOM      9  H   UNL     1      28.859 -24.988 -14.853  0.00  0.00    +0.155 HD
ATOM     10  H   UNL     1      29.316 -25.688 -13.367  0.00  0.00    +0.155 HD
ENDROOT
BRANCH   2  15
ATOM     11  O4* UNL     1      35.411 -24.402 -15.821  0.00  0.00    -0.334 OA
ATOM     12  C3* UNL     1      36.943 -23.992 -14.060  0.00  0.00    +0.144 C 
ATOM     13  C2* UNL     1      35.556 -23.647 -13.568  0.00  0.00    +0.083 C 
ATOM     14  C4* UNL     1      36.670 -24.852 -15.286  0.00  0.00    +0.173 C 
ATOM     15  C1* UNL     1      34.763 -23.555 -14.862  0.00  0.00    +0.206 C 
BRANCH  12  16
ATOM     16  O3* UNL     1      37.627 -22.802 -14.444  0.00  0.00    -0.382 OA
ATOM     17  H3* UNL     1      38.543 -22.838 -14.127  0.00  0.00    +0.210 HD
ENDBRANCH  12  16
BRANCH  14  18
ATOM     18  C5* UNL     1      36.536 -26.333 -14.954  0.00  0.00    +0.169 C 
BRANCH  18  19
ATOM     19  O5* UNL     1      36.765 -27.089 -16.132  0.00  0.00    -0.379 OA
ATOM     20  H5* UNL     1      36.912 -28.018 -15.897  0.00  0.00    +0.211 HD
ENDBRANCH  18  19
ENDBRANCH  14  18
ENDBRANCH   2  15
TORSDOF 4
ENDMDL
MODEL 5
REMARK VINA RESULT:      -7.1      6.397      8.752
REMARK  Name = 451668
REMARK  4 active torsions:
REMARK  status: ('A' for Active; 'I' for Inactive)
REMARK    1  A    between atoms: N_2  and  C1*_15
REMARK    2  A    between atoms: C3*_12  and  O3*_16
REMARK    3  A    between atoms: C4*_14  and  C5*_18
REMARK    4  A    between atoms: C5*_18  and  O5*_19
REMARK                            x       y       z     vdW  Elec       q    Type
REMARK                         _______ _______ _______ _____ _____    ______ ____
ROOT
ATOM      1  O   UNL     1      34.324 -23.126 -18.157  0.00  0.00    -0.192 OA
ATOM      2  N   UNL     1      33.789 -23.537 -15.959  0.00  0.00    -0.179 N 
ATOM      3  N   UNL     1      32.146 -22.879 -17.543  0.00  0.00    -0.252 NA
ATOM      4  N   UNL     1      31.542 -23.286 -15.302  0.00  0.00    -0.174 NA
ATOM      5  N   UNL     1      29.932 -22.633 -16.894  0.00  0.00    -0.293 N 
ATOM      6  C   UNL     1      33.467 -23.176 -17.274  0.00  0.00    +0.282 C 
ATOM      7  C   UNL     1      32.770 -23.568 -15.034  0.00  0.00    +0.245 C 
ATOM      8  C   UNL     1      31.240 -22.934 -16.602  0.00  0.00    +0.151 C 
ATOM      9  H   UNL     1      29.678 -22.377 -17.809  0.00  0.00    +0.155 HD
ATOM     10  H   UNL     1      29.248 -22.674 -16.186  0.00  0.00    +0.155 HD
ENDROOT
BRANCH   2  15
ATOM     11  O4* UNL     1      35.125 -24.835 -14.543  0.00  0.00    -0.334 OA
ATOM     12  C3* UNL     1      36.847 -23.276 -14.071  0.00  0.00    +0.144 C 
ATOM     13  C2* UNL     1      35.917 -22.658 -15.090  0.00  0.00    +0.083 C 
ATOM     14  C4* UNL     1      36.018 -24.415 -13.494  0.00  0.00    +0.173 C 
ATOM     15  C1* UNL     1      35.138 -23.861 -15.596  0.00  0.00    +0.206 C 
BRANCH  12  16
ATOM     16  O3* UNL     1      37.999 -23.799 -14.727  0.00  0.00    -0.382 OA
ATOM     17  H3* UNL     1      38.441 -24.438 -14.147  0.00  0.00    +0.210 HD
ENDBRANCH  12  16
BRANCH  14  18
ATOM     18  C5* UNL     1      35.172 -23.987 -12.302  0.00  0.00    +0.169 C 
BRANCH  18  19
ATOM     19  O5* UNL     1      35.194 -25.020 -11.330  0.00  0.00    -0.379 OA
ATOM     20  H5* UNL     1      34.384 -24.982 -10.798  0.00  0.00    +0.211 HD
ENDBRANCH  18  19
ENDBRANCH  14  18
ENDBRANCH   2  15
TORSDOF 4
ENDMDL
MODEL 6
REMARK VINA RESULT:      -7.1      1.537      2.167
REMARK  Name = 451668
REMARK  4 active torsions:
REMARK  status: ('A' for Active; 'I' for Inactive)
REMARK    1  A    between atoms: N_2  and  C1*_15
REMARK    2  A    between atoms: C3*_12  and  O3*_16
REMARK    3  A    between atoms: C4*_14  and  C5*_18
REMARK    4  A    between atoms: C5*_18  and  O5*_19
REMARK                            x       y       z     vdW  Elec       q    Type
REMARK                         _______ _______ _______ _____ _____    ______ ____
ROOT
ATOM      1  O   UNL     1      32.656 -19.700 -20.731  0.00  0.00    -0.192 OA
ATOM      2  N   UNL     1      34.743 -20.606 -20.397  0.00  0.00    -0.179 N 
ATOM      3  N   UNL     1      32.837 -21.385 -19.213  0.00  0.00    -0.252 NA
ATOM      4  N   UNL     1      34.952 -22.351 -18.830  0.00  0.00    -0.174 NA
ATOM      5  N   UNL     1      33.044 -23.105 -17.669  0.00  0.00    -0.293 N 
ATOM      6  C   UNL     1      33.367 -20.517 -20.146  0.00  0.00    +0.282 C 
ATOM      7  C   UNL     1      35.463 -21.548 -19.698  0.00  0.00    +0.245 C 
ATOM      8  C   UNL     1      33.595 -22.252 -18.594  0.00  0.00    +0.151 C 
ATOM      9  H   UNL     1      32.081 -23.064 -17.473  0.00  0.00    +0.155 HD
ATOM     10  H   UNL     1      33.615 -23.758 -17.202  0.00  0.00    +0.155 HD
ENDROOT
BRANCH   2  15
ATOM     11  O4* UNL     1      35.807 -18.543 -20.691  0.00  0.00    -0.334 OA
ATOM     12  C3* UNL     1      34.924 -17.932 -22.805  0.00  0.00    +0.144 C 
ATOM     13  C2* UNL     1      34.439 -19.325 -22.476  0.00  0.00    +0.083 C 
ATOM     14  C4* UNL     1      35.379 -17.398 -21.453  0.00  0.00    +0.173 C 
ATOM     15  C1* UNL     1      35.373 -19.741 -21.351  0.00  0.00    +0.206 C 
BRANCH  12  16
ATOM     16  O3* UNL     1      36.033 -18.006 -23.696  0.00  0.00    -0.382 OA
ATOM     17  H3* UNL     1      36.803 -17.576 -23.292  0.00  0.00    +0.210 HD
ENDBRANCH  12  16
BRANCH  14  18
ATOM     18  C5* UNL     1      34.262 -16.711 -20.680  0.00  0.00    +0.169 C 
BRANCH  18  19
ATOM     19  O5* UNL     1      34.757 -15.496 -20.142  0.00  0.00    -0.379 OA
ATOM     20  H5* UNL     1      34.044 -14.838 -20.116  0.00  0.00    +0.211 HD
ENDBRANCH  18  19
ENDBRANCH  14  18
ENDBRANCH   2  15
TORSDOF 4
ENDMDL
MODEL 7
REMARK VINA RESULT:      -7.0      3.593      5.727
REMARK  Name = 451668
REMARK  4 active torsions:
REMARK  status: ('A' for Active; 'I' for Inactive)
REMARK    1  A    between atoms: N_2  and  C1*_15
REMARK    2  A    between atoms: C3*_12  and  O3*_16
REMARK    3  A    between atoms: C4*_14  and  C5*_18
REMARK    4  A    between atoms: C5*_18  and  O5*_19
REMARK                            x       y       z     vdW  Elec       q    Type
REMARK                         _______ _______ _______ _____ _____    ______ ____
ROOT
ATOM      1  O   UNL     1      34.795 -18.309 -25.758  0.00  0.00    -0.192 OA
ATOM      2  N   UNL     1      34.607 -17.023 -23.861  0.00  0.00    -0.179 N 
ATOM      3  N   UNL     1      33.692 -16.327 -25.940  0.00  0.00    -0.252 NA
ATOM      4  N   UNL     1      33.471 -14.967 -24.028  0.00  0.00    -0.174 NA
ATOM      5  N   UNL     1      32.573 -14.301 -26.102  0.00  0.00    -0.293 N 
ATOM      6  C   UNL     1      34.388 -17.279 -25.222  0.00  0.00    +0.282 C 
ATOM      7  C   UNL     1      34.118 -15.846 -23.343  0.00  0.00    +0.245 C 
ATOM      8  C   UNL     1      33.261 -15.234 -25.366  0.00  0.00    +0.151 C 
ATOM      9  H   UNL     1      32.404 -14.455 -27.059  0.00  0.00    +0.155 HD
ATOM     10  H   UNL     1      32.247 -13.477 -25.671  0.00  0.00    +0.155 HD
ENDROOT
BRANCH   2  15
ATOM     11  O4* UNL     1      34.569 -19.179 -22.953  0.00  0.00    -0.334 OA
ATOM     12  C3* UNL     1      35.496 -18.733 -20.817  0.00  0.00    +0.144 C 
ATOM     13  C2* UNL     1      35.542 -17.458 -21.627  0.00  0.00    +0.083 C 
ATOM     14  C4* UNL     1      34.486 -19.585 -21.573  0.00  0.00    +0.173 C 
ATOM     15  C1* UNL     1      35.321 -17.961 -23.044  0.00  0.00    +0.206 C 
BRANCH  12  16
ATOM     16  O3* UNL     1      36.774 -19.363 -20.838  0.00  0.00    -0.382 OA
ATOM     17  H3* UNL     1      36.748 -20.169 -20.299  0.00  0.00    +0.210 HD
ENDBRANCH  12  16
BRANCH  14  18
ATOM     18  C5* UNL     1      33.054 -19.363 -21.105  0.00  0.00    +0.169 C 
BRANCH  18  19
ATOM     19  O5* UNL     1      32.701 -20.399 -20.203  0.00  0.00    -0.379 OA
ATOM     20  H5* UNL     1      32.688 -20.050 -19.298  0.00  0.00    +0.211 HD
ENDBRANCH  18  19
ENDBRANCH  14  18
ENDBRANCH   2  15
TORSDOF 4
ENDMDL
MODEL 8
REMARK VINA RESULT:      -6.8      7.570     10.190
REMARK  Name = 451668
REMARK  4 active torsions:
REMARK  status: ('A' for Active; 'I' for Inactive)
REMARK    1  A    between atoms: N_2  and  C1*_15
REMARK    2  A    between atoms: C3*_12  and  O3*_16
REMARK    3  A    between atoms: C4*_14  and  C5*_18
REMARK    4  A    between atoms: C5*_18  and  O5*_19
REMARK                            x       y       z     vdW  Elec       q    Type
REMARK                         _______ _______ _______ _____ _____    ______ ____
ROOT
ATOM      1  O   UNL     1      35.490 -22.576 -15.939  0.00  0.00    -0.192 OA
ATOM      2  N   UNL     1      35.044 -23.553 -13.906  0.00  0.00    -0.179 N 
ATOM      3  N   UNL     1      33.376 -23.342 -15.584  0.00  0.00    -0.252 NA
ATOM      4  N   UNL     1      32.863 -24.352 -13.518  0.00  0.00    -0.174 NA
ATOM      5  N   UNL     1      31.228 -24.130 -15.200  0.00  0.00    -0.293 N 
ATOM      6  C   UNL     1      34.681 -23.124 -15.189  0.00  0.00    +0.282 C 
ATOM      7  C   UNL     1      34.077 -24.157 -13.134  0.00  0.00    +0.245 C 
ATOM      8  C   UNL     1      32.521 -23.925 -14.786  0.00  0.00    +0.151 C 
ATOM      9  H   UNL     1      30.946 -23.839 -16.097  0.00  0.00    +0.155 HD
ATOM     10  H   UNL     1      30.582 -24.569 -14.600  0.00  0.00    +0.155 HD
ENDROOT
BRANCH   2  15
ATOM     11  O4* UNL     1      37.223 -24.403 -13.936  0.00  0.00    -0.334 OA
ATOM     12  C3* UNL     1      37.836 -24.024 -11.678  0.00  0.00    +0.144 C 
ATOM     13  C2* UNL     1      36.467 -23.424 -11.902  0.00  0.00    +0.083 C 
ATOM     14  C4* UNL     1      37.996 -24.970 -12.860  0.00  0.00    +0.173 C 
ATOM     15  C1* UNL     1      36.379 -23.365 -13.419  0.00  0.00    +0.206 C 
BRANCH  12  16
ATOM     16  O3* UNL     1      38.825 -23.000 -11.737  0.00  0.00    -0.382 OA
ATOM     17  H3* UNL     1      39.556 -23.220 -11.138  0.00  0.00    +0.210 HD
ENDBRANCH  12  16
BRANCH  14  18
ATOM     18  C5* UNL     1      37.456 -26.366 -12.581  0.00  0.00    +0.169 C 
BRANCH  18  19
ATOM     19  O5* UNL     1      36.825 -26.856 -13.752  0.00  0.00    -0.379 OA
ATOM     20  H5* UNL     1      37.492 -27.236 -14.345  0.00  0.00    +0.211 HD
ENDBRANCH  18  19
ENDBRANCH  14  18
ENDBRANCH   2  15
TORSDOF 4
ENDMDL
MODEL 9
REMARK VINA RESULT:      -6.8      2.690      3.835
REMARK  Name = 451668
REMARK  4 active torsions:
REMARK  status: ('A' for Active; 'I' for Inactive)
REMARK    1  A    between atoms: N_2  and  C1*_15
REMARK    2  A    between atoms: C3*_12  and  O3*_16
REMARK    3  A    between atoms: C4*_14  and  C5*_18
REMARK    4  A    between atoms: C5*_18  and  O5*_19
REMARK                            x       y       z     vdW  Elec       q    Type
REMARK                         _______ _______ _______ _____ _____    ______ ____
ROOT
ATOM      1  O   UNL     1      34.961 -17.798 -24.686  0.00  0.00    -0.192 OA
ATOM      2  N   UNL     1      34.874 -16.422 -22.845  0.00  0.00    -0.179 N 
ATOM      3  N   UNL     1      35.243 -18.760 -22.642  0.00  0.00    -0.252 NA
ATOM      4  N   UNL     1      35.163 -17.398 -20.721  0.00  0.00    -0.174 NA
ATOM      5  N   UNL     1      35.528 -19.720 -20.549  0.00  0.00    -0.293 N 
ATOM      6  C   UNL     1      35.022 -17.672 -23.462  0.00  0.00    +0.282 C 
ATOM      7  C   UNL     1      34.957 -16.371 -21.472  0.00  0.00    +0.245 C 
ATOM      8  C   UNL     1      35.308 -18.622 -21.344  0.00  0.00    +0.151 C 
ATOM      9  H   UNL     1      35.636 -20.609 -20.957  0.00  0.00    +0.155 HD
ATOM     10  H   UNL     1      35.577 -19.617 -19.570  0.00  0.00    +0.155 HD
ENDROOT
BRANCH   2  15
ATOM     11  O4* UNL     1      34.533 -14.110 -22.749  0.00  0.00    -0.334 OA
ATOM     12  C3* UNL     1      32.904 -13.871 -24.455  0.00  0.00    +0.144 C 
ATOM     13  C2* UNL     1      33.358 -15.313 -24.434  0.00  0.00    +0.083 C 
ATOM     14  C4* UNL     1      33.364 -13.346 -23.102  0.00  0.00    +0.173 C 
ATOM     15  C1* UNL     1      34.642 -15.241 -23.624  0.00  0.00    +0.206 C 
BRANCH  12  16
ATOM     16  O3* UNL     1      33.575 -13.171 -25.500  0.00  0.00    -0.382 OA
ATOM     17  H3* UNL     1      33.780 -12.270 -25.207  0.00  0.00    +0.210 HD
ENDBRANCH  12  16
BRANCH  14  18
ATOM     18  C5* UNL     1      32.326 -13.543 -22.005  0.00  0.00    +0.169 C 
BRANCH  18  19
ATOM     19  O5* UNL     1      31.436 -12.439 -22.012  0.00  0.00    -0.379 OA
ATOM     20  H5* UNL     1      31.924 -11.632 -22.242  0.00  0.00    +0.211 HD
ENDBRANCH  18  19
ENDBRANCH  14  18
ENDBRANCH   2  15
TORSDOF 4
ENDMDL
