MODEL 1
REMARK VINA RESULT:      -7.7      0.000      0.000
REMARK  Name = 46937114
REMARK  6 active torsions:
REMARK  status: ('A' for Active; 'I' for Inactive)
REMARK    1  A    between atoms: C_1  and  C_2
REMARK    2  A    between atoms: C_1  and  O_4
REMARK    3  A    between atoms: C_1  and  C_9
REMARK    4  A    between atoms: O_4  and  P_6
REMARK    5  A    between atoms: C_9  and  O_10
REMARK    6  A    between atoms: O_10  and  C_11
REMARK                            x       y       z     vdW  Elec       q    Type
REMARK                         _______ _______ _______ _____ _____    ______ ____
ROOT
ATOM      1  C   UNL     1      31.879 -23.380 -16.431  0.00  0.00    +0.166 C 
ENDROOT
BRANCH   1   2
ATOM      2  C   UNL     1      32.270 -22.921 -15.026  0.00  0.00    +0.034 C 
ATOM      3  C   UNL     1      33.047 -23.987 -14.264  0.00  0.00    +0.003 C 
ENDBRANCH   1   2
BRANCH   1   4
ATOM      4  O   UNL     1      30.739 -22.635 -16.858  0.00  0.00    -0.302 OA
BRANCH   4   6
ATOM      5 CL   UNL     1      29.702 -25.028 -15.797  0.00  0.00    -0.026 Cl
ATOM      6  P   UNL     1      29.271 -23.217 -16.538  0.00  0.00    +0.302 P 
ATOM      7  O   UNL     1      28.332 -23.297 -17.705  0.00  0.00    -0.273 OA
ATOM      8  C   UNL     1      28.676 -22.268 -15.155  0.00  0.00    +0.114 C 
ENDBRANCH   4   6
ENDBRANCH   1   4
BRANCH   1   9
ATOM      9  C   UNL     1      33.016 -23.147 -17.423  0.00  0.00    +0.235 C 
BRANCH   9  10
ATOM     10  O   UNL     1      32.550 -22.364 -18.518  0.00  0.00    -0.473 OA
BRANCH  10  11
ATOM     11  C   UNL     1      33.493 -21.657 -19.214  0.00  0.00    +0.139 C 
ATOM     12  C   UNL     1      33.104 -20.611 -20.050  0.00  0.00    +0.037 C 
ATOM     13  C   UNL     1      34.843 -21.983 -19.086  0.00  0.00    +0.037 C 
ATOM     14  C   UNL     1      34.065 -19.891 -20.760  0.00  0.00    +0.003 C 
ATOM     15  C   UNL     1      35.805 -21.263 -19.795  0.00  0.00    +0.003 C 
ATOM     16  C   UNL     1      35.416 -20.217 -20.633  0.00  0.00    +0.000 C 
ENDBRANCH  10  11
ENDBRANCH   9  10
ENDBRANCH   1   9
TORSDOF 6
ENDMDL
MODEL 2
REMARK VINA RESULT:      -7.6      6.144      8.204
REMARK  Name = 46937114
REMARK  6 active torsions:
REMARK  status: ('A' for Active; 'I' for Inactive)
REMARK    1  A    between atoms: C_1  and  C_2
REMARK    2  A    between atoms: C_1  and  O_4
REMARK    3  A    between atoms: C_1  and  C_9
REMARK    4  A    between atoms: O_4  and  P_6
REMARK    5  A    between atoms: C_9  and  O_10
REMARK    6  A    between atoms: O_10  and  C_11
REMARK                            x       y       z     vdW  Elec       q    Type
REMARK                         _______ _______ _______ _____ _____    ______ ____
ROOT
ATOM      1  C   UNL     1      35.255 -17.173 -23.046  0.00  0.00    +0.166 C 
ENDROOT
BRANCH   1   2
ATOM      2  C   UNL     1      34.930 -17.042 -24.535  0.00  0.00    +0.034 C 
ATOM      3  C   UNL     1      34.334 -18.320 -25.112  0.00  0.00    +0.003 C 
ENDBRANCH   1   2
BRANCH   1   4
ATOM      4  O   UNL     1      34.073 -16.912 -22.292  0.00  0.00    -0.302 OA
BRANCH   4   6
ATOM      5 CL   UNL     1      34.409 -14.130 -22.575  0.00  0.00    -0.026 Cl
ATOM      6  P   UNL     1      34.052 -15.638 -21.304  0.00  0.00    +0.302 P 
ATOM      7  O   UNL     1      35.042 -15.669 -20.178  0.00  0.00    -0.273 OA
ATOM      8  C   UNL     1      32.353 -15.448 -20.810  0.00  0.00    +0.114 C 
ENDBRANCH   4   6
ENDBRANCH   1   4
BRANCH   1   9
ATOM      9  C   UNL     1      35.748 -18.579 -22.712  0.00  0.00    +0.235 C 
BRANCH   9  10
ATOM     10  O   UNL     1      35.953 -18.698 -21.308  0.00  0.00    -0.473 OA
BRANCH  10  11
ATOM     11  C   UNL     1      35.328 -19.743 -20.682  0.00  0.00    +0.139 C 
ATOM     12  C   UNL     1      36.083 -20.732 -20.053  0.00  0.00    +0.037 C 
ATOM     13  C   UNL     1      33.935 -19.818 -20.673  0.00  0.00    +0.037 C 
ATOM     14  C   UNL     1      35.446 -21.797 -19.415  0.00  0.00    +0.003 C 
ATOM     15  C   UNL     1      33.297 -20.882 -20.036  0.00  0.00    +0.003 C 
ATOM     16  C   UNL     1      34.053 -21.872 -19.406  0.00  0.00    +0.000 C 
ENDBRANCH  10  11
ENDBRANCH   9  10
ENDBRANCH   1   9
TORSDOF 6
ENDMDL
MODEL 3
REMARK VINA RESULT:      -7.6      3.454      4.494
REMARK  Name = 46937114
REMARK  6 active torsions:
REMARK  status: ('A' for Active; 'I' for Inactive)
REMARK    1  A    between atoms: C_1  and  C_2
REMARK    2  A    between atoms: C_1  and  O_4
REMARK    3  A    between atoms: C_1  and  C_9
REMARK    4  A    between atoms: O_4  and  P_6
REMARK    5  A    between atoms: C_9  and  O_10
REMARK    6  A    between atoms: O_10  and  C_11
REMARK                            x       y       z     vdW  Elec       q    Type
REMARK                         _______ _______ _______ _____ _____    ______ ____
ROOT
ATOM      1  C   UNL     1      34.032 -23.175 -16.278  0.00  0.00    +0.166 C 
ENDROOT
BRANCH   1   2
ATOM      2  C   UNL     1      32.841 -23.509 -15.380  0.00  0.00    +0.034 C 
ATOM      3  C   UNL     1      31.508 -23.163 -16.033  0.00  0.00    +0.003 C 
ENDBRANCH   1   2
BRANCH   1   4
ATOM      4  O   UNL     1      35.066 -24.131 -16.046  0.00  0.00    -0.302 OA
BRANCH   4   6
ATOM      5 CL   UNL     1      37.322 -25.438 -14.981  0.00  0.00    -0.026 Cl
ATOM      6  P   UNL     1      36.304 -23.716 -15.101  0.00  0.00    +0.302 P 
ATOM      7  O   UNL     1      35.940 -23.183 -13.747  0.00  0.00    -0.273 OA
ATOM      8  C   UNL     1      37.315 -22.636 -16.090  0.00  0.00    +0.114 C 
ENDBRANCH   4   6
ENDBRANCH   1   4
BRANCH   1   9
ATOM      9  C   UNL     1      33.641 -23.226 -17.753  0.00  0.00    +0.235 C 
BRANCH   9  10
ATOM     10  O   UNL     1      34.746 -22.832 -18.560  0.00  0.00    -0.473 OA
BRANCH  10  11
ATOM     11  C   UNL     1      34.562 -21.740 -19.366  0.00  0.00    +0.139 C 
ATOM     12  C   UNL     1      35.662 -21.100 -19.935  0.00  0.00    +0.037 C 
ATOM     13  C   UNL     1      33.274 -21.268 -19.615  0.00  0.00    +0.037 C 
ATOM     14  C   UNL     1      35.474 -19.987 -20.755  0.00  0.00    +0.003 C 
ATOM     15  C   UNL     1      33.085 -20.155 -20.435  0.00  0.00    +0.003 C 
ATOM     16  C   UNL     1      34.185 -19.514 -21.006  0.00  0.00    +0.000 C 
ENDBRANCH  10  11
ENDBRANCH   9  10
ENDBRANCH   1   9
TORSDOF 6
ENDMDL
MODEL 4
REMARK VINA RESULT:      -7.6      3.821      4.936
REMARK  Name = 46937114
REMARK  6 active torsions:
REMARK  status: ('A' for Active; 'I' for Inactive)
REMARK    1  A    between atoms: C_1  and  C_2
REMARK    2  A    between atoms: C_1  and  O_4
REMARK    3  A    between atoms: C_1  and  C_9
REMARK    4  A    between atoms: O_4  and  P_6
REMARK    5  A    between atoms: C_9  and  O_10
REMARK    6  A    between atoms: O_10  and  C_11
REMARK                            x       y       z     vdW  Elec       q    Type
REMARK                         _______ _______ _______ _____ _____    ______ ____
ROOT
ATOM      1  C   UNL     1      35.183 -23.125 -15.962  0.00  0.00    +0.166 C 
ENDROOT
BRANCH   1   2
ATOM      2  C   UNL     1      33.709 -23.490 -16.147  0.00  0.00    +0.034 C 
ATOM      3  C   UNL     1      32.881 -23.202 -14.901  0.00  0.00    +0.003 C 
ENDBRANCH   1   2
BRANCH   1   4
ATOM      4  O   UNL     1      35.939 -24.325 -15.809  0.00  0.00    -0.302 OA
BRANCH   4   6
ATOM      5 CL   UNL     1      36.364 -23.342 -13.205  0.00  0.00    -0.026 Cl
ATOM      6  P   UNL     1      37.154 -24.343 -14.750  0.00  0.00    +0.302 P 
ATOM      7  O   UNL     1      38.438 -23.726 -15.221  0.00  0.00    -0.273 OA
ATOM      8  C   UNL     1      37.284 -26.032 -14.205  0.00  0.00    +0.114 C 
ENDBRANCH   4   6
ENDBRANCH   1   4
BRANCH   1   9
ATOM      9  C   UNL     1      35.716 -22.361 -17.172  0.00  0.00    +0.235 C 
BRANCH   9  10
ATOM     10  O   UNL     1      34.974 -22.717 -18.334  0.00  0.00    -0.473 OA
BRANCH  10  11
ATOM     11  C   UNL     1      34.698 -21.710 -19.220  0.00  0.00    +0.139 C 
ATOM     12  C   UNL     1      33.377 -21.342 -19.468  0.00  0.00    +0.037 C 
ATOM     13  C   UNL     1      35.740 -21.054 -19.875  0.00  0.00    +0.037 C 
ATOM     14  C   UNL     1      33.096 -20.316 -20.371  0.00  0.00    +0.003 C 
ATOM     15  C   UNL     1      35.461 -20.028 -20.779  0.00  0.00    +0.003 C 
ATOM     16  C   UNL     1      34.138 -19.659 -21.027  0.00  0.00    +0.000 C 
ENDBRANCH  10  11
ENDBRANCH   9  10
ENDBRANCH   1   9
TORSDOF 6
ENDMDL
MODEL 5
REMARK VINA RESULT:      -7.5      5.976      8.533
REMARK  Name = 46937114
REMARK  6 active torsions:
REMARK  status: ('A' for Active; 'I' for Inactive)
REMARK    1  A    between atoms: C_1  and  C_2
REMARK    2  A    between atoms: C_1  and  O_4
REMARK    3  A    between atoms: C_1  and  C_9
REMARK    4  A    between atoms: O_4  and  P_6
REMARK    5  A    between atoms: C_9  and  O_10
REMARK    6  A    between atoms: O_10  and  C_11
REMARK                            x       y       z     vdW  Elec       q    Type
REMARK                         _______ _______ _______ _____ _____    ______ ____
ROOT
ATOM      1  C   UNL     1      34.900 -16.589 -23.307  0.00  0.00    +0.166 C 
ENDROOT
BRANCH   1   2
ATOM      2  C   UNL     1      34.895 -16.916 -24.801  0.00  0.00    +0.034 C 
ATOM      3  C   UNL     1      34.365 -18.316 -25.086  0.00  0.00    +0.003 C 
ENDBRANCH   1   2
BRANCH   1   4
ATOM      4  O   UNL     1      33.585 -16.192 -22.918  0.00  0.00    -0.302 OA
BRANCH   4   6
ATOM      5 CL   UNL     1      34.674 -14.778 -20.739  0.00  0.00    -0.026 Cl
ATOM      6  P   UNL     1      33.380 -14.731 -22.269  0.00  0.00    +0.302 P 
ATOM      7  O   UNL     1      31.987 -14.409 -21.816  0.00  0.00    -0.273 OA
ATOM      8  C   UNL     1      34.075 -13.588 -23.442  0.00  0.00    +0.114 C 
ENDBRANCH   4   6
ENDBRANCH   1   4
BRANCH   1   9
ATOM      9  C   UNL     1      35.309 -17.805 -22.479  0.00  0.00    +0.235 C 
BRANCH   9  10
ATOM     10  O   UNL     1      34.205 -18.250 -21.696  0.00  0.00    -0.473 OA
BRANCH  10  11
ATOM     11  C   UNL     1      34.391 -19.394 -20.966  0.00  0.00    +0.139 C 
ATOM     12  C   UNL     1      35.679 -19.871 -20.733  0.00  0.00    +0.037 C 
ATOM     13  C   UNL     1      33.289 -20.081 -20.457  0.00  0.00    +0.037 C 
ATOM     14  C   UNL     1      35.868 -21.036 -19.990  0.00  0.00    +0.003 C 
ATOM     15  C   UNL     1      33.476 -21.246 -19.713  0.00  0.00    +0.003 C 
ATOM     16  C   UNL     1      34.766 -21.724 -19.479  0.00  0.00    +0.000 C 
ENDBRANCH  10  11
ENDBRANCH   9  10
ENDBRANCH   1   9
TORSDOF 6
ENDMDL
MODEL 6
REMARK VINA RESULT:      -7.3      3.646      4.367
REMARK  Name = 46937114
REMARK  6 active torsions:
REMARK  status: ('A' for Active; 'I' for Inactive)
REMARK    1  A    between atoms: C_1  and  C_2
REMARK    2  A    between atoms: C_1  and  O_4
REMARK    3  A    between atoms: C_1  and  C_9
REMARK    4  A    between atoms: O_4  and  P_6
REMARK    5  A    between atoms: C_9  and  O_10
REMARK    6  A    between atoms: O_10  and  C_11
REMARK                            x       y       z     vdW  Elec       q    Type
REMARK                         _______ _______ _______ _____ _____    ______ ____
ROOT
ATOM      1  C   UNL     1      35.352 -23.039 -16.257  0.00  0.00    +0.166 C 
ENDROOT
BRANCH   1   2
ATOM      2  C   UNL     1      36.503 -22.045 -16.415  0.00  0.00    +0.034 C 
ATOM      3  C   UNL     1      37.859 -22.680 -16.129  0.00  0.00    +0.003 C 
ENDBRANCH   1   2
BRANCH   1   4
ATOM      4  O   UNL     1      34.750 -22.847 -14.977  0.00  0.00    -0.302 OA
BRANCH   4   6
ATOM      5 CL   UNL     1      35.691 -25.502 -14.936  0.00  0.00    -0.026 Cl
ATOM      6  P   UNL     1      34.936 -23.992 -13.857  0.00  0.00    +0.302 P 
ATOM      7  O   UNL     1      33.691 -24.394 -13.123  0.00  0.00    -0.273 OA
ATOM      8  C   UNL     1      36.273 -23.433 -12.824  0.00  0.00    +0.114 C 
ENDBRANCH   4   6
ENDBRANCH   1   4
BRANCH   1   9
ATOM      9  C   UNL     1      34.290 -22.827 -17.333  0.00  0.00    +0.235 C 
BRANCH   9  10
ATOM     10  O   UNL     1      34.907 -22.774 -18.616  0.00  0.00    -0.473 OA
BRANCH  10  11
ATOM     11  C   UNL     1      34.607 -21.691 -19.398  0.00  0.00    +0.139 C 
ATOM     12  C   UNL     1      35.631 -20.960 -20.000  0.00  0.00    +0.037 C 
ATOM     13  C   UNL     1      33.277 -21.318 -19.593  0.00  0.00    +0.037 C 
ATOM     14  C   UNL     1      35.325 -19.857 -20.797  0.00  0.00    +0.003 C 
ATOM     15  C   UNL     1      32.971 -20.215 -20.390  0.00  0.00    +0.003 C 
ATOM     16  C   UNL     1      33.995 -19.484 -20.992  0.00  0.00    +0.000 C 
ENDBRANCH  10  11
ENDBRANCH   9  10
ENDBRANCH   1   9
TORSDOF 6
ENDMDL
MODEL 7
REMARK VINA RESULT:      -7.3      7.197      9.266
REMARK  Name = 46937114
REMARK  6 active torsions:
REMARK  status: ('A' for Active; 'I' for Inactive)
REMARK    1  A    between atoms: C_1  and  C_2
REMARK    2  A    between atoms: C_1  and  O_4
REMARK    3  A    between atoms: C_1  and  C_9
REMARK    4  A    between atoms: O_4  and  P_6
REMARK    5  A    between atoms: C_9  and  O_10
REMARK    6  A    between atoms: O_10  and  C_11
REMARK                            x       y       z     vdW  Elec       q    Type
REMARK                         _______ _______ _______ _____ _____    ______ ____
ROOT
ATOM      1  C   UNL     1      34.148 -15.466 -22.381  0.00  0.00    +0.166 C 
ENDROOT
BRANCH   1   2
ATOM      2  C   UNL     1      34.176 -14.918 -20.954  0.00  0.00    +0.034 C 
ATOM      3  C   UNL     1      32.842 -15.094 -20.240  0.00  0.00    +0.003 C 
ENDBRANCH   1   2
BRANCH   1   4
ATOM      4  O   UNL     1      34.480 -14.413 -23.285  0.00  0.00    -0.302 OA
BRANCH   4   6
ATOM      5 CL   UNL     1      34.171 -11.903 -24.525  0.00  0.00    -0.026 Cl
ATOM      6  P   UNL     1      33.285 -13.633 -24.035  0.00  0.00    +0.302 P 
ATOM      7  O   UNL     1      32.040 -13.416 -23.228  0.00  0.00    -0.273 OA
ATOM      8  C   UNL     1      33.047 -14.496 -25.573  0.00  0.00    +0.114 C 
ENDBRANCH   4   6
ENDBRANCH   1   4
BRANCH   1   9
ATOM      9  C   UNL     1      35.157 -16.598 -22.556  0.00  0.00    +0.235 C 
BRANCH   9  10
ATOM     10  O   UNL     1      34.472 -17.832 -22.743  0.00  0.00    -0.473 OA
BRANCH  10  11
ATOM     11  C   UNL     1      34.686 -18.804 -21.803  0.00  0.00    +0.139 C 
ATOM     12  C   UNL     1      35.981 -19.078 -21.366  0.00  0.00    +0.037 C 
ATOM     13  C   UNL     1      33.609 -19.521 -21.283  0.00  0.00    +0.037 C 
ATOM     14  C   UNL     1      36.200 -20.069 -20.409  0.00  0.00    +0.003 C 
ATOM     15  C   UNL     1      33.826 -20.512 -20.326  0.00  0.00    +0.003 C 
ATOM     16  C   UNL     1      35.123 -20.786 -19.888  0.00  0.00    +0.000 C 
ENDBRANCH  10  11
ENDBRANCH   9  10
ENDBRANCH   1   9
TORSDOF 6
ENDMDL
MODEL 8
REMARK VINA RESULT:      -7.2      6.942      9.323
REMARK  Name = 46937114
REMARK  6 active torsions:
REMARK  status: ('A' for Active; 'I' for Inactive)
REMARK    1  A    between atoms: C_1  and  C_2
REMARK    2  A    between atoms: C_1  and  O_4
REMARK    3  A    between atoms: C_1  and  C_9
REMARK    4  A    between atoms: O_4  and  P_6
REMARK    5  A    between atoms: C_9  and  O_10
REMARK    6  A    between atoms: O_10  and  C_11
REMARK                            x       y       z     vdW  Elec       q    Type
REMARK                         _______ _______ _______ _____ _____    ______ ____
ROOT
ATOM      1  C   UNL     1      34.783 -16.215 -21.607  0.00  0.00    +0.166 C 
ENDROOT
BRANCH   1   2
ATOM      2  C   UNL     1      34.282 -15.058 -20.743  0.00  0.00    +0.034 C 
ATOM      3  C   UNL     1      32.807 -15.197 -20.387  0.00  0.00    +0.003 C 
ENDBRANCH   1   2
BRANCH   1   4
ATOM      4  O   UNL     1      33.924 -17.339 -21.415  0.00  0.00    -0.302 OA
BRANCH   4   6
ATOM      5 CL   UNL     1      33.071 -19.889 -20.580  0.00  0.00    -0.026 Cl
ATOM      6  P   UNL     1      34.581 -18.808 -21.331  0.00  0.00    +0.302 P 
ATOM      7  O   UNL     1      35.822 -18.921 -20.495  0.00  0.00    -0.273 OA
ATOM      8  C   UNL     1      34.756 -19.347 -23.018  0.00  0.00    +0.114 C 
ENDBRANCH   4   6
ENDBRANCH   1   4
BRANCH   1   9
ATOM      9  C   UNL     1      34.775 -15.841 -23.087  0.00  0.00    +0.235 C 
BRANCH   9  10
ATOM     10  O   UNL     1      33.508 -15.294 -23.441  0.00  0.00    -0.473 OA
BRANCH  10  11
ATOM     11  C   UNL     1      33.508 -14.305 -24.388  0.00  0.00    +0.139 C 
ATOM     12  C   UNL     1      33.215 -14.612 -25.716  0.00  0.00    +0.037 C 
ATOM     13  C   UNL     1      33.801 -12.991 -24.024  0.00  0.00    +0.037 C 
ATOM     14  C   UNL     1      33.215 -13.605 -26.681  0.00  0.00    +0.003 C 
ATOM     15  C   UNL     1      33.801 -11.983 -24.988  0.00  0.00    +0.003 C 
ATOM     16  C   UNL     1      33.508 -12.290 -26.318  0.00  0.00    +0.000 C 
ENDBRANCH  10  11
ENDBRANCH   9  10
ENDBRANCH   1   9
TORSDOF 6
ENDMDL
MODEL 9
REMARK VINA RESULT:      -7.1      2.047      2.309
REMARK  Name = 46937114
REMARK  6 active torsions:
REMARK  status: ('A' for Active; 'I' for Inactive)
REMARK    1  A    between atoms: C_1  and  C_2
REMARK    2  A    between atoms: C_1  and  O_4
REMARK    3  A    between atoms: C_1  and  C_9
REMARK    4  A    between atoms: O_4  and  P_6
REMARK    5  A    between atoms: C_9  and  O_10
REMARK    6  A    between atoms: O_10  and  C_11
REMARK                            x       y       z     vdW  Elec       q    Type
REMARK                         _______ _______ _______ _____ _____    ______ ____
ROOT
ATOM      1  C   UNL     1      33.003 -23.580 -15.795  0.00  0.00    +0.166 C 
ENDROOT
BRANCH   1   2
ATOM      2  C   UNL     1      34.443 -23.370 -15.326  0.00  0.00    +0.034 C 
ATOM      3  C   UNL     1      35.092 -24.663 -14.851  0.00  0.00    +0.003 C 
ENDBRANCH   1   2
BRANCH   1   4
ATOM      4  O   UNL     1      32.133 -22.794 -14.981  0.00  0.00    -0.302 OA
BRANCH   4   6
ATOM      5 CL   UNL     1      29.332 -22.515 -14.916  0.00  0.00    -0.026 Cl
ATOM      6  P   UNL     1      30.915 -23.526 -14.219  0.00  0.00    +0.302 P 
ATOM      7  O   UNL     1      30.978 -23.507 -12.721  0.00  0.00    -0.273 OA
ATOM      8  C   UNL     1      30.803 -25.144 -14.950  0.00  0.00    +0.114 C 
ENDBRANCH   4   6
ENDBRANCH   1   4
BRANCH   1   9
ATOM      9  C   UNL     1      32.829 -23.154 -17.250  0.00  0.00    +0.235 C 
BRANCH   9  10
ATOM     10  O   UNL     1      34.089 -23.176 -17.914  0.00  0.00    -0.473 OA
BRANCH  10  11
ATOM     11  C   UNL     1      34.332 -22.169 -18.809  0.00  0.00    +0.139 C 
ATOM     12  C   UNL     1      33.268 -21.481 -19.390  0.00  0.00    +0.037 C 
ATOM     13  C   UNL     1      35.644 -21.831 -19.139  0.00  0.00    +0.037 C 
ATOM     14  C   UNL     1      33.515 -20.455 -20.302  0.00  0.00    +0.003 C 
ATOM     15  C   UNL     1      35.893 -20.805 -20.051  0.00  0.00    +0.003 C 
ATOM     16  C   UNL     1      34.828 -20.117 -20.633  0.00  0.00    +0.000 C 
ENDBRANCH  10  11
ENDBRANCH   9  10
ENDBRANCH   1   9
TORSDOF 6
ENDMDL
