MODEL 1
REMARK VINA RESULT:      -8.7      0.000      0.000
REMARK  Name = 4905
REMARK  4 active torsions:
REMARK  status: ('A' for Active; 'I' for Inactive)
REMARK    1  A    between atoms: N_1  and  C_20
REMARK    2  A    between atoms: N_1  and  C_22
REMARK    3  A    between atoms: C_7  and  C_8
REMARK    4  A    between atoms: C_7  and  C_14
REMARK                            x       y       z     vdW  Elec       q    Type
REMARK                         _______ _______ _______ _____ _____    ______ ____
ROOT
ATOM      1  N   UNL     1      36.846 -25.029 -13.422  0.00  0.00    +0.394 N 
ATOM      2  C   UNL     1      35.371 -24.580 -13.623  0.00  0.00    -0.035 C 
ATOM      3  C   UNL     1      37.629 -24.040 -14.298  0.00  0.00    -0.068 C 
ATOM      4  C   UNL     1      36.741 -23.782 -15.509  0.00  0.00    -0.002 C 
ATOM      5  C   UNL     1      35.345 -23.921 -14.983  0.00  0.00    -0.065 C 
ATOM      6  C   UNL     1      34.901 -23.612 -12.535  0.00  0.00    -0.018 C 
ATOM      7  C   UNL     1      34.247 -23.528 -15.640  0.00  0.00    -0.010 C 
ENDROOT
BRANCH   7   8
ATOM      8  C   UNL     1      32.921 -23.730 -14.993  0.00  0.00    -0.001 C 
ATOM      9  C   UNL     1      32.513 -25.014 -14.705  0.00  0.00    -0.000 C 
ATOM     10  C   UNL     1      32.149 -22.626 -14.706  0.00  0.00    -0.000 C 
ATOM     11  C   UNL     1      31.271 -25.203 -14.099  0.00  0.00    -0.000 C 
ATOM     12  C   UNL     1      30.907 -22.816 -14.102  0.00  0.00    -0.000 C 
ATOM     13  C   UNL     1      30.468 -24.103 -13.797  0.00  0.00    -0.000 C 
ENDBRANCH   7   8
BRANCH   7  14
ATOM     14  C   UNL     1      34.410 -22.908 -16.985  0.00  0.00    -0.001 C 
ATOM     15  C   UNL     1      33.349 -22.944 -17.862  0.00  0.00    -0.000 C 
ATOM     16  C   UNL     1      35.615 -22.321 -17.302  0.00  0.00    -0.000 C 
ATOM     17  C   UNL     1      33.502 -22.365 -19.122  0.00  0.00    -0.000 C 
ATOM     18  C   UNL     1      35.768 -21.741 -18.562  0.00  0.00    -0.000 C 
ATOM     19  C   UNL     1      34.711 -21.763 -19.472  0.00  0.00    -0.000 C 
ENDBRANCH   7  14
BRANCH   1  20
ATOM     20  C   UNL     1      37.025 -26.460 -13.947  0.00  0.00    -0.073 C 
ATOM     21  C   UNL     1      38.433 -26.624 -14.474  0.00  0.00    -0.024 C 
ENDBRANCH   1  20
BRANCH   1  22
ATOM     22  C   UNL     1      37.355 -25.002 -11.990  0.00  0.00    -0.073 C 
ATOM     23  C   UNL     1      38.420 -23.935 -11.860  0.00  0.00    -0.024 C 
ENDBRANCH   1  22
TORSDOF 4
ENDMDL
MODEL 2
REMARK VINA RESULT:      -8.3      0.531      1.494
REMARK  Name = 4905
REMARK  4 active torsions:
REMARK  status: ('A' for Active; 'I' for Inactive)
REMARK    1  A    between atoms: N_1  and  C_20
REMARK    2  A    between atoms: N_1  and  C_22
REMARK    3  A    between atoms: C_7  and  C_8
REMARK    4  A    between atoms: C_7  and  C_14
REMARK                            x       y       z     vdW  Elec       q    Type
REMARK                         _______ _______ _______ _____ _____    ______ ____
ROOT
ATOM      1  N   UNL     1      36.442 -25.130 -13.690  0.00  0.00    +0.394 N 
ATOM      2  C   UNL     1      35.000 -24.614 -13.962  0.00  0.00    -0.035 C 
ATOM      3  C   UNL     1      37.316 -24.124 -14.454  0.00  0.00    -0.068 C 
ATOM      4  C   UNL     1      36.521 -23.764 -15.703  0.00  0.00    -0.002 C 
ATOM      5  C   UNL     1      35.088 -23.880 -15.279  0.00  0.00    -0.065 C 
ATOM      6  C   UNL     1      34.491 -23.692 -12.852  0.00  0.00    -0.018 C 
ATOM      7  C   UNL     1      34.052 -23.408 -15.982  0.00  0.00    -0.010 C 
ENDROOT
BRANCH   7   8
ATOM      8  C   UNL     1      32.679 -23.596 -15.436  0.00  0.00    -0.001 C 
ATOM      9  C   UNL     1      32.076 -22.545 -14.781  0.00  0.00    -0.000 C 
ATOM     10  C   UNL     1      32.061 -24.817 -15.604  0.00  0.00    -0.000 C 
ATOM     11  C   UNL     1      30.790 -22.722 -14.270  0.00  0.00    -0.000 C 
ATOM     12  C   UNL     1      30.776 -24.993 -15.092  0.00  0.00    -0.000 C 
ATOM     13  C   UNL     1      30.140 -23.946 -14.426  0.00  0.00    -0.000 C 
ENDBRANCH   7   8
BRANCH   7  14
ATOM     14  C   UNL     1      34.326 -22.721 -17.275  0.00  0.00    -0.001 C 
ATOM     15  C   UNL     1      35.597 -22.248 -17.515  0.00  0.00    -0.000 C 
ATOM     16  C   UNL     1      33.299 -22.583 -18.183  0.00  0.00    -0.000 C 
ATOM     17  C   UNL     1      35.854 -21.603 -18.726  0.00  0.00    -0.000 C 
ATOM     18  C   UNL     1      33.556 -21.939 -19.394  0.00  0.00    -0.000 C 
ATOM     19  C   UNL     1      34.834 -21.449 -19.665  0.00  0.00    -0.000 C 
ENDBRANCH   7  14
BRANCH   1  20
ATOM     20  C   UNL     1      36.607 -26.535 -14.286  0.00  0.00    -0.073 C 
ATOM     21  C   UNL     1      38.074 -26.798 -14.542  0.00  0.00    -0.024 C 
ENDBRANCH   1  20
BRANCH   1  22
ATOM     22  C   UNL     1      36.854 -25.202 -12.229  0.00  0.00    -0.073 C 
ATOM     23  C   UNL     1      37.966 -24.209 -11.976  0.00  0.00    -0.024 C 
ENDBRANCH   1  22
TORSDOF 4
ENDMDL
MODEL 3
REMARK VINA RESULT:      -7.7      1.663      5.225
REMARK  Name = 4905
REMARK  4 active torsions:
REMARK  status: ('A' for Active; 'I' for Inactive)
REMARK    1  A    between atoms: N_1  and  C_20
REMARK    2  A    between atoms: N_1  and  C_22
REMARK    3  A    between atoms: C_7  and  C_8
REMARK    4  A    between atoms: C_7  and  C_14
REMARK                            x       y       z     vdW  Elec       q    Type
REMARK                         _______ _______ _______ _____ _____    ______ ____
ROOT
ATOM      1  N   UNL     1      31.403 -23.849 -14.737  0.00  0.00    +0.394 N 
ATOM      2  C   UNL     1      32.942 -24.024 -14.596  0.00  0.00    -0.035 C 
ATOM      3  C   UNL     1      31.201 -23.803 -16.259  0.00  0.00    -0.068 C 
ATOM      4  C   UNL     1      32.420 -23.070 -16.806  0.00  0.00    -0.002 C 
ATOM      5  C   UNL     1      33.522 -23.415 -15.850  0.00  0.00    -0.065 C 
ATOM      6  C   UNL     1      33.354 -25.491 -14.456  0.00  0.00    -0.018 C 
ATOM      7  C   UNL     1      34.821 -23.197 -16.086  0.00  0.00    -0.010 C 
ENDROOT
BRANCH   7   8
ATOM      8  C   UNL     1      35.808 -23.592 -15.042  0.00  0.00    -0.001 C 
ATOM      9  C   UNL     1      35.907 -22.829 -13.900  0.00  0.00    -0.000 C 
ATOM     10  C   UNL     1      36.588 -24.707 -15.258  0.00  0.00    -0.000 C 
ATOM     11  C   UNL     1      36.831 -23.199 -12.923  0.00  0.00    -0.000 C 
ATOM     12  C   UNL     1      37.513 -25.077 -14.281  0.00  0.00    -0.000 C 
ATOM     13  C   UNL     1      37.634 -24.324 -13.114  0.00  0.00    -0.000 C 
ENDBRANCH   7   8
BRANCH   7  14
ATOM     14  C   UNL     1      35.212 -22.569 -17.379  0.00  0.00    -0.001 C 
ATOM     15  C   UNL     1      36.420 -21.912 -17.456  0.00  0.00    -0.000 C 
ATOM     16  C   UNL     1      34.352 -22.669 -18.450  0.00  0.00    -0.000 C 
ATOM     17  C   UNL     1      36.786 -21.323 -18.667  0.00  0.00    -0.000 C 
ATOM     18  C   UNL     1      34.718 -22.081 -19.661  0.00  0.00    -0.000 C 
ATOM     19  C   UNL     1      35.936 -21.408 -19.769  0.00  0.00    -0.000 C 
ENDBRANCH   7  14
BRANCH   1  20
ATOM     20  C   UNL     1      30.975 -22.519 -14.103  0.00  0.00    -0.073 C 
ATOM     21  C   UNL     1      29.615 -22.127 -14.638  0.00  0.00    -0.024 C 
ENDBRANCH   1  20
BRANCH   1  22
ATOM     22  C   UNL     1      30.554 -24.945 -14.114  0.00  0.00    -0.073 C 
ATOM     23  C   UNL     1      29.768 -25.645 -15.200  0.00  0.00    -0.024 C 
ENDBRANCH   1  22
TORSDOF 4
ENDMDL
MODEL 4
REMARK VINA RESULT:      -7.4     12.779     16.871
REMARK  Name = 4905
REMARK  4 active torsions:
REMARK  status: ('A' for Active; 'I' for Inactive)
REMARK    1  A    between atoms: N_1  and  C_20
REMARK    2  A    between atoms: N_1  and  C_22
REMARK    3  A    between atoms: C_7  and  C_8
REMARK    4  A    between atoms: C_7  and  C_14
REMARK                            x       y       z     vdW  Elec       q    Type
REMARK                         _______ _______ _______ _____ _____    ______ ____
ROOT
ATOM      1  N   UNL     1      32.067  -8.024 -22.783  0.00  0.00    +0.394 N 
ATOM      2  C   UNL     1      32.989  -8.899 -23.679  0.00  0.00    -0.035 C 
ATOM      3  C   UNL     1      32.105  -8.757 -21.434  0.00  0.00    -0.068 C 
ATOM      4  C   UNL     1      32.174 -10.239 -21.781  0.00  0.00    -0.002 C 
ATOM      5  C   UNL     1      32.920 -10.283 -23.080  0.00  0.00    -0.065 C 
ATOM      6  C   UNL     1      34.431  -8.386 -23.711  0.00  0.00    -0.018 C 
ATOM      7  C   UNL     1      33.431 -11.396 -23.620  0.00  0.00    -0.010 C 
ENDROOT
BRANCH   7   8
ATOM      8  C   UNL     1      34.149 -11.289 -24.920  0.00  0.00    -0.001 C 
ATOM      9  C   UNL     1      35.243 -10.456 -25.007  0.00  0.00    -0.000 C 
ATOM     10  C   UNL     1      33.692 -12.027 -25.991  0.00  0.00    -0.000 C 
ATOM     11  C   UNL     1      35.914 -10.356 -26.225  0.00  0.00    -0.000 C 
ATOM     12  C   UNL     1      34.364 -11.925 -27.209  0.00  0.00    -0.000 C 
ATOM     13  C   UNL     1      35.475 -11.091 -27.327  0.00  0.00    -0.000 C 
ENDBRANCH   7   8
BRANCH   7  14
ATOM     14  C   UNL     1      33.253 -12.684 -22.893  0.00  0.00    -0.001 C 
ATOM     15  C   UNL     1      34.166 -13.693 -23.102  0.00  0.00    -0.000 C 
ATOM     16  C   UNL     1      32.181 -12.819 -22.037  0.00  0.00    -0.000 C 
ATOM     17  C   UNL     1      33.999 -14.899 -22.421  0.00  0.00    -0.000 C 
ATOM     18  C   UNL     1      32.014 -14.025 -21.356  0.00  0.00    -0.000 C 
ATOM     19  C   UNL     1      32.924 -15.066 -21.548  0.00  0.00    -0.000 C 
ENDBRANCH   7  14
BRANCH   1  20
ATOM     20  C   UNL     1      30.641  -8.030 -23.351  0.00  0.00    -0.073 C 
ATOM     21  C   UNL     1      30.575  -7.101 -24.542  0.00  0.00    -0.024 C 
ENDBRANCH   1  20
BRANCH   1  22
ATOM     22  C   UNL     1      32.487  -6.573 -22.621  0.00  0.00    -0.073 C 
ATOM     23  C   UNL     1      32.011  -6.064 -21.278  0.00  0.00    -0.024 C 
ENDBRANCH   1  22
TORSDOF 4
ENDMDL
MODEL 5
REMARK VINA RESULT:      -7.4     12.773     16.844
REMARK  Name = 4905
REMARK  4 active torsions:
REMARK  status: ('A' for Active; 'I' for Inactive)
REMARK    1  A    between atoms: N_1  and  C_20
REMARK    2  A    between atoms: N_1  and  C_22
REMARK    3  A    between atoms: C_7  and  C_8
REMARK    4  A    between atoms: C_7  and  C_14
REMARK                            x       y       z     vdW  Elec       q    Type
REMARK                         _______ _______ _______ _____ _____    ______ ____
ROOT
ATOM      1  N   UNL     1      32.084  -8.014 -22.765  0.00  0.00    +0.394 N 
ATOM      2  C   UNL     1      32.996  -8.897 -23.663  0.00  0.00    -0.035 C 
ATOM      3  C   UNL     1      32.124  -8.742 -21.413  0.00  0.00    -0.068 C 
ATOM      4  C   UNL     1      32.182 -10.226 -21.756  0.00  0.00    -0.002 C 
ATOM      5  C   UNL     1      32.921 -10.279 -23.059  0.00  0.00    -0.065 C 
ATOM      6  C   UNL     1      34.440  -8.393 -23.705  0.00  0.00    -0.018 C 
ATOM      7  C   UNL     1      33.421 -11.397 -23.598  0.00  0.00    -0.010 C 
ENDROOT
BRANCH   7   8
ATOM      8  C   UNL     1      34.133 -11.299 -24.903  0.00  0.00    -0.001 C 
ATOM      9  C   UNL     1      33.663 -12.031 -25.971  0.00  0.00    -0.000 C 
ATOM     10  C   UNL     1      35.238 -10.481 -24.994  0.00  0.00    -0.000 C 
ATOM     11  C   UNL     1      34.331 -11.938 -27.192  0.00  0.00    -0.000 C 
ATOM     12  C   UNL     1      35.905 -10.390 -26.215  0.00  0.00    -0.000 C 
ATOM     13  C   UNL     1      35.452 -11.117 -27.314  0.00  0.00    -0.000 C 
ENDBRANCH   7   8
BRANCH   7  14
ATOM     14  C   UNL     1      33.239 -12.681 -22.865  0.00  0.00    -0.001 C 
ATOM     15  C   UNL     1      34.148 -13.695 -23.072  0.00  0.00    -0.000 C 
ATOM     16  C   UNL     1      32.168 -12.808 -22.007  0.00  0.00    -0.000 C 
ATOM     17  C   UNL     1      33.977 -14.898 -22.386  0.00  0.00    -0.000 C 
ATOM     18  C   UNL     1      31.998 -14.011 -21.321  0.00  0.00    -0.000 C 
ATOM     19  C   UNL     1      32.902 -15.056 -21.511  0.00  0.00    -0.000 C 
ENDBRANCH   7  14
BRANCH   1  20
ATOM     20  C   UNL     1      30.655  -8.013 -23.325  0.00  0.00    -0.073 C 
ATOM     21  C   UNL     1      30.587  -7.081 -24.515  0.00  0.00    -0.024 C 
ENDBRANCH   1  20
BRANCH   1  22
ATOM     22  C   UNL     1      32.514  -6.565 -22.610  0.00  0.00    -0.073 C 
ATOM     23  C   UNL     1      32.057  -6.051 -21.263  0.00  0.00    -0.024 C 
ENDBRANCH   1  22
TORSDOF 4
ENDMDL
MODEL 6
REMARK VINA RESULT:      -7.2     12.610     15.924
REMARK  Name = 4905
REMARK  4 active torsions:
REMARK  status: ('A' for Active; 'I' for Inactive)
REMARK    1  A    between atoms: N_1  and  C_20
REMARK    2  A    between atoms: N_1  and  C_22
REMARK    3  A    between atoms: C_7  and  C_8
REMARK    4  A    between atoms: C_7  and  C_14
REMARK                            x       y       z     vdW  Elec       q    Type
REMARK                         _______ _______ _______ _____ _____    ______ ____
ROOT
ATOM      1  N   UNL     1      33.539 -13.238 -24.465  0.00  0.00    +0.394 N 
ATOM      2  C   UNL     1      33.039 -12.420 -23.241  0.00  0.00    -0.035 C 
ATOM      3  C   UNL     1      34.448 -12.240 -25.198  0.00  0.00    -0.068 C 
ATOM      4  C   UNL     1      33.787 -10.880 -25.012  0.00  0.00    -0.002 C 
ATOM      5  C   UNL     1      33.102 -10.977 -23.683  0.00  0.00    -0.065 C 
ATOM      6  C   UNL     1      33.895 -12.651 -21.994  0.00  0.00    -0.018 C 
ATOM      7  C   UNL     1      32.613  -9.930 -23.007  0.00  0.00    -0.010 C 
ENDROOT
BRANCH   7   8
ATOM      8  C   UNL     1      31.956 -10.177 -21.694  0.00  0.00    -0.001 C 
ATOM      9  C   UNL     1      30.909 -11.070 -21.634  0.00  0.00    -0.000 C 
ATOM     10  C   UNL     1      32.418  -9.501 -20.585  0.00  0.00    -0.000 C 
ATOM     11  C   UNL     1      30.293 -11.300 -20.404  0.00  0.00    -0.000 C 
ATOM     12  C   UNL     1      31.801  -9.731 -19.356  0.00  0.00    -0.000 C 
ATOM     13  C   UNL     1      30.740 -10.631 -19.264  0.00  0.00    -0.000 C 
ENDBRANCH   7   8
BRANCH   7  14
ATOM     14  C   UNL     1      32.752  -8.573 -23.605  0.00  0.00    -0.001 C 
ATOM     15  C   UNL     1      34.016  -8.062 -23.801  0.00  0.00    -0.000 C 
ATOM     16  C   UNL     1      31.611  -7.876 -23.941  0.00  0.00    -0.000 C 
ATOM     17  C   UNL     1      34.147  -6.791 -24.361  0.00  0.00    -0.000 C 
ATOM     18  C   UNL     1      31.741  -6.605 -24.500  0.00  0.00    -0.000 C 
ATOM     19  C   UNL     1      33.010  -6.062 -24.710  0.00  0.00    -0.000 C 
ENDBRANCH   7  14
BRANCH   1  20
ATOM     20  C   UNL     1      32.346 -13.619 -25.353  0.00  0.00    -0.073 C 
ATOM     21  C   UNL     1      32.857 -14.151 -26.673  0.00  0.00    -0.024 C 
ENDBRANCH   1  20
BRANCH   1  22
ATOM     22  C   UNL     1      34.293 -14.517 -24.141  0.00  0.00    -0.073 C 
ATOM     23  C   UNL     1      33.424 -15.403 -23.276  0.00  0.00    -0.024 C 
ENDBRANCH   1  22
TORSDOF 4
ENDMDL
MODEL 7
REMARK VINA RESULT:      -7.1      1.780      6.094
REMARK  Name = 4905
REMARK  4 active torsions:
REMARK  status: ('A' for Active; 'I' for Inactive)
REMARK    1  A    between atoms: N_1  and  C_20
REMARK    2  A    between atoms: N_1  and  C_22
REMARK    3  A    between atoms: C_7  and  C_8
REMARK    4  A    between atoms: C_7  and  C_14
REMARK                            x       y       z     vdW  Elec       q    Type
REMARK                         _______ _______ _______ _____ _____    ______ ____
ROOT
ATOM      1  N   UNL     1      30.723 -24.071 -14.781  0.00  0.00    +0.394 N 
ATOM      2  C   UNL     1      31.977 -23.520 -15.517  0.00  0.00    -0.035 C 
ATOM      3  C   UNL     1      31.281 -24.472 -13.407  0.00  0.00    -0.068 C 
ATOM      4  C   UNL     1      32.685 -24.999 -13.679  0.00  0.00    -0.002 C 
ATOM      5  C   UNL     1      33.149 -24.221 -14.872  0.00  0.00    -0.065 C 
ATOM      6  C   UNL     1      32.109 -22.001 -15.392  0.00  0.00    -0.018 C 
ATOM      7  C   UNL     1      34.418 -24.176 -15.297  0.00  0.00    -0.010 C 
ENDROOT
BRANCH   7   8
ATOM      8  C   UNL     1      34.735 -23.359 -16.501  0.00  0.00    -0.001 C 
ATOM      9  C   UNL     1      33.869 -23.393 -17.572  0.00  0.00    -0.000 C 
ATOM     10  C   UNL     1      35.885 -22.599 -16.502  0.00  0.00    -0.000 C 
ATOM     11  C   UNL     1      34.166 -22.629 -18.700  0.00  0.00    -0.000 C 
ATOM     12  C   UNL     1      36.182 -21.836 -17.631  0.00  0.00    -0.000 C 
ATOM     13  C   UNL     1      35.323 -21.849 -18.729  0.00  0.00    -0.000 C 
ENDBRANCH   7   8
BRANCH   7  14
ATOM     14  C   UNL     1      35.446 -24.946 -14.543  0.00  0.00    -0.001 C 
ATOM     15  C   UNL     1      36.041 -26.028 -15.152  0.00  0.00    -0.000 C 
ATOM     16  C   UNL     1      35.765 -24.548 -13.263  0.00  0.00    -0.000 C 
ATOM     17  C   UNL     1      37.004 -26.750 -14.446  0.00  0.00    -0.000 C 
ATOM     18  C   UNL     1      36.727 -25.269 -12.556  0.00  0.00    -0.000 C 
ATOM     19  C   UNL     1      37.347 -26.371 -13.148  0.00  0.00    -0.000 C 
ENDBRANCH   7  14
BRANCH   1  20
ATOM     20  C   UNL     1      30.193 -25.307 -15.520  0.00  0.00    -0.073 C 
ATOM     21  C   UNL     1      29.041 -25.898 -14.738  0.00  0.00    -0.024 C 
ENDBRANCH   1  20
BRANCH   1  22
ATOM     22  C   UNL     1      29.566 -23.097 -14.629  0.00  0.00    -0.073 C 
ATOM     23  C   UNL     1      29.016 -22.760 -15.997  0.00  0.00    -0.024 C 
ENDBRANCH   1  22
TORSDOF 4
ENDMDL
MODEL 8
REMARK VINA RESULT:      -7.0      8.600     12.000
REMARK  Name = 4905
REMARK  4 active torsions:
REMARK  status: ('A' for Active; 'I' for Inactive)
REMARK    1  A    between atoms: N_1  and  C_20
REMARK    2  A    between atoms: N_1  and  C_22
REMARK    3  A    between atoms: C_7  and  C_8
REMARK    4  A    between atoms: C_7  and  C_14
REMARK                            x       y       z     vdW  Elec       q    Type
REMARK                         _______ _______ _______ _____ _____    ______ ____
ROOT
ATOM      1  N   UNL     1      34.637 -17.645 -21.965  0.00  0.00    +0.394 N 
ATOM      2  C   UNL     1      34.058 -16.224 -21.707  0.00  0.00    -0.035 C 
ATOM      3  C   UNL     1      35.427 -17.461 -23.270  0.00  0.00    -0.068 C 
ATOM      4  C   UNL     1      34.622 -16.463 -24.093  0.00  0.00    -0.002 C 
ATOM      5  C   UNL     1      33.960 -15.587 -23.073  0.00  0.00    -0.065 C 
ATOM      6  C   UNL     1      34.942 -15.393 -20.775  0.00  0.00    -0.018 C 
ATOM      7  C   UNL     1      33.364 -14.422 -23.352  0.00  0.00    -0.010 C 
ENDROOT
BRANCH   7   8
ATOM      8  C   UNL     1      32.746 -13.655 -22.234  0.00  0.00    -0.001 C 
ATOM      9  C   UNL     1      32.718 -14.221 -20.978  0.00  0.00    -0.000 C 
ATOM     10  C   UNL     1      32.222 -12.408 -22.497  0.00  0.00    -0.000 C 
ATOM     11  C   UNL     1      32.138 -13.503 -19.932  0.00  0.00    -0.000 C 
ATOM     12  C   UNL     1      31.642 -11.691 -21.451  0.00  0.00    -0.000 C 
ATOM     13  C   UNL     1      31.601 -12.237 -20.168  0.00  0.00    -0.000 C 
ENDBRANCH   7   8
BRANCH   7  14
ATOM     14  C   UNL     1      33.350 -13.953 -24.765  0.00  0.00    -0.001 C 
ATOM     15  C   UNL     1      32.856 -14.795 -25.737  0.00  0.00    -0.000 C 
ATOM     16  C   UNL     1      33.830 -12.693 -25.051  0.00  0.00    -0.000 C 
ATOM     17  C   UNL     1      32.843 -14.356 -27.061  0.00  0.00    -0.000 C 
ATOM     18  C   UNL     1      33.817 -12.254 -26.375  0.00  0.00    -0.000 C 
ATOM     19  C   UNL     1      33.323 -13.086 -27.380  0.00  0.00    -0.000 C 
ENDBRANCH   7  14
BRANCH   1  20
ATOM     20  C   UNL     1      33.487 -18.639 -22.177  0.00  0.00    -0.073 C 
ATOM     21  C   UNL     1      33.314 -19.473 -20.927  0.00  0.00    -0.024 C 
ENDBRANCH   1  20
BRANCH   1  22
ATOM     22  C   UNL     1      35.528 -18.204 -20.869  0.00  0.00    -0.073 C 
ATOM     23  C   UNL     1      36.752 -18.834 -21.495  0.00  0.00    -0.024 C 
ENDBRANCH   1  22
TORSDOF 4
ENDMDL
MODEL 9
REMARK VINA RESULT:      -6.7     11.638     15.225
REMARK  Name = 4905
REMARK  4 active torsions:
REMARK  status: ('A' for Active; 'I' for Inactive)
REMARK    1  A    between atoms: N_1  and  C_20
REMARK    2  A    between atoms: N_1  and  C_22
REMARK    3  A    between atoms: C_7  and  C_8
REMARK    4  A    between atoms: C_7  and  C_14
REMARK                            x       y       z     vdW  Elec       q    Type
REMARK                         _______ _______ _______ _____ _____    ______ ____
ROOT
ATOM      1  N   UNL     1      32.586  -9.032 -22.239  0.00  0.00    +0.394 N 
ATOM      2  C   UNL     1      32.659 -10.562 -21.971  0.00  0.00    -0.035 C 
ATOM      3  C   UNL     1      32.061  -8.961 -23.681  0.00  0.00    -0.068 C 
ATOM      4  C   UNL     1      32.691 -10.149 -24.399  0.00  0.00    -0.002 C 
ATOM      5  C   UNL     1      32.844 -11.190 -23.332  0.00  0.00    -0.065 C 
ATOM      6  C   UNL     1      31.399 -11.097 -21.286  0.00  0.00    -0.018 C 
ATOM      7  C   UNL     1      33.118 -12.479 -23.569  0.00  0.00    -0.010 C 
ENDROOT
BRANCH   7   8
ATOM      8  C   UNL     1      33.243 -13.403 -22.407  0.00  0.00    -0.001 C 
ATOM      9  C   UNL     1      34.501 -13.785 -21.995  0.00  0.00    -0.000 C 
ATOM     10  C   UNL     1      32.094 -13.844 -21.787  0.00  0.00    -0.000 C 
ATOM     11  C   UNL     1      34.617 -14.650 -20.908  0.00  0.00    -0.000 C 
ATOM     12  C   UNL     1      32.211 -14.711 -20.700  0.00  0.00    -0.000 C 
ATOM     13  C   UNL     1      33.471 -15.113 -20.260  0.00  0.00    -0.000 C 
ENDBRANCH   7   8
BRANCH   7  14
ATOM     14  C   UNL     1      33.284 -12.921 -24.981  0.00  0.00    -0.001 C 
ATOM     15  C   UNL     1      32.853 -14.180 -25.336  0.00  0.00    -0.000 C 
ATOM     16  C   UNL     1      33.863 -12.054 -25.883  0.00  0.00    -0.000 C 
ATOM     17  C   UNL     1      33.009 -14.594 -26.659  0.00  0.00    -0.000 C 
ATOM     18  C   UNL     1      34.019 -12.469 -27.206  0.00  0.00    -0.000 C 
ATOM     19  C   UNL     1      33.592 -13.739 -27.594  0.00  0.00    -0.000 C 
ENDBRANCH   7  14
BRANCH   1  20
ATOM     20  C   UNL     1      33.993  -8.427 -22.155  0.00  0.00    -0.073 C 
ATOM     21  C   UNL     1      34.186  -7.455 -23.298  0.00  0.00    -0.024 C 
ENDBRANCH   1  20
BRANCH   1  22
ATOM     22  C   UNL     1      31.691  -8.240 -21.300  0.00  0.00    -0.073 C 
ATOM     23  C   UNL     1      32.523  -7.695 -20.160  0.00  0.00    -0.024 C 
ENDBRANCH   1  22
TORSDOF 4
ENDMDL
