MODEL 1
REMARK VINA RESULT:     -10.1      0.000      0.000
REMARK  Name = 10239
REMARK  4 active torsions:
REMARK  status: ('A' for Active; 'I' for Inactive)
REMARK    1  A    between atoms: C_3  and  C_20
REMARK    2  A    between atoms: C_4  and  C_11
REMARK    3  A    between atoms: C_6  and  O_17
REMARK    4  A    between atoms: C_20  and  O_21
REMARK                            x       y       z     vdW  Elec       q    Type
REMARK                         _______ _______ _______ _____ _____    ______ ____
ROOT
ATOM      1  N   UNL     1      34.625 -17.383 -20.864  0.00  0.00    -0.403 NA
ATOM      2  C   UNL     1      34.398 -16.190 -22.945  0.00  0.00    +0.035 C 
ATOM      3  C   UNL     1      34.564 -17.393 -23.645  0.00  0.00    +0.114 C 
ATOM      4  C   UNL     1      34.781 -18.522 -21.576  0.00  0.00    +0.165 C 
ATOM      5  C   UNL     1      34.436 -16.232 -21.535  0.00  0.00    +0.114 C 
ATOM      6  C   UNL     1      34.759 -18.581 -22.955  0.00  0.00    +0.170 C 
ATOM      7  C   UNL     1      34.200 -14.970 -23.614  0.00  0.00    +0.002 C 
ATOM      8  C   UNL     1      34.272 -15.036 -20.840  0.00  0.00    +0.085 C 
ATOM      9  C   UNL     1      34.038 -13.791 -22.894  0.00  0.00    -0.004 C 
ATOM     10  C   UNL     1      34.074 -13.824 -21.505  0.00  0.00    -0.019 C 
ENDROOT
BRANCH   4  11
ATOM     11  C   UNL     1      34.976 -19.702 -20.765  0.00  0.00    +0.033 C 
ATOM     12  C   UNL     1      36.267 -20.111 -20.425  0.00  0.00    +0.003 C 
ATOM     13  C   UNL     1      33.875 -20.434 -20.321  0.00  0.00    +0.003 C 
ATOM     14  C   UNL     1      36.455 -21.250 -19.643  0.00  0.00    +0.000 C 
ATOM     15  C   UNL     1      34.063 -21.573 -19.538  0.00  0.00    +0.000 C 
ATOM     16  C   UNL     1      35.353 -21.981 -19.198  0.00  0.00    +0.000 C 
ENDBRANCH   4  11
BRANCH   6  17
ATOM     17  O   UNL     1      34.922 -19.759 -23.615  0.00  0.00    -0.503 OA
ATOM     18  H   UNL     1      35.634 -20.326 -23.392  0.00  0.00    +0.292 HD
ENDBRANCH   6  17
BRANCH   3  20
ATOM     19  O   UNL     1      35.258 -16.774 -25.849  0.00  0.00    -0.245 OA
ATOM     20  C   UNL     1      34.537 -17.440 -25.106  0.00  0.00    +0.341 C 
BRANCH  20  21
ATOM     21  O   UNL     1      33.613 -18.318 -25.574  0.00  0.00    -0.477 OA
ATOM     22  H   UNL     1      32.974 -18.681 -24.992  0.00  0.00    +0.295 HD
ENDBRANCH  20  21
ENDBRANCH   3  20
TORSDOF 4
ENDMDL
MODEL 2
REMARK VINA RESULT:     -10.1      0.006      1.081
REMARK  Name = 10239
REMARK  4 active torsions:
REMARK  status: ('A' for Active; 'I' for Inactive)
REMARK    1  A    between atoms: C_3  and  C_20
REMARK    2  A    between atoms: C_4  and  C_11
REMARK    3  A    between atoms: C_6  and  O_17
REMARK    4  A    between atoms: C_20  and  O_21
REMARK                            x       y       z     vdW  Elec       q    Type
REMARK                         _______ _______ _______ _____ _____    ______ ____
ROOT
ATOM      1  N   UNL     1      34.620 -17.387 -20.861  0.00  0.00    -0.403 NA
ATOM      2  C   UNL     1      34.394 -16.193 -22.942  0.00  0.00    +0.035 C 
ATOM      3  C   UNL     1      34.562 -17.395 -23.643  0.00  0.00    +0.114 C 
ATOM      4  C   UNL     1      34.777 -18.525 -21.575  0.00  0.00    +0.165 C 
ATOM      5  C   UNL     1      34.430 -16.236 -21.532  0.00  0.00    +0.114 C 
ATOM      6  C   UNL     1      34.757 -18.583 -22.953  0.00  0.00    +0.170 C 
ATOM      7  C   UNL     1      34.196 -14.973 -23.610  0.00  0.00    +0.002 C 
ATOM      8  C   UNL     1      34.264 -15.041 -20.837  0.00  0.00    +0.085 C 
ATOM      9  C   UNL     1      34.032 -13.794 -22.889  0.00  0.00    -0.004 C 
ATOM     10  C   UNL     1      34.066 -13.828 -21.500  0.00  0.00    -0.019 C 
ENDROOT
BRANCH   4  11
ATOM     11  C   UNL     1      34.972 -19.706 -20.763  0.00  0.00    +0.033 C 
ATOM     12  C   UNL     1      33.871 -20.438 -20.318  0.00  0.00    +0.003 C 
ATOM     13  C   UNL     1      36.263 -20.115 -20.426  0.00  0.00    +0.003 C 
ATOM     14  C   UNL     1      34.059 -21.576 -19.534  0.00  0.00    +0.000 C 
ATOM     15  C   UNL     1      36.451 -21.255 -19.643  0.00  0.00    +0.000 C 
ATOM     16  C   UNL     1      35.350 -21.985 -19.198  0.00  0.00    +0.000 C 
ENDBRANCH   4  11
BRANCH   6  17
ATOM     17  O   UNL     1      34.922 -19.761 -23.614  0.00  0.00    -0.503 OA
ATOM     18  H   UNL     1      34.745 -20.571 -23.177  0.00  0.00    +0.292 HD
ENDBRANCH   6  17
BRANCH   3  20
ATOM     19  O   UNL     1      35.257 -16.772 -25.845  0.00  0.00    -0.245 OA
ATOM     20  C   UNL     1      34.537 -17.441 -25.104  0.00  0.00    +0.341 C 
BRANCH  20  21
ATOM     21  O   UNL     1      33.616 -18.322 -25.574  0.00  0.00    -0.477 OA
ATOM     22  H   UNL     1      33.269 -18.221 -26.439  0.00  0.00    +0.295 HD
ENDBRANCH  20  21
ENDBRANCH   3  20
TORSDOF 4
ENDMDL
MODEL 3
REMARK VINA RESULT:     -10.1      1.085      1.683
REMARK  Name = 10239
REMARK  4 active torsions:
REMARK  status: ('A' for Active; 'I' for Inactive)
REMARK    1  A    between atoms: C_3  and  C_20
REMARK    2  A    between atoms: C_4  and  C_11
REMARK    3  A    between atoms: C_6  and  O_17
REMARK    4  A    between atoms: C_20  and  O_21
REMARK                            x       y       z     vdW  Elec       q    Type
REMARK                         _______ _______ _______ _____ _____    ______ ____
ROOT
ATOM      1  N   UNL     1      34.015 -16.759 -21.120  0.00  0.00    -0.403 NA
ATOM      2  C   UNL     1      33.601 -15.475 -23.116  0.00  0.00    +0.035 C 
ATOM      3  C   UNL     1      34.122 -16.522 -23.890  0.00  0.00    +0.114 C 
ATOM      4  C   UNL     1      34.509 -17.746 -21.902  0.00  0.00    +0.165 C 
ATOM      5  C   UNL     1      33.566 -15.639 -21.715  0.00  0.00    +0.114 C 
ATOM      6  C   UNL     1      34.585 -17.678 -23.279  0.00  0.00    +0.170 C 
ATOM      7  C   UNL     1      33.125 -14.291 -23.705  0.00  0.00    +0.002 C 
ATOM      8  C   UNL     1      33.049 -14.599 -20.948  0.00  0.00    +0.085 C 
ATOM      9  C   UNL     1      32.613 -13.268 -22.913  0.00  0.00    -0.004 C 
ATOM     10  C   UNL     1      32.575 -13.422 -21.532  0.00  0.00    -0.019 C 
ENDROOT
BRANCH   4  11
ATOM     11  C   UNL     1      34.964 -18.906 -21.169  0.00  0.00    +0.033 C 
ATOM     12  C   UNL     1      34.045 -19.862 -20.733  0.00  0.00    +0.003 C 
ATOM     13  C   UNL     1      36.322 -19.072 -20.896  0.00  0.00    +0.003 C 
ATOM     14  C   UNL     1      34.483 -20.981 -20.025  0.00  0.00    +0.000 C 
ATOM     15  C   UNL     1      36.761 -20.191 -20.189  0.00  0.00    +0.000 C 
ATOM     16  C   UNL     1      35.841 -21.146 -19.754  0.00  0.00    +0.000 C 
ENDBRANCH   4  11
BRANCH   6  17
ATOM     17  O   UNL     1      35.093 -18.705 -24.010  0.00  0.00    -0.503 OA
ATOM     18  H   UNL     1      34.517 -19.332 -24.402  0.00  0.00    +0.292 HD
ENDBRANCH   6  17
BRANCH   3  20
ATOM     19  O   UNL     1      33.226 -16.317 -26.099  0.00  0.00    -0.245 OA
ATOM     20  C   UNL     1      34.194 -16.435 -25.348  0.00  0.00    +0.341 C 
BRANCH  20  21
ATOM     21  O   UNL     1      35.473 -16.496 -25.802  0.00  0.00    -0.477 OA
ATOM     22  H   UNL     1      36.118 -16.980 -25.324  0.00  0.00    +0.295 HD
ENDBRANCH  20  21
ENDBRANCH   3  20
TORSDOF 4
ENDMDL
MODEL 4
REMARK VINA RESULT:      -9.6      9.917     12.130
REMARK  Name = 10239
REMARK  4 active torsions:
REMARK  status: ('A' for Active; 'I' for Inactive)
REMARK    1  A    between atoms: C_3  and  C_20
REMARK    2  A    between atoms: C_4  and  C_11
REMARK    3  A    between atoms: C_6  and  O_17
REMARK    4  A    between atoms: C_20  and  O_21
REMARK                            x       y       z     vdW  Elec       q    Type
REMARK                         _______ _______ _______ _____ _____    ______ ____
ROOT
ATOM      1  N   UNL     1      35.347 -25.082 -14.746  0.00  0.00    -0.403 NA
ATOM      2  C   UNL     1      37.082 -24.757 -13.106  0.00  0.00    +0.035 C 
ATOM      3  C   UNL     1      36.171 -24.076 -12.287  0.00  0.00    +0.114 C 
ATOM      4  C   UNL     1      34.500 -24.419 -13.927  0.00  0.00    +0.165 C 
ATOM      5  C   UNL     1      36.621 -25.251 -14.345  0.00  0.00    +0.114 C 
ATOM      6  C   UNL     1      34.858 -23.902 -12.698  0.00  0.00    +0.170 C 
ATOM      7  C   UNL     1      38.419 -24.950 -12.718  0.00  0.00    +0.002 C 
ATOM      8  C   UNL     1      37.527 -25.927 -15.158  0.00  0.00    +0.085 C 
ATOM      9  C   UNL     1      39.302 -25.631 -13.551  0.00  0.00    -0.004 C 
ATOM     10  C   UNL     1      38.856 -26.120 -14.773  0.00  0.00    -0.019 C 
ENDROOT
BRANCH   4  11
ATOM     11  C   UNL     1      33.157 -24.292 -14.447  0.00  0.00    +0.033 C 
ATOM     12  C   UNL     1      32.122 -25.058 -13.907  0.00  0.00    +0.003 C 
ATOM     13  C   UNL     1      32.894 -23.403 -15.490  0.00  0.00    +0.003 C 
ATOM     14  C   UNL     1      30.827 -24.936 -14.410  0.00  0.00    +0.000 C 
ATOM     15  C   UNL     1      31.598 -23.280 -15.992  0.00  0.00    +0.000 C 
ATOM     16  C   UNL     1      30.565 -24.046 -15.452  0.00  0.00    +0.000 C 
ENDBRANCH   4  11
BRANCH   6  17
ATOM     17  O   UNL     1      33.958 -23.244 -11.920  0.00  0.00    -0.503 OA
ATOM     18  H   UNL     1      33.474 -23.711 -11.266  0.00  0.00    +0.292 HD
ENDBRANCH   6  17
BRANCH   3  20
ATOM     19  O   UNL     1      36.311 -24.049  -9.899  0.00  0.00    -0.245 OA
ATOM     20  C   UNL     1      36.565 -23.534 -10.987  0.00  0.00    +0.341 C 
BRANCH  20  21
ATOM     21  O   UNL     1      37.262 -22.373 -11.106  0.00  0.00    -0.477 OA
ATOM     22  H   UNL     1      37.098 -21.665 -10.514  0.00  0.00    +0.295 HD
ENDBRANCH  20  21
ENDBRANCH   3  20
TORSDOF 4
ENDMDL
MODEL 5
REMARK VINA RESULT:      -9.1      4.726      7.176
REMARK  Name = 10239
REMARK  4 active torsions:
REMARK  status: ('A' for Active; 'I' for Inactive)
REMARK    1  A    between atoms: C_3  and  C_20
REMARK    2  A    between atoms: C_4  and  C_11
REMARK    3  A    between atoms: C_6  and  O_17
REMARK    4  A    between atoms: C_20  and  O_21
REMARK                            x       y       z     vdW  Elec       q    Type
REMARK                         _______ _______ _______ _____ _____    ______ ____
ROOT
ATOM      1  N   UNL     1      34.129 -11.736 -24.256  0.00  0.00    -0.403 NA
ATOM      2  C   UNL     1      32.983 -10.136 -22.866  0.00  0.00    +0.035 C 
ATOM      3  C   UNL     1      32.227 -11.175 -22.305  0.00  0.00    +0.114 C 
ATOM      4  C   UNL     1      33.380 -12.709 -23.689  0.00  0.00    +0.165 C 
ATOM      5  C   UNL     1      33.936 -10.466 -23.853  0.00  0.00    +0.114 C 
ATOM      6  C   UNL     1      32.425 -12.484 -22.718  0.00  0.00    +0.170 C 
ATOM      7  C   UNL     1      32.806  -8.799 -22.470  0.00  0.00    +0.002 C 
ATOM      8  C   UNL     1      34.685  -9.434 -24.410  0.00  0.00    +0.085 C 
ATOM      9  C   UNL     1      33.570  -7.788 -23.044  0.00  0.00    -0.004 C 
ATOM     10  C   UNL     1      34.511  -8.105 -24.016  0.00  0.00    -0.019 C 
ENDROOT
BRANCH   4  11
ATOM     11  C   UNL     1      33.663 -14.036 -24.188  0.00  0.00    +0.033 C 
ATOM     12  C   UNL     1      34.463 -14.906 -23.446  0.00  0.00    +0.003 C 
ATOM     13  C   UNL     1      33.137 -14.448 -25.413  0.00  0.00    +0.003 C 
ATOM     14  C   UNL     1      34.737 -16.186 -23.928  0.00  0.00    +0.000 C 
ATOM     15  C   UNL     1      33.410 -15.728 -25.895  0.00  0.00    +0.000 C 
ATOM     16  C   UNL     1      34.210 -16.597 -25.152  0.00  0.00    +0.000 C 
ENDBRANCH   4  11
BRANCH   6  17
ATOM     17  O   UNL     1      31.703 -13.506 -22.186  0.00  0.00    -0.503 OA
ATOM     18  H   UNL     1      32.138 -14.283 -21.892  0.00  0.00    +0.292 HD
ENDBRANCH   6  17
BRANCH   3  20
ATOM     19  O   UNL     1      31.411 -10.285 -20.240  0.00  0.00    -0.245 OA
ATOM     20  C   UNL     1      31.219 -10.920 -21.276  0.00  0.00    +0.341 C 
BRANCH  20  21
ATOM     21  O   UNL     1      30.017 -11.468 -21.590  0.00  0.00    -0.477 OA
ATOM     22  H   UNL     1      29.329 -11.485 -20.954  0.00  0.00    +0.295 HD
ENDBRANCH  20  21
ENDBRANCH   3  20
TORSDOF 4
ENDMDL
MODEL 6
REMARK VINA RESULT:      -9.0      8.661     10.646
REMARK  Name = 10239
REMARK  4 active torsions:
REMARK  status: ('A' for Active; 'I' for Inactive)
REMARK    1  A    between atoms: C_3  and  C_20
REMARK    2  A    between atoms: C_4  and  C_11
REMARK    3  A    between atoms: C_6  and  O_17
REMARK    4  A    between atoms: C_20  and  O_21
REMARK                            x       y       z     vdW  Elec       q    Type
REMARK                         _______ _______ _______ _____ _____    ______ ____
ROOT
ATOM      1  N   UNL     1      33.480 -23.196 -16.088  0.00  0.00    -0.403 NA
ATOM      2  C   UNL     1      35.489 -23.489 -14.791  0.00  0.00    +0.035 C 
ATOM      3  C   UNL     1      34.737 -24.095 -13.774  0.00  0.00    +0.114 C 
ATOM      4  C   UNL     1      32.790 -23.787 -15.085  0.00  0.00    +0.165 C 
ATOM      5  C   UNL     1      34.810 -23.048 -15.946  0.00  0.00    +0.114 C 
ATOM      6  C   UNL     1      33.366 -24.249 -13.918  0.00  0.00    +0.170 C 
ATOM      7  C   UNL     1      36.879 -23.317 -14.675  0.00  0.00    +0.002 C 
ATOM      8  C   UNL     1      35.557 -22.446 -16.955  0.00  0.00    +0.085 C 
ATOM      9  C   UNL     1      37.601 -22.713 -15.699  0.00  0.00    -0.004 C 
ATOM     10  C   UNL     1      36.939 -22.276 -16.841  0.00  0.00    -0.019 C 
ENDROOT
BRANCH   4  11
ATOM     11  C   UNL     1      31.371 -23.900 -15.333  0.00  0.00    +0.033 C 
ATOM     12  C   UNL     1      30.655 -24.981 -14.816  0.00  0.00    +0.003 C 
ATOM     13  C   UNL     1      30.715 -22.928 -16.090  0.00  0.00    +0.003 C 
ATOM     14  C   UNL     1      29.285 -25.090 -15.057  0.00  0.00    +0.000 C 
ATOM     15  C   UNL     1      29.345 -23.037 -16.329  0.00  0.00    +0.000 C 
ATOM     16  C   UNL     1      28.630 -24.118 -15.812  0.00  0.00    +0.000 C 
ENDBRANCH   4  11
BRANCH   6  17
ATOM     17  O   UNL     1      32.618 -24.834 -12.945  0.00  0.00    -0.503 OA
ATOM     18  H   UNL     1      32.762 -24.613 -12.046  0.00  0.00    +0.292 HD
ENDBRANCH   6  17
BRANCH   3  20
ATOM     19  O   UNL     1      35.259 -24.047 -11.440  0.00  0.00    -0.245 OA
ATOM     20  C   UNL     1      35.361 -24.581 -12.544  0.00  0.00    +0.341 C 
BRANCH  20  21
ATOM     21  O   UNL     1      36.082 -25.714 -12.749  0.00  0.00    -0.477 OA
ATOM     22  H   UNL     1      35.927 -26.237 -13.511  0.00  0.00    +0.295 HD
ENDBRANCH  20  21
ENDBRANCH   3  20
TORSDOF 4
ENDMDL
MODEL 7
REMARK VINA RESULT:      -8.9      2.520      6.726
REMARK  Name = 10239
REMARK  4 active torsions:
REMARK  status: ('A' for Active; 'I' for Inactive)
REMARK    1  A    between atoms: C_3  and  C_20
REMARK    2  A    between atoms: C_4  and  C_11
REMARK    3  A    between atoms: C_6  and  O_17
REMARK    4  A    between atoms: C_20  and  O_21
REMARK                            x       y       z     vdW  Elec       q    Type
REMARK                         _______ _______ _______ _____ _____    ______ ____
ROOT
ATOM      1  N   UNL     1      33.817 -14.106 -22.065  0.00  0.00    -0.403 NA
ATOM      2  C   UNL     1      34.295 -16.145 -23.257  0.00  0.00    +0.035 C 
ATOM      3  C   UNL     1      33.849 -15.548 -24.444  0.00  0.00    +0.114 C 
ATOM      4  C   UNL     1      33.397 -13.567 -23.232  0.00  0.00    +0.165 C 
ATOM      5  C   UNL     1      34.261 -15.377 -22.074  0.00  0.00    +0.114 C 
ATOM      6  C   UNL     1      33.392 -14.238 -24.438  0.00  0.00    +0.170 C 
ATOM      7  C   UNL     1      34.764 -17.470 -23.230  0.00  0.00    +0.002 C 
ATOM      8  C   UNL     1      34.703 -15.971 -20.895  0.00  0.00    +0.085 C 
ATOM      9  C   UNL     1      35.200 -18.038 -22.037  0.00  0.00    -0.004 C 
ATOM     10  C   UNL     1      35.170 -17.287 -20.868  0.00  0.00    -0.019 C 
ENDROOT
BRANCH   4  11
ATOM     11  C   UNL     1      32.941 -12.199 -23.118  0.00  0.00    +0.033 C 
ATOM     12  C   UNL     1      31.869 -11.887 -22.280  0.00  0.00    +0.003 C 
ATOM     13  C   UNL     1      33.573 -11.190 -23.846  0.00  0.00    +0.003 C 
ATOM     14  C   UNL     1      31.429 -10.568 -22.171  0.00  0.00    +0.000 C 
ATOM     15  C   UNL     1      33.134  -9.871 -23.736  0.00  0.00    +0.000 C 
ATOM     16  C   UNL     1      32.062  -9.560 -22.898  0.00  0.00    +0.000 C 
ENDBRANCH   4  11
BRANCH   6  17
ATOM     17  O   UNL     1      32.956 -13.640 -25.578  0.00  0.00    -0.503 OA
ATOM     18  H   UNL     1      33.186 -13.998 -26.413  0.00  0.00    +0.292 HD
ENDBRANCH   6  17
BRANCH   3  20
ATOM     19  O   UNL     1      32.876 -16.412 -26.451  0.00  0.00    -0.245 OA
ATOM     20  C   UNL     1      33.852 -16.272 -25.715  0.00  0.00    +0.341 C 
BRANCH  20  21
ATOM     21  O   UNL     1      35.074 -16.786 -26.010  0.00  0.00    -0.477 OA
ATOM     22  H   UNL     1      35.646 -16.329 -26.596  0.00  0.00    +0.295 HD
ENDBRANCH  20  21
ENDBRANCH   3  20
TORSDOF 4
ENDMDL
MODEL 8
REMARK VINA RESULT:      -8.9      7.568      9.851
REMARK  Name = 10239
REMARK  4 active torsions:
REMARK  status: ('A' for Active; 'I' for Inactive)
REMARK    1  A    between atoms: C_3  and  C_20
REMARK    2  A    between atoms: C_4  and  C_11
REMARK    3  A    between atoms: C_6  and  O_17
REMARK    4  A    between atoms: C_20  and  O_21
REMARK                            x       y       z     vdW  Elec       q    Type
REMARK                         _______ _______ _______ _____ _____    ______ ____
ROOT
ATOM      1  N   UNL     1      33.457 -24.345 -13.816  0.00  0.00    -0.403 NA
ATOM      2  C   UNL     1      32.099 -23.766 -15.721  0.00  0.00    +0.035 C 
ATOM      3  C   UNL     1      33.259 -23.470 -16.450  0.00  0.00    +0.114 C 
ATOM      4  C   UNL     1      34.551 -24.050 -14.554  0.00  0.00    +0.165 C 
ATOM      5  C   UNL     1      32.246 -24.206 -14.388  0.00  0.00    +0.114 C 
ATOM      6  C   UNL     1      34.508 -23.614 -15.863  0.00  0.00    +0.170 C 
ATOM      7  C   UNL     1      30.820 -23.631 -16.286  0.00  0.00    +0.002 C 
ATOM      8  C   UNL     1      31.094 -24.499 -13.665  0.00  0.00    +0.085 C 
ATOM      9  C   UNL     1      29.685 -23.931 -15.539  0.00  0.00    -0.004 C 
ATOM     10  C   UNL     1      29.822 -24.366 -14.227  0.00  0.00    -0.019 C 
ENDROOT
BRANCH   4  11
ATOM     11  C   UNL     1      35.802 -24.233 -13.851  0.00  0.00    +0.033 C 
ATOM     12  C   UNL     1      36.258 -23.251 -12.970  0.00  0.00    +0.003 C 
ATOM     13  C   UNL     1      36.554 -25.391 -14.053  0.00  0.00    +0.003 C 
ATOM     14  C   UNL     1      37.465 -23.426 -12.293  0.00  0.00    +0.000 C 
ATOM     15  C   UNL     1      37.760 -25.567 -13.375  0.00  0.00    +0.000 C 
ATOM     16  C   UNL     1      38.215 -24.585 -12.495  0.00  0.00    +0.000 C 
ENDBRANCH   4  11
BRANCH   6  17
ATOM     17  O   UNL     1      35.646 -23.333 -16.552  0.00  0.00    -0.503 OA
ATOM     18  H   UNL     1      35.895 -23.865 -17.282  0.00  0.00    +0.292 HD
ENDBRANCH   6  17
BRANCH   3  20
ATOM     19  O   UNL     1      32.664 -21.966 -18.212  0.00  0.00    -0.245 OA
ATOM     20  C   UNL     1      33.197 -23.009 -17.836  0.00  0.00    +0.341 C 
BRANCH  20  21
ATOM     21  O   UNL     1      33.807 -23.871 -18.691  0.00  0.00    -0.477 OA
ATOM     22  H   UNL     1      34.677 -23.695 -18.993  0.00  0.00    +0.295 HD
ENDBRANCH  20  21
ENDBRANCH   3  20
TORSDOF 4
ENDMDL
MODEL 9
REMARK VINA RESULT:      -8.9      6.132      8.585
REMARK  Name = 10239
REMARK  4 active torsions:
REMARK  status: ('A' for Active; 'I' for Inactive)
REMARK    1  A    between atoms: C_3  and  C_20
REMARK    2  A    between atoms: C_4  and  C_11
REMARK    3  A    between atoms: C_6  and  O_17
REMARK    4  A    between atoms: C_20  and  O_21
REMARK                            x       y       z     vdW  Elec       q    Type
REMARK                         _______ _______ _______ _____ _____    ______ ____
ROOT
ATOM      1  N   UNL     1      32.443 -22.627 -17.844  0.00  0.00    -0.403 NA
ATOM      2  C   UNL     1      34.837 -22.370 -17.763  0.00  0.00    +0.035 C 
ATOM      3  C   UNL     1      34.857 -23.013 -16.518  0.00  0.00    +0.114 C 
ATOM      4  C   UNL     1      32.506 -23.244 -16.642  0.00  0.00    +0.165 C 
ATOM      5  C   UNL     1      33.590 -22.195 -18.400  0.00  0.00    +0.114 C 
ATOM      6  C   UNL     1      33.676 -23.460 -15.944  0.00  0.00    +0.170 C 
ATOM      7  C   UNL     1      36.016 -21.905 -18.371  0.00  0.00    +0.002 C 
ATOM      8  C   UNL     1      33.571 -21.555 -19.636  0.00  0.00    +0.085 C 
ATOM      9  C   UNL     1      35.966 -21.269 -19.608  0.00  0.00    -0.004 C 
ATOM     10  C   UNL     1      34.742 -21.094 -20.241  0.00  0.00    -0.019 C 
ENDROOT
BRANCH   4  11
ATOM     11  C   UNL     1      31.222 -23.671 -16.132  0.00  0.00    +0.033 C 
ATOM     12  C   UNL     1      31.114 -24.872 -15.429  0.00  0.00    +0.003 C 
ATOM     13  C   UNL     1      30.090 -22.883 -16.342  0.00  0.00    +0.003 C 
ATOM     14  C   UNL     1      29.875 -25.284 -14.938  0.00  0.00    +0.000 C 
ATOM     15  C   UNL     1      28.852 -23.295 -15.850  0.00  0.00    +0.000 C 
ATOM     16  C   UNL     1      28.744 -24.496 -15.147  0.00  0.00    +0.000 C 
ENDBRANCH   4  11
BRANCH   6  17
ATOM     17  O   UNL     1      33.674 -24.087 -14.737  0.00  0.00    -0.503 OA
ATOM     18  H   UNL     1      34.354 -23.912 -14.117  0.00  0.00    +0.292 HD
ENDBRANCH   6  17
BRANCH   3  20
ATOM     19  O   UNL     1      36.765 -22.360 -15.231  0.00  0.00    -0.245 OA
ATOM     20  C   UNL     1      36.106 -23.236 -15.790  0.00  0.00    +0.341 C 
BRANCH  20  21
ATOM     21  O   UNL     1      36.474 -24.544 -15.791  0.00  0.00    -0.477 OA
ATOM     22  H   UNL     1      37.339 -24.787 -15.525  0.00  0.00    +0.295 HD
ENDBRANCH  20  21
ENDBRANCH   3  20
TORSDOF 4
ENDMDL
