MODEL 1
REMARK VINA RESULT:      -9.1      0.000      0.000
REMARK  Name = 84098
REMARK  5 active torsions:
REMARK  status: ('A' for Active; 'I' for Inactive)
REMARK    1  A    between atoms: C_1  and  C_16
REMARK    2  A    between atoms: C_2  and  S_7
REMARK    3  A    between atoms: C_5  and  C_14
REMARK    4  A    between atoms: C_16  and  C_20
REMARK    5  A    between atoms: C_19  and  C_22
REMARK                            x       y       z     vdW  Elec       q    Type
REMARK                         _______ _______ _______ _____ _____    ______ ____
ROOT
ATOM      1  C   UNL     1      34.574 -17.321 -22.747  0.00  0.00    +0.056 C 
ATOM      2  C   UNL     1      33.902 -16.116 -22.540  0.00  0.00    +0.109 C 
ATOM      3  C   UNL     1      34.792 -17.784 -24.045  0.00  0.00    +0.004 C 
ATOM      4  C   UNL     1      33.449 -15.374 -23.631  0.00  0.00    +0.022 C 
ATOM      5  C   UNL     1      33.668 -15.837 -24.929  0.00  0.00    +0.073 C 
ATOM      6  C   UNL     1      34.339 -17.042 -25.135  0.00  0.00    +0.004 C 
ENDROOT
BRANCH   2   7
ATOM      7  S   UNL     1      33.610 -15.502 -20.926  0.00  0.00    +0.011 S 
ATOM      8  O   UNL     1      32.532 -16.284 -20.342  0.00  0.00    -0.169 OA
ATOM      9  O   UNL     1      34.884 -15.390 -20.233  0.00  0.00    -0.169 OA
ATOM     10  C   UNL     1      33.011 -13.850 -21.190  0.00  0.00    +0.182 C 
ENDBRANCH   2   7
BRANCH   5  14
ATOM     11  F   UNL     1      32.560 -13.879 -25.743  0.00  0.00    -0.166 F 
ATOM     12  F   UNL     1      34.179 -14.669 -26.952  0.00  0.00    -0.166 F 
ATOM     13  F   UNL     1      32.282 -15.726 -26.857  0.00  0.00    -0.166 F 
ATOM     14  C   UNL     1      33.184 -15.043 -26.094  0.00  0.00    +0.419 C 
ENDBRANCH   5  14
BRANCH   1  16
ATOM     15  O   UNL     1      36.169 -17.848 -21.146  0.00  0.00    -0.286 OA
ATOM     16  C   UNL     1      35.063 -18.124 -21.634  0.00  0.00    +0.201 C 
BRANCH  16  20
ATOM     17  O   UNL     1      33.686 -21.056 -20.025  0.00  0.00    -0.358 OA
ATOM     18  N   UNL     1      32.523 -20.552 -20.593  0.00  0.00    -0.076 NA
ATOM     19  C   UNL     1      34.726 -20.241 -20.336  0.00  0.00    +0.157 C 
ATOM     20  C   UNL     1      34.255 -19.232 -21.086  0.00  0.00    +0.094 C 
ATOM     21  C   UNL     1      32.902 -19.442 -21.231  0.00  0.00    +0.147 C 
BRANCH  19  22
ATOM     22  C   UNL     1      36.169 -20.480 -19.885  0.00  0.00    +0.060 C 
ATOM     23  C   UNL     1      36.432 -21.450 -18.766  0.00  0.00    +0.008 C 
ATOM     24  C   UNL     1      36.812 -21.809 -20.172  0.00  0.00    +0.008 C 
ENDBRANCH  19  22
ENDBRANCH  16  20
ENDBRANCH   1  16
TORSDOF 5
ENDMDL
MODEL 2
REMARK VINA RESULT:      -8.6      7.581     10.089
REMARK  Name = 84098
REMARK  5 active torsions:
REMARK  status: ('A' for Active; 'I' for Inactive)
REMARK    1  A    between atoms: C_1  and  C_16
REMARK    2  A    between atoms: C_2  and  S_7
REMARK    3  A    between atoms: C_5  and  C_14
REMARK    4  A    between atoms: C_16  and  C_20
REMARK    5  A    between atoms: C_19  and  C_22
REMARK                            x       y       z     vdW  Elec       q    Type
REMARK                         _______ _______ _______ _____ _____    ______ ____
ROOT
ATOM      1  C   UNL     1      33.608 -23.191 -15.436  0.00  0.00    +0.056 C 
ATOM      2  C   UNL     1      32.991 -23.063 -16.680  0.00  0.00    +0.109 C 
ATOM      3  C   UNL     1      32.833 -23.264 -14.278  0.00  0.00    +0.004 C 
ATOM      4  C   UNL     1      31.600 -23.009 -16.767  0.00  0.00    +0.022 C 
ATOM      5  C   UNL     1      30.825 -23.082 -15.609  0.00  0.00    +0.073 C 
ATOM      6  C   UNL     1      31.442 -23.210 -14.364  0.00  0.00    +0.004 C 
ENDROOT
BRANCH   2   7
ATOM      7  S   UNL     1      33.929 -22.971 -18.156  0.00  0.00    +0.011 S 
ATOM      8  O   UNL     1      35.268 -22.525 -17.804  0.00  0.00    -0.169 OA
ATOM      9  O   UNL     1      33.748 -24.206 -18.902  0.00  0.00    -0.169 OA
ATOM     10  C   UNL     1      33.146 -21.677 -19.090  0.00  0.00    +0.182 C 
ENDBRANCH   2   7
BRANCH   5  14
ATOM     11  F   UNL     1      28.873 -22.930 -16.983  0.00  0.00    -0.166 F 
ATOM     12  F   UNL     1      28.715 -24.122 -15.177  0.00  0.00    -0.166 F 
ATOM     13  F   UNL     1      28.811 -21.954 -15.041  0.00  0.00    -0.166 F 
ATOM     14  C   UNL     1      29.338 -23.025 -15.701  0.00  0.00    +0.419 C 
ENDBRANCH   5  14
BRANCH   1  16
ATOM     15  O   UNL     1      35.701 -22.193 -15.336  0.00  0.00    -0.286 OA
ATOM     16  C   UNL     1      35.057 -23.252 -15.305  0.00  0.00    +0.201 C 
BRANCH  16  20
ATOM     17  O   UNL     1      37.107 -26.084 -14.374  0.00  0.00    -0.358 OA
ATOM     18  N   UNL     1      36.341 -26.685 -15.364  0.00  0.00    -0.076 NA
ATOM     19  C   UNL     1      36.731 -24.786 -14.243  0.00  0.00    +0.157 C 
ATOM     20  C   UNL     1      35.747 -24.545 -15.124  0.00  0.00    +0.094 C 
ATOM     21  C   UNL     1      35.523 -25.724 -15.801  0.00  0.00    +0.147 C 
BRANCH  19  22
ATOM     22  C   UNL     1      37.359 -23.806 -13.247  0.00  0.00    +0.060 C 
ATOM     23  C   UNL     1      36.564 -23.382 -12.044  0.00  0.00    +0.008 C 
ATOM     24  C   UNL     1      37.738 -24.302 -11.878  0.00  0.00    +0.008 C 
ENDBRANCH  19  22
ENDBRANCH  16  20
ENDBRANCH   1  16
TORSDOF 5
ENDMDL
MODEL 3
REMARK VINA RESULT:      -8.4      8.189     10.255
REMARK  Name = 84098
REMARK  5 active torsions:
REMARK  status: ('A' for Active; 'I' for Inactive)
REMARK    1  A    between atoms: C_1  and  C_16
REMARK    2  A    between atoms: C_2  and  S_7
REMARK    3  A    between atoms: C_5  and  C_14
REMARK    4  A    between atoms: C_16  and  C_20
REMARK    5  A    between atoms: C_19  and  C_22
REMARK                            x       y       z     vdW  Elec       q    Type
REMARK                         _______ _______ _______ _____ _____    ______ ____
ROOT
ATOM      1  C   UNL     1      34.735 -23.586 -14.596  0.00  0.00    +0.056 C 
ATOM      2  C   UNL     1      33.442 -23.589 -15.117  0.00  0.00    +0.109 C 
ATOM      3  C   UNL     1      35.808 -23.184 -15.392  0.00  0.00    +0.004 C 
ATOM      4  C   UNL     1      33.220 -23.189 -16.436  0.00  0.00    +0.022 C 
ATOM      5  C   UNL     1      34.293 -22.787 -17.232  0.00  0.00    +0.073 C 
ATOM      6  C   UNL     1      35.586 -22.784 -16.710  0.00  0.00    +0.004 C 
ENDROOT
BRANCH   2   7
ATOM      7  S   UNL     1      32.070 -24.085 -14.149  0.00  0.00    +0.011 S 
ATOM      8  O   UNL     1      32.189 -25.515 -13.911  0.00  0.00    -0.169 OA
ATOM      9  O   UNL     1      31.938 -23.171 -13.025  0.00  0.00    -0.169 OA
ATOM     10  C   UNL     1      30.668 -23.818 -15.207  0.00  0.00    +0.182 C 
ENDBRANCH   2   7
BRANCH   5  14
ATOM     11  F   UNL     1      35.034 -21.543 -19.136  0.00  0.00    -0.166 F 
ATOM     12  F   UNL     1      33.980 -23.399 -19.523  0.00  0.00    -0.166 F 
ATOM     13  F   UNL     1      32.890 -21.665 -18.791  0.00  0.00    -0.166 F 
ATOM     14  C   UNL     1      34.056 -22.359 -18.640  0.00  0.00    +0.419 C 
ENDBRANCH   5  14
BRANCH   1  16
ATOM     15  O   UNL     1      34.065 -24.410 -12.532  0.00  0.00    -0.286 OA
ATOM     16  C   UNL     1      35.006 -23.995 -13.224  0.00  0.00    +0.201 C 
BRANCH  16  20
ATOM     17  O   UNL     1      38.420 -24.478 -12.130  0.00  0.00    -0.358 OA
ATOM     18  N   UNL     1      38.213 -23.195 -11.638  0.00  0.00    -0.076 NA
ATOM     19  C   UNL     1      37.293 -24.906 -12.753  0.00  0.00    +0.157 C 
ATOM     20  C   UNL     1      36.374 -23.931 -12.671  0.00  0.00    +0.094 C 
ATOM     21  C   UNL     1      36.959 -22.890 -11.984  0.00  0.00    +0.147 C 
BRANCH  19  22
ATOM     22  C   UNL     1      37.148 -26.279 -13.417  0.00  0.00    +0.060 C 
ATOM     23  C   UNL     1      36.803 -26.348 -14.878  0.00  0.00    +0.008 C 
ATOM     24  C   UNL     1      38.182 -26.717 -14.417  0.00  0.00    +0.008 C 
ENDBRANCH  19  22
ENDBRANCH  16  20
ENDBRANCH   1  16
TORSDOF 5
ENDMDL
MODEL 4
REMARK VINA RESULT:      -8.4      2.209      3.250
REMARK  Name = 84098
REMARK  5 active torsions:
REMARK  status: ('A' for Active; 'I' for Inactive)
REMARK    1  A    between atoms: C_1  and  C_16
REMARK    2  A    between atoms: C_2  and  S_7
REMARK    3  A    between atoms: C_5  and  C_14
REMARK    4  A    between atoms: C_16  and  C_20
REMARK    5  A    between atoms: C_19  and  C_22
REMARK                            x       y       z     vdW  Elec       q    Type
REMARK                         _______ _______ _______ _____ _____    ______ ____
ROOT
ATOM      1  C   UNL     1      34.771 -17.281 -21.489  0.00  0.00    +0.056 C 
ATOM      2  C   UNL     1      34.479 -17.003 -22.824  0.00  0.00    +0.109 C 
ATOM      3  C   UNL     1      34.521 -16.322 -20.506  0.00  0.00    +0.004 C 
ATOM      4  C   UNL     1      33.938 -15.766 -23.177  0.00  0.00    +0.022 C 
ATOM      5  C   UNL     1      33.689 -14.808 -22.195  0.00  0.00    +0.073 C 
ATOM      6  C   UNL     1      33.981 -15.086 -20.859  0.00  0.00    +0.004 C 
ENDROOT
BRANCH   2   7
ATOM      7  S   UNL     1      34.776 -18.181 -24.085  0.00  0.00    +0.011 S 
ATOM      8  O   UNL     1      36.132 -18.680 -23.916  0.00  0.00    -0.169 OA
ATOM      9  O   UNL     1      33.659 -19.113 -24.125  0.00  0.00    -0.169 OA
ATOM     10  C   UNL     1      34.721 -17.235 -25.589  0.00  0.00    +0.182 C 
ENDBRANCH   2   7
BRANCH   5  14
ATOM     11  F   UNL     1      32.060 -13.577 -23.442  0.00  0.00    -0.166 F 
ATOM     12  F   UNL     1      32.631 -12.776 -21.509  0.00  0.00    -0.166 F 
ATOM     13  F   UNL     1      34.018 -12.669 -23.179  0.00  0.00    -0.166 F 
ATOM     14  C   UNL     1      33.110 -13.487 -22.572  0.00  0.00    +0.419 C 
ENDBRANCH   5  14
BRANCH   1  16
ATOM     15  O   UNL     1      36.566 -18.697 -21.092  0.00  0.00    -0.286 OA
ATOM     16  C   UNL     1      35.334 -18.561 -21.080  0.00  0.00    +0.201 C 
BRANCH  16  20
ATOM     17  O   UNL     1      33.783 -21.567 -19.800  0.00  0.00    -0.358 OA
ATOM     18  N   UNL     1      32.647 -20.918 -20.266  0.00  0.00    -0.076 NA
ATOM     19  C   UNL     1      34.872 -20.794 -20.040  0.00  0.00    +0.157 C 
ATOM     20  C   UNL     1      34.460 -19.669 -20.647  0.00  0.00    +0.094 C 
ATOM     21  C   UNL     1      33.092 -19.766 -20.775  0.00  0.00    +0.147 C 
BRANCH  19  22
ATOM     22  C   UNL     1      36.304 -21.186 -19.665  0.00  0.00    +0.060 C 
ATOM     23  C   UNL     1      36.979 -20.478 -18.525  0.00  0.00    +0.008 C 
ATOM     24  C   UNL     1      36.547 -21.906 -18.367  0.00  0.00    +0.008 C 
ENDBRANCH  19  22
ENDBRANCH  16  20
ENDBRANCH   1  16
TORSDOF 5
ENDMDL
MODEL 5
REMARK VINA RESULT:      -8.2      5.394      8.449
REMARK  Name = 84098
REMARK  5 active torsions:
REMARK  status: ('A' for Active; 'I' for Inactive)
REMARK    1  A    between atoms: C_1  and  C_16
REMARK    2  A    between atoms: C_2  and  S_7
REMARK    3  A    between atoms: C_5  and  C_14
REMARK    4  A    between atoms: C_16  and  C_20
REMARK    5  A    between atoms: C_19  and  C_22
REMARK                            x       y       z     vdW  Elec       q    Type
REMARK                         _______ _______ _______ _____ _____    ______ ____
ROOT
ATOM      1  C   UNL     1      32.202 -12.254 -22.363  0.00  0.00    +0.056 C 
ATOM      2  C   UNL     1      33.194 -12.244 -23.344  0.00  0.00    +0.109 C 
ATOM      3  C   UNL     1      31.888 -13.440 -21.700  0.00  0.00    +0.004 C 
ATOM      4  C   UNL     1      33.872 -13.421 -23.663  0.00  0.00    +0.022 C 
ATOM      5  C   UNL     1      33.558 -14.608 -23.000  0.00  0.00    +0.073 C 
ATOM      6  C   UNL     1      32.566 -14.617 -22.019  0.00  0.00    +0.004 C 
ENDROOT
BRANCH   2   7
ATOM      7  S   UNL     1      33.618 -10.774 -24.196  0.00  0.00    +0.011 S 
ATOM      8  O   UNL     1      32.382 -10.078 -24.522  0.00  0.00    -0.169 OA
ATOM      9  O   UNL     1      34.662 -10.088 -23.452  0.00  0.00    -0.169 OA
ATOM     10  C   UNL     1      34.346 -11.343 -25.714  0.00  0.00    +0.182 C 
ENDBRANCH   2   7
BRANCH   5  14
ATOM     11  F   UNL     1      34.176 -16.835 -22.382  0.00  0.00    -0.166 F 
ATOM     12  F   UNL     1      33.845 -16.455 -24.492  0.00  0.00    -0.166 F 
ATOM     13  F   UNL     1      35.622 -15.670 -23.514  0.00  0.00    -0.166 F 
ATOM     14  C   UNL     1      34.282 -15.865 -23.340  0.00  0.00    +0.419 C 
ENDBRANCH   5  14
BRANCH   1  16
ATOM     15  O   UNL     1      30.524 -10.689 -22.714  0.00  0.00    -0.286 OA
ATOM     16  C   UNL     1      31.474 -11.045 -22.001  0.00  0.00    +0.201 C 
BRANCH  16  20
ATOM     17  O   UNL     1      32.397  -8.598 -19.502  0.00  0.00    -0.358 OA
ATOM     18  N   UNL     1      32.353  -9.728 -18.695  0.00  0.00    -0.076 NA
ATOM     19  C   UNL     1      32.086  -8.945 -20.777  0.00  0.00    +0.157 C 
ATOM     20  C   UNL     1      31.847 -10.266 -20.803  0.00  0.00    +0.094 C 
ATOM     21  C   UNL     1      32.015 -10.726 -19.516  0.00  0.00    +0.147 C 
BRANCH  19  22
ATOM     22  C   UNL     1      32.035  -7.959 -21.948  0.00  0.00    +0.060 C 
ATOM     23  C   UNL     1      32.191  -6.490 -21.670  0.00  0.00    +0.008 C 
ATOM     24  C   UNL     1      33.295  -7.244 -22.352  0.00  0.00    +0.008 C 
ENDBRANCH  19  22
ENDBRANCH  16  20
ENDBRANCH   1  16
TORSDOF 5
ENDMDL
MODEL 6
REMARK VINA RESULT:      -8.2      4.770      6.410
REMARK  Name = 84098
REMARK  5 active torsions:
REMARK  status: ('A' for Active; 'I' for Inactive)
REMARK    1  A    between atoms: C_1  and  C_16
REMARK    2  A    between atoms: C_2  and  S_7
REMARK    3  A    between atoms: C_5  and  C_14
REMARK    4  A    between atoms: C_16  and  C_20
REMARK    5  A    between atoms: C_19  and  C_22
REMARK                            x       y       z     vdW  Elec       q    Type
REMARK                         _______ _______ _______ _____ _____    ______ ____
ROOT
ATOM      1  C   UNL     1      33.170 -11.913 -23.304  0.00  0.00    +0.056 C 
ATOM      2  C   UNL     1      32.642 -10.906 -22.496  0.00  0.00    +0.109 C 
ATOM      3  C   UNL     1      34.080 -11.594 -24.312  0.00  0.00    +0.004 C 
ATOM      4  C   UNL     1      33.023  -9.580 -22.696  0.00  0.00    +0.022 C 
ATOM      5  C   UNL     1      33.933  -9.260 -23.704  0.00  0.00    +0.073 C 
ATOM      6  C   UNL     1      34.462 -10.267 -24.512  0.00  0.00    +0.004 C 
ENDROOT
BRANCH   2   7
ATOM      7  S   UNL     1      31.499 -11.269 -21.220  0.00  0.00    +0.011 S 
ATOM      8  O   UNL     1      30.178 -11.363 -21.821  0.00  0.00    -0.169 OA
ATOM      9  O   UNL     1      32.017 -12.375 -20.430  0.00  0.00    -0.169 OA
ATOM     10  C   UNL     1      31.531  -9.826 -20.183  0.00  0.00    +0.182 C 
ENDBRANCH   2   7
BRANCH   5  14
ATOM     11  F   UNL     1      33.344  -6.941 -23.667  0.00  0.00    -0.166 F 
ATOM     12  F   UNL     1      35.383  -7.448 -23.126  0.00  0.00    -0.166 F 
ATOM     13  F   UNL     1      34.742  -7.597 -25.198  0.00  0.00    -0.166 F 
ATOM     14  C   UNL     1      34.342  -7.842 -23.917  0.00  0.00    +0.419 C 
ENDBRANCH   5  14
BRANCH   1  16
ATOM     15  O   UNL     1      31.685 -13.683 -23.524  0.00  0.00    -0.286 OA
ATOM     16  C   UNL     1      32.798 -13.310 -23.125  0.00  0.00    +0.201 C 
BRANCH  16  20
ATOM     17  O   UNL     1      35.219 -15.847 -22.236  0.00  0.00    -0.358 OA
ATOM     18  N   UNL     1      34.886 -15.407 -20.961  0.00  0.00    -0.076 NA
ATOM     19  C   UNL     1      34.507 -15.144 -23.153  0.00  0.00    +0.157 C 
ATOM     20  C   UNL     1      33.730 -14.268 -22.496  0.00  0.00    +0.094 C 
ATOM     21  C   UNL     1      33.978 -14.445 -21.153  0.00  0.00    +0.147 C 
BRANCH  19  22
ATOM     22  C   UNL     1      34.608 -15.356 -24.666  0.00  0.00    +0.060 C 
ATOM     23  C   UNL     1      34.807 -16.750 -25.194  0.00  0.00    +0.008 C 
ATOM     24  C   UNL     1      33.487 -16.060 -25.380  0.00  0.00    +0.008 C 
ENDBRANCH  19  22
ENDBRANCH  16  20
ENDBRANCH   1  16
TORSDOF 5
ENDMDL
MODEL 7
REMARK VINA RESULT:      -8.0      7.513     10.115
REMARK  Name = 84098
REMARK  5 active torsions:
REMARK  status: ('A' for Active; 'I' for Inactive)
REMARK    1  A    between atoms: C_1  and  C_16
REMARK    2  A    between atoms: C_2  and  S_7
REMARK    3  A    between atoms: C_5  and  C_14
REMARK    4  A    between atoms: C_16  and  C_20
REMARK    5  A    between atoms: C_19  and  C_22
REMARK                            x       y       z     vdW  Elec       q    Type
REMARK                         _______ _______ _______ _____ _____    ______ ____
ROOT
ATOM      1  C   UNL     1      33.553 -23.904 -15.624  0.00  0.00    +0.056 C 
ATOM      2  C   UNL     1      32.970 -23.312 -16.744  0.00  0.00    +0.109 C 
ATOM      3  C   UNL     1      32.804 -24.083 -14.460  0.00  0.00    +0.004 C 
ATOM      4  C   UNL     1      31.639 -22.897 -16.700  0.00  0.00    +0.022 C 
ATOM      5  C   UNL     1      30.890 -23.076 -15.537  0.00  0.00    +0.073 C 
ATOM      6  C   UNL     1      31.473 -23.668 -14.417  0.00  0.00    +0.004 C 
ENDROOT
BRANCH   2   7
ATOM      7  S   UNL     1      33.876 -23.073 -18.223  0.00  0.00    +0.011 S 
ATOM      8  O   UNL     1      35.193 -22.571 -17.860  0.00  0.00    -0.169 OA
ATOM      9  O   UNL     1      33.756 -24.269 -19.042  0.00  0.00    -0.169 OA
ATOM     10  C   UNL     1      33.004 -21.773 -19.065  0.00  0.00    +0.182 C 
ENDBRANCH   2   7
BRANCH   5  14
ATOM     11  F   UNL     1      29.026 -22.086 -16.663  0.00  0.00    -0.166 F 
ATOM     12  F   UNL     1      28.589 -23.643 -15.218  0.00  0.00    -0.166 F 
ATOM     13  F   UNL     1      29.242 -21.684 -14.536  0.00  0.00    -0.166 F 
ATOM     14  C   UNL     1      29.467 -22.633 -15.491  0.00  0.00    +0.419 C 
ENDBRANCH   5  14
BRANCH   1  16
ATOM     15  O   UNL     1      35.203 -25.457 -16.126  0.00  0.00    -0.286 OA
ATOM     16  C   UNL     1      34.939 -24.352 -15.631  0.00  0.00    +0.201 C 
BRANCH  16  20
ATOM     17  O   UNL     1      37.480 -22.654 -13.695  0.00  0.00    -0.358 OA
ATOM     18  N   UNL     1      37.592 -21.937 -14.879  0.00  0.00    -0.076 NA
ATOM     19  C   UNL     1      36.516 -23.600 -13.833  0.00  0.00    +0.157 C 
ATOM     20  C   UNL     1      36.011 -23.503 -15.074  0.00  0.00    +0.094 C 
ATOM     21  C   UNL     1      36.686 -22.477 -15.698  0.00  0.00    +0.147 C 
BRANCH  19  22
ATOM     22  C   UNL     1      36.110 -24.581 -12.730  0.00  0.00    +0.060 C 
ATOM     23  C   UNL     1      36.639 -24.372 -11.339  0.00  0.00    +0.008 C 
ATOM     24  C   UNL     1      35.192 -24.109 -11.636  0.00  0.00    +0.008 C 
ENDBRANCH  19  22
ENDBRANCH  16  20
ENDBRANCH   1  16
TORSDOF 5
ENDMDL
MODEL 8
REMARK VINA RESULT:      -7.9      5.973      9.390
REMARK  Name = 84098
REMARK  5 active torsions:
REMARK  status: ('A' for Active; 'I' for Inactive)
REMARK    1  A    between atoms: C_1  and  C_16
REMARK    2  A    between atoms: C_2  and  S_7
REMARK    3  A    between atoms: C_5  and  C_14
REMARK    4  A    between atoms: C_16  and  C_20
REMARK    5  A    between atoms: C_19  and  C_22
REMARK                            x       y       z     vdW  Elec       q    Type
REMARK                         _______ _______ _______ _____ _____    ______ ____
ROOT
ATOM      1  C   UNL     1      32.139 -11.347 -22.281  0.00  0.00    +0.056 C 
ATOM      2  C   UNL     1      33.202 -11.533 -23.165  0.00  0.00    +0.109 C 
ATOM      3  C   UNL     1      31.748 -12.382 -21.432  0.00  0.00    +0.004 C 
ATOM      4  C   UNL     1      33.875 -12.755 -23.199  0.00  0.00    +0.022 C 
ATOM      5  C   UNL     1      33.484 -13.790 -22.349  0.00  0.00    +0.073 C 
ATOM      6  C   UNL     1      32.420 -13.604 -21.466  0.00  0.00    +0.004 C 
ENDROOT
BRANCH   2   7
ATOM      7  S   UNL     1      33.723 -10.257 -24.245  0.00  0.00    +0.011 S 
ATOM      8  O   UNL     1      32.539  -9.705 -24.884  0.00  0.00    -0.169 OA
ATOM      9  O   UNL     1      34.635  -9.381 -23.526  0.00  0.00    -0.169 OA
ATOM     10  C   UNL     1      34.677 -11.098 -25.486  0.00  0.00    +0.182 C 
ENDBRANCH   2   7
BRANCH   5  14
ATOM     11  F   UNL     1      35.079 -15.210 -23.428  0.00  0.00    -0.166 F 
ATOM     12  F   UNL     1      34.949 -15.340 -21.267  0.00  0.00    -0.166 F 
ATOM     13  F   UNL     1      33.357 -16.159 -22.500  0.00  0.00    -0.166 F 
ATOM     14  C   UNL     1      34.203 -15.095 -22.385  0.00  0.00    +0.419 C 
ENDBRANCH   5  14
BRANCH   1  16
ATOM     15  O   UNL     1      30.382  -9.958 -22.891  0.00  0.00    -0.286 OA
ATOM     16  C   UNL     1      31.413 -10.085 -22.215  0.00  0.00    +0.201 C 
BRANCH  16  20
ATOM     17  O   UNL     1      32.439  -6.990 -20.649  0.00  0.00    -0.358 OA
ATOM     18  N   UNL     1      32.669  -7.857 -19.589  0.00  0.00    -0.076 NA
ATOM     19  C   UNL     1      31.962  -7.693 -21.708  0.00  0.00    +0.157 C 
ATOM     20  C   UNL     1      31.884  -8.985 -21.351  0.00  0.00    +0.094 C 
ATOM     21  C   UNL     1      32.322  -9.063 -20.047  0.00  0.00    +0.147 C 
BRANCH  19  22
ATOM     22  C   UNL     1      31.596  -7.070 -23.058  0.00  0.00    +0.060 C 
ATOM     23  C   UNL     1      31.630  -5.574 -23.203  0.00  0.00    +0.008 C 
ATOM     24  C   UNL     1      32.676  -6.414 -23.875  0.00  0.00    +0.008 C 
ENDBRANCH  19  22
ENDBRANCH  16  20
ENDBRANCH   1  16
TORSDOF 5
ENDMDL
MODEL 9
REMARK VINA RESULT:      -7.8      2.952      4.038
REMARK  Name = 84098
REMARK  5 active torsions:
REMARK  status: ('A' for Active; 'I' for Inactive)
REMARK    1  A    between atoms: C_1  and  C_16
REMARK    2  A    between atoms: C_2  and  S_7
REMARK    3  A    between atoms: C_5  and  C_14
REMARK    4  A    between atoms: C_16  and  C_20
REMARK    5  A    between atoms: C_19  and  C_22
REMARK                            x       y       z     vdW  Elec       q    Type
REMARK                         _______ _______ _______ _____ _____    ______ ____
ROOT
ATOM      1  C   UNL     1      34.591 -16.759 -22.642  0.00  0.00    +0.056 C 
ATOM      2  C   UNL     1      34.018 -16.053 -23.700  0.00  0.00    +0.109 C 
ATOM      3  C   UNL     1      34.499 -16.264 -21.341  0.00  0.00    +0.004 C 
ATOM      4  C   UNL     1      33.351 -14.852 -23.456  0.00  0.00    +0.022 C 
ATOM      5  C   UNL     1      33.259 -14.357 -22.156  0.00  0.00    +0.073 C 
ATOM      6  C   UNL     1      33.833 -15.063 -21.098  0.00  0.00    +0.004 C 
ENDROOT
BRANCH   2   7
ATOM      7  S   UNL     1      34.111 -16.644 -25.346  0.00  0.00    +0.011 S 
ATOM      8  O   UNL     1      35.468 -16.423 -25.820  0.00  0.00    -0.169 OA
ATOM      9  O   UNL     1      33.533 -17.978 -25.396  0.00  0.00    -0.169 OA
ATOM     10  C   UNL     1      33.027 -15.571 -26.257  0.00  0.00    +0.182 C 
ENDBRANCH   2   7
BRANCH   5  14
ATOM     11  F   UNL     1      31.298 -13.019 -22.449  0.00  0.00    -0.166 F 
ATOM     12  F   UNL     1      32.358 -12.811 -20.568  0.00  0.00    -0.166 F 
ATOM     13  F   UNL     1      33.214 -11.991 -22.392  0.00  0.00    -0.166 F 
ATOM     14  C   UNL     1      32.546 -13.073 -21.896  0.00  0.00    +0.419 C 
ENDBRANCH   5  14
BRANCH   1  16
ATOM     15  O   UNL     1      35.515 -18.383 -24.019  0.00  0.00    -0.286 OA
ATOM     16  C   UNL     1      35.294 -18.018 -22.856  0.00  0.00    +0.201 C 
BRANCH  16  20
ATOM     17  O   UNL     1      35.752 -20.254 -20.050  0.00  0.00    -0.358 OA
ATOM     18  N   UNL     1      37.039 -19.738 -20.129  0.00  0.00    -0.076 NA
ATOM     19  C   UNL     1      34.984 -19.695 -21.019  0.00  0.00    +0.157 C 
ATOM     20  C   UNL     1      35.747 -18.835 -21.713  0.00  0.00    +0.094 C 
ATOM     21  C   UNL     1      37.004 -18.878 -21.151  0.00  0.00    +0.147 C 
BRANCH  19  22
ATOM     22  C   UNL     1      33.504 -20.021 -21.237  0.00  0.00    +0.060 C 
ATOM     23  C   UNL     1      32.739 -20.705 -20.139  0.00  0.00    +0.008 C 
ATOM     24  C   UNL     1      32.467 -19.263 -20.454  0.00  0.00    +0.008 C 
ENDBRANCH  19  22
ENDBRANCH  16  20
ENDBRANCH   1  16
TORSDOF 5
ENDMDL
