MODEL 1
REMARK VINA RESULT:      -7.4      0.000      0.000
REMARK  Name = 66261
REMARK  10 active torsions:
REMARK  status: ('A' for Active; 'I' for Inactive)
REMARK    1  A    between atoms: C_1  and  C_2
REMARK    2  A    between atoms: C_1  and  C_4
REMARK    3  A    between atoms: C_1  and  C_9
REMARK    4  A    between atoms: C_1  and  C_14
REMARK    5  A    between atoms: C_4  and  O_5
REMARK    6  A    between atoms: O_5  and  N_8
REMARK    7  A    between atoms: C_9  and  O_10
REMARK    8  A    between atoms: O_10  and  N_13
REMARK    9  A    between atoms: C_14  and  O_15
REMARK   10  A    between atoms: O_15  and  N_18
REMARK                            x       y       z     vdW  Elec       q    Type
REMARK                         _______ _______ _______ _____ _____    ______ ____
ROOT
ATOM      1  C   UNL     1      36.774 -23.699 -14.524  0.00  0.00    +0.130 C 
ENDROOT
BRANCH   1   2
ATOM      2  C   UNL     1      36.233 -22.610 -15.500  0.00  0.00    +0.011 C 
ATOM      3  C   UNL     1      37.212 -22.133 -16.566  0.00  0.00    +0.000 C 
ENDBRANCH   1   2
BRANCH   1   4
ATOM      4  C   UNL     1      35.882 -24.964 -14.541  0.00  0.00    +0.250 C 
BRANCH   4   5
ATOM      5  O   UNL     1      36.059 -25.698 -15.746  0.00  0.00    -0.336 OA
BRANCH   5   8
ATOM      6  O   UNL     1      36.722 -27.633 -16.594  0.00  0.00    -0.090 OA
ATOM      7  O   UNL     1      36.901 -27.320 -14.394  0.00  0.00    -0.090 OA
ATOM      8  N   UNL     1      36.610 -26.995 -15.546  0.00  0.00    +0.218 N 
ENDBRANCH   5   8
ENDBRANCH   4   5
ENDBRANCH   1   4
BRANCH   1   9
ATOM      9  C   UNL     1      36.830 -23.190 -13.061  0.00  0.00    +0.250 C 
BRANCH   9  10
ATOM     10  O   UNL     1      35.743 -23.673 -12.282  0.00  0.00    -0.336 OA
BRANCH  10  13
ATOM     11  O   UNL     1      37.362 -24.295 -10.906  0.00  0.00    -0.090 OA
ATOM     12  O   UNL     1      35.277 -24.947 -10.457  0.00  0.00    -0.090 OA
ATOM     13  N   UNL     1      36.150 -24.369 -11.110  0.00  0.00    +0.218 N 
ENDBRANCH  10  13
ENDBRANCH   9  10
ENDBRANCH   1   9
BRANCH   1  14
ATOM     14  C   UNL     1      38.206 -24.056 -15.012  0.00  0.00    +0.250 C 
BRANCH  14  15
ATOM     15  O   UNL     1      38.950 -24.706 -13.989  0.00  0.00    -0.336 OA
BRANCH  15  18
ATOM     16  O   UNL     1      39.953 -26.560 -14.664  0.00  0.00    -0.090 OA
ATOM     17  O   UNL     1      41.133 -24.668 -14.620  0.00  0.00    -0.090 OA
ATOM     18  N   UNL     1      40.122 -25.356 -14.466  0.00  0.00    +0.218 N 
ENDBRANCH  15  18
ENDBRANCH  14  15
ENDBRANCH   1  14
TORSDOF 10
ENDMDL
MODEL 2
REMARK VINA RESULT:      -7.4      2.231      3.626
REMARK  Name = 66261
REMARK  10 active torsions:
REMARK  status: ('A' for Active; 'I' for Inactive)
REMARK    1  A    between atoms: C_1  and  C_2
REMARK    2  A    between atoms: C_1  and  C_4
REMARK    3  A    between atoms: C_1  and  C_9
REMARK    4  A    between atoms: C_1  and  C_14
REMARK    5  A    between atoms: C_4  and  O_5
REMARK    6  A    between atoms: O_5  and  N_8
REMARK    7  A    between atoms: C_9  and  O_10
REMARK    8  A    between atoms: O_10  and  N_13
REMARK    9  A    between atoms: C_14  and  O_15
REMARK   10  A    between atoms: O_15  and  N_18
REMARK                            x       y       z     vdW  Elec       q    Type
REMARK                         _______ _______ _______ _____ _____    ______ ____
ROOT
ATOM      1  C   UNL     1      37.561 -24.422 -14.064  0.00  0.00    +0.130 C 
ENDROOT
BRANCH   1   2
ATOM      2  C   UNL     1      36.507 -25.503 -14.455  0.00  0.00    +0.011 C 
ATOM      3  C   UNL     1      37.068 -26.877 -14.803  0.00  0.00    +0.000 C 
ENDBRANCH   1   2
BRANCH   1   4
ATOM      4  C   UNL     1      38.808 -25.063 -13.407  0.00  0.00    +0.250 C 
BRANCH   4   5
ATOM      5  O   UNL     1      39.982 -24.781 -14.157  0.00  0.00    -0.336 OA
BRANCH   5   8
ATOM      6  O   UNL     1      41.090 -26.666 -13.804  0.00  0.00    -0.090 OA
ATOM      7  O   UNL     1      40.616 -26.090 -15.905  0.00  0.00    -0.090 OA
ATOM      8  N   UNL     1      40.615 -25.943 -14.682  0.00  0.00    +0.218 N 
ENDBRANCH   5   8
ENDBRANCH   4   5
ENDBRANCH   1   4
BRANCH   1   9
ATOM      9  C   UNL     1      36.987 -23.389 -13.061  0.00  0.00    +0.250 C 
BRANCH   9  10
ATOM     10  O   UNL     1      35.797 -23.851 -12.435  0.00  0.00    -0.336 OA
BRANCH  10  13
ATOM     11  O   UNL     1      36.957 -23.765 -10.551  0.00  0.00    -0.090 OA
ATOM     12  O   UNL     1      35.217 -25.157 -10.667  0.00  0.00    -0.090 OA
ATOM     13  N   UNL     1      35.996 -24.306 -11.102  0.00  0.00    +0.218 N 
ENDBRANCH  10  13
ENDBRANCH   9  10
ENDBRANCH   1   9
BRANCH   1  14
ATOM     14  C   UNL     1      37.968 -23.706 -15.382  0.00  0.00    +0.250 C 
BRANCH  14  15
ATOM     15  O   UNL     1      37.542 -22.349 -15.382  0.00  0.00    -0.336 OA
BRANCH  15  18
ATOM     16  O   UNL     1      35.944 -22.773 -16.854  0.00  0.00    -0.090 OA
ATOM     17  O   UNL     1      37.183 -20.939 -17.129  0.00  0.00    -0.090 OA
ATOM     18  N   UNL     1      36.836 -21.976 -16.560  0.00  0.00    +0.218 N 
ENDBRANCH  15  18
ENDBRANCH  14  15
ENDBRANCH   1  14
TORSDOF 10
ENDMDL
MODEL 3
REMARK VINA RESULT:      -7.3      2.237      4.190
REMARK  Name = 66261
REMARK  10 active torsions:
REMARK  status: ('A' for Active; 'I' for Inactive)
REMARK    1  A    between atoms: C_1  and  C_2
REMARK    2  A    between atoms: C_1  and  C_4
REMARK    3  A    between atoms: C_1  and  C_9
REMARK    4  A    between atoms: C_1  and  C_14
REMARK    5  A    between atoms: C_4  and  O_5
REMARK    6  A    between atoms: O_5  and  N_8
REMARK    7  A    between atoms: C_9  and  O_10
REMARK    8  A    between atoms: O_10  and  N_13
REMARK    9  A    between atoms: C_14  and  O_15
REMARK   10  A    between atoms: O_15  and  N_18
REMARK                            x       y       z     vdW  Elec       q    Type
REMARK                         _______ _______ _______ _____ _____    ______ ____
ROOT
ATOM      1  C   UNL     1      37.314 -24.500 -14.033  0.00  0.00    +0.130 C 
ENDROOT
BRANCH   1   2
ATOM      2  C   UNL     1      36.282 -25.582 -14.472  0.00  0.00    +0.011 C 
ATOM      3  C   UNL     1      36.853 -26.769 -15.239  0.00  0.00    +0.000 C 
ENDBRANCH   1   2
BRANCH   1   4
ATOM      4  C   UNL     1      37.616 -24.592 -12.517  0.00  0.00    +0.250 C 
BRANCH   4   5
ATOM      5  O   UNL     1      36.586 -25.293 -11.833  0.00  0.00    -0.336 OA
BRANCH   5   8
ATOM      6  O   UNL     1      36.122 -24.280  -9.919  0.00  0.00    -0.090 OA
ATOM      7  O   UNL     1      34.731 -23.993 -11.637  0.00  0.00    -0.090 OA
ATOM      8  N   UNL     1      35.729 -24.446 -11.075  0.00  0.00    +0.218 N 
ENDBRANCH   5   8
ENDBRANCH   4   5
ENDBRANCH   1   4
BRANCH   1   9
ATOM      9  C   UNL     1      36.807 -23.063 -14.320  0.00  0.00    +0.250 C 
BRANCH   9  10
ATOM     10  O   UNL     1      37.563 -22.419 -15.337  0.00  0.00    -0.336 OA
BRANCH  10  13
ATOM     11  O   UNL     1      37.168 -21.030 -17.015  0.00  0.00    -0.090 OA
ATOM     12  O   UNL     1      35.882 -22.841 -16.808  0.00  0.00    -0.090 OA
ATOM     13  N   UNL     1      36.796 -22.079 -16.486  0.00  0.00    +0.218 N 
ENDBRANCH  10  13
ENDBRANCH   9  10
ENDBRANCH   1   9
BRANCH   1  14
ATOM     14  C   UNL     1      38.611 -24.772 -14.847  0.00  0.00    +0.250 C 
BRANCH  14  15
ATOM     15  O   UNL     1      39.682 -25.155 -13.992  0.00  0.00    -0.336 OA
BRANCH  15  18
ATOM     16  O   UNL     1      41.197 -26.753 -13.773  0.00  0.00    -0.090 OA
ATOM     17  O   UNL     1      40.664 -26.069 -15.827  0.00  0.00    -0.090 OA
ATOM     18  N   UNL     1      40.590 -26.067 -14.596  0.00  0.00    +0.218 N 
ENDBRANCH  15  18
ENDBRANCH  14  15
ENDBRANCH   1  14
TORSDOF 10
ENDMDL
MODEL 4
REMARK VINA RESULT:      -7.3      2.197      4.498
REMARK  Name = 66261
REMARK  10 active torsions:
REMARK  status: ('A' for Active; 'I' for Inactive)
REMARK    1  A    between atoms: C_1  and  C_2
REMARK    2  A    between atoms: C_1  and  C_4
REMARK    3  A    between atoms: C_1  and  C_9
REMARK    4  A    between atoms: C_1  and  C_14
REMARK    5  A    between atoms: C_4  and  O_5
REMARK    6  A    between atoms: O_5  and  N_8
REMARK    7  A    between atoms: C_9  and  O_10
REMARK    8  A    between atoms: O_10  and  N_13
REMARK    9  A    between atoms: C_14  and  O_15
REMARK   10  A    between atoms: O_15  and  N_18
REMARK                            x       y       z     vdW  Elec       q    Type
REMARK                         _______ _______ _______ _____ _____    ______ ____
ROOT
ATOM      1  C   UNL     1      34.937 -23.988 -14.366  0.00  0.00    +0.130 C 
ENDROOT
BRANCH   1   2
ATOM      2  C   UNL     1      33.429 -24.195 -14.028  0.00  0.00    +0.011 C 
ATOM      3  C   UNL     1      32.465 -23.206 -14.671  0.00  0.00    +0.000 C 
ENDBRANCH   1   2
BRANCH   1   4
ATOM      4  C   UNL     1      35.760 -23.664 -13.094  0.00  0.00    +0.250 C 
BRANCH   4   5
ATOM      5  O   UNL     1      35.050 -24.032 -11.919  0.00  0.00    -0.336 OA
BRANCH   5   8
ATOM      6  O   UNL     1      35.262 -24.550  -9.776  0.00  0.00    -0.090 OA
ATOM      7  O   UNL     1      37.111 -24.237 -10.982  0.00  0.00    -0.090 OA
ATOM      8  N   UNL     1      35.893 -24.294 -10.803  0.00  0.00    +0.218 N 
ENDBRANCH   5   8
ENDBRANCH   4   5
ENDBRANCH   1   4
BRANCH   1   9
ATOM      9  C   UNL     1      35.153 -22.825 -15.367  0.00  0.00    +0.250 C 
BRANCH   9  10
ATOM     10  O   UNL     1      36.107 -23.150 -16.370  0.00  0.00    -0.336 OA
BRANCH  10  13
ATOM     11  O   UNL     1      38.212 -23.171 -15.684  0.00  0.00    -0.090 OA
ATOM     12  O   UNL     1      37.415 -21.307 -16.614  0.00  0.00    -0.090 OA
ATOM     13  N   UNL     1      37.348 -22.472 -16.216  0.00  0.00    +0.218 N 
ENDBRANCH  10  13
ENDBRANCH   9  10
ENDBRANCH   1   9
BRANCH   1  14
ATOM     14  C   UNL     1      35.436 -25.321 -14.991  0.00  0.00    +0.250 C 
BRANCH  14  15
ATOM     15  O   UNL     1      36.591 -25.804 -14.316  0.00  0.00    -0.336 OA
BRANCH  15  18
ATOM     16  O   UNL     1      36.701 -27.190 -16.038  0.00  0.00    -0.090 OA
ATOM     17  O   UNL     1      38.458 -27.050 -14.672  0.00  0.00    -0.090 OA
ATOM     18  N   UNL     1      37.325 -26.764 -15.066  0.00  0.00    +0.218 N 
ENDBRANCH  15  18
ENDBRANCH  14  15
ENDBRANCH   1  14
TORSDOF 10
ENDMDL
MODEL 5
REMARK VINA RESULT:      -7.3      2.240      2.858
REMARK  Name = 66261
REMARK  10 active torsions:
REMARK  status: ('A' for Active; 'I' for Inactive)
REMARK    1  A    between atoms: C_1  and  C_2
REMARK    2  A    between atoms: C_1  and  C_4
REMARK    3  A    between atoms: C_1  and  C_9
REMARK    4  A    between atoms: C_1  and  C_14
REMARK    5  A    between atoms: C_4  and  O_5
REMARK    6  A    between atoms: O_5  and  N_8
REMARK    7  A    between atoms: C_9  and  O_10
REMARK    8  A    between atoms: O_10  and  N_13
REMARK    9  A    between atoms: C_14  and  O_15
REMARK   10  A    between atoms: O_15  and  N_18
REMARK                            x       y       z     vdW  Elec       q    Type
REMARK                         _______ _______ _______ _____ _____    ______ ____
ROOT
ATOM      1  C   UNL     1      34.981 -23.976 -14.322  0.00  0.00    +0.130 C 
ENDROOT
BRANCH   1   2
ATOM      2  C   UNL     1      33.459 -24.065 -13.998  0.00  0.00    +0.011 C 
ATOM      3  C   UNL     1      32.549 -23.193 -14.856  0.00  0.00    +0.000 C 
ENDBRANCH   1   2
BRANCH   1   4
ATOM      4  C   UNL     1      35.489 -25.272 -15.000  0.00  0.00    +0.250 C 
BRANCH   4   5
ATOM      5  O   UNL     1      36.585 -25.828 -14.285  0.00  0.00    -0.336 OA
BRANCH   5   8
ATOM      6  O   UNL     1      36.720 -27.185 -16.029  0.00  0.00    -0.090 OA
ATOM      7  O   UNL     1      38.440 -27.099 -14.613  0.00  0.00    -0.090 OA
ATOM      8  N   UNL     1      37.324 -26.787 -15.032  0.00  0.00    +0.218 N 
ENDBRANCH   5   8
ENDBRANCH   4   5
ENDBRANCH   1   4
BRANCH   1   9
ATOM      9  C   UNL     1      35.834 -23.753 -13.047  0.00  0.00    +0.250 C 
BRANCH   9  10
ATOM     10  O   UNL     1      35.073 -23.918 -11.857  0.00  0.00    -0.336 OA
BRANCH  10  13
ATOM     11  O   UNL     1      37.070 -24.148 -10.929  0.00  0.00    -0.090 OA
ATOM     12  O   UNL     1      35.268 -24.611  -9.700  0.00  0.00    -0.090 OA
ATOM     13  N   UNL     1      35.861 -24.258 -10.722  0.00  0.00    +0.218 N 
ENDBRANCH  10  13
ENDBRANCH   9  10
ENDBRANCH   1   9
BRANCH   1  14
ATOM     14  C   UNL     1      35.156 -22.771 -15.290  0.00  0.00    +0.250 C 
BRANCH  14  15
ATOM     15  O   UNL     1      36.022 -23.102 -16.369  0.00  0.00    -0.336 OA
BRANCH  15  18
ATOM     16  O   UNL     1      38.154 -23.046 -15.776  0.00  0.00    -0.090 OA
ATOM     17  O   UNL     1      37.302 -21.286 -16.848  0.00  0.00    -0.090 OA
ATOM     18  N   UNL     1      37.262 -22.406 -16.335  0.00  0.00    +0.218 N 
ENDBRANCH  15  18
ENDBRANCH  14  15
ENDBRANCH   1  14
TORSDOF 10
ENDMDL
MODEL 6
REMARK VINA RESULT:      -7.2      2.200      4.841
REMARK  Name = 66261
REMARK  10 active torsions:
REMARK  status: ('A' for Active; 'I' for Inactive)
REMARK    1  A    between atoms: C_1  and  C_2
REMARK    2  A    between atoms: C_1  and  C_4
REMARK    3  A    between atoms: C_1  and  C_9
REMARK    4  A    between atoms: C_1  and  C_14
REMARK    5  A    between atoms: C_4  and  O_5
REMARK    6  A    between atoms: O_5  and  N_8
REMARK    7  A    between atoms: C_9  and  O_10
REMARK    8  A    between atoms: O_10  and  N_13
REMARK    9  A    between atoms: C_14  and  O_15
REMARK   10  A    between atoms: O_15  and  N_18
REMARK                            x       y       z     vdW  Elec       q    Type
REMARK                         _______ _______ _______ _____ _____    ______ ____
ROOT
ATOM      1  C   UNL     1      37.230 -24.904 -13.916  0.00  0.00    +0.130 C 
ENDROOT
BRANCH   1   2
ATOM      2  C   UNL     1      36.735 -25.801 -15.091  0.00  0.00    +0.011 C 
ATOM      3  C   UNL     1      37.126 -27.271 -15.011  0.00  0.00    +0.000 C 
ENDBRANCH   1   2
BRANCH   1   4
ATOM      4  C   UNL     1      37.494 -23.453 -14.387  0.00  0.00    +0.250 C 
BRANCH   4   5
ATOM      5  O   UNL     1      37.697 -23.401 -15.793  0.00  0.00    -0.336 OA
BRANCH   5   8
ATOM      6  O   UNL     1      35.789 -22.894 -16.794  0.00  0.00    -0.090 OA
ATOM      7  O   UNL     1      37.339 -21.305 -16.596  0.00  0.00    -0.090 OA
ATOM      8  N   UNL     1      36.881 -22.439 -16.450  0.00  0.00    +0.218 N 
ENDBRANCH   5   8
ENDBRANCH   4   5
ENDBRANCH   1   4
BRANCH   1   9
ATOM      9  C   UNL     1      38.546 -25.438 -13.294  0.00  0.00    +0.250 C 
BRANCH   9  10
ATOM     10  O   UNL     1      39.698 -24.915 -13.943  0.00  0.00    -0.336 OA
BRANCH  10  13
ATOM     11  O   UNL     1      40.434 -25.836 -15.817  0.00  0.00    -0.090 OA
ATOM     12  O   UNL     1      41.107 -26.698 -13.873  0.00  0.00    -0.090 OA
ATOM     13  N   UNL     1      40.486 -25.908 -14.588  0.00  0.00    +0.218 N 
ENDBRANCH  10  13
ENDBRANCH   9  10
ENDBRANCH   1   9
BRANCH   1  14
ATOM     14  C   UNL     1      36.101 -24.915 -12.848  0.00  0.00    +0.250 C 
BRANCH  14  15
ATOM     15  O   UNL     1      36.628 -25.133 -11.545  0.00  0.00    -0.336 OA
BRANCH  15  18
ATOM     16  O   UNL     1      35.438 -24.365  -9.844  0.00  0.00    -0.090 OA
ATOM     17  O   UNL     1      36.998 -23.042 -10.732  0.00  0.00    -0.090 OA
ATOM     18  N   UNL     1      36.339 -24.080 -10.633  0.00  0.00    +0.218 N 
ENDBRANCH  15  18
ENDBRANCH  14  15
ENDBRANCH   1  14
TORSDOF 10
ENDMDL
MODEL 7
REMARK VINA RESULT:      -6.9      2.404      4.938
REMARK  Name = 66261
REMARK  10 active torsions:
REMARK  status: ('A' for Active; 'I' for Inactive)
REMARK    1  A    between atoms: C_1  and  C_2
REMARK    2  A    between atoms: C_1  and  C_4
REMARK    3  A    between atoms: C_1  and  C_9
REMARK    4  A    between atoms: C_1  and  C_14
REMARK    5  A    between atoms: C_4  and  O_5
REMARK    6  A    between atoms: O_5  and  N_8
REMARK    7  A    between atoms: C_9  and  O_10
REMARK    8  A    between atoms: O_10  and  N_13
REMARK    9  A    between atoms: C_14  and  O_15
REMARK   10  A    between atoms: O_15  and  N_18
REMARK                            x       y       z     vdW  Elec       q    Type
REMARK                         _______ _______ _______ _____ _____    ______ ____
ROOT
ATOM      1  C   UNL     1      36.175 -23.719 -14.946  0.00  0.00    +0.130 C 
ENDROOT
BRANCH   1   2
ATOM      2  C   UNL     1      37.420 -23.167 -15.706  0.00  0.00    +0.011 C 
ATOM      3  C   UNL     1      37.215 -21.846 -16.437  0.00  0.00    +0.000 C 
ENDBRANCH   1   2
BRANCH   1   4
ATOM      4  C   UNL     1      36.236 -23.373 -13.438  0.00  0.00    +0.250 C 
BRANCH   4   5
ATOM      5  O   UNL     1      37.539 -22.946 -13.065  0.00  0.00    -0.336 OA
BRANCH   5   8
ATOM      6  O   UNL     1      39.168 -23.216 -11.590  0.00  0.00    -0.090 OA
ATOM      7  O   UNL     1      37.286 -24.379 -11.318  0.00  0.00    -0.090 OA
ATOM      8  N   UNL     1      38.028 -23.576 -11.886  0.00  0.00    +0.218 N 
ENDBRANCH   5   8
ENDBRANCH   4   5
ENDBRANCH   1   4
BRANCH   1   9
ATOM      9  C   UNL     1      36.059 -25.261 -15.065  0.00  0.00    +0.250 C 
BRANCH   9  10
ATOM     10  O   UNL     1      37.301 -25.868 -15.400  0.00  0.00    -0.336 OA
BRANCH  10  13
ATOM     11  O   UNL     1      39.202 -26.293 -14.347  0.00  0.00    -0.090 OA
ATOM     12  O   UNL     1      37.293 -26.966 -13.409  0.00  0.00    -0.090 OA
ATOM     13  N   UNL     1      37.979 -26.428 -14.281  0.00  0.00    +0.218 N 
ENDBRANCH  10  13
ENDBRANCH   9  10
ENDBRANCH   1   9
BRANCH   1  14
ATOM     14  C   UNL     1      34.931 -23.047 -15.592  0.00  0.00    +0.250 C 
BRANCH  14  15
ATOM     15  O   UNL     1      34.403 -23.847 -16.644  0.00  0.00    -0.336 OA
BRANCH  15  18
ATOM     16  O   UNL     1      34.533 -22.810 -18.595  0.00  0.00    -0.090 OA
ATOM     17  O   UNL     1      32.580 -22.810 -17.520  0.00  0.00    -0.090 OA
ATOM     18  N   UNL     1      33.771 -23.090 -17.669  0.00  0.00    +0.218 N 
ENDBRANCH  15  18
ENDBRANCH  14  15
ENDBRANCH   1  14
TORSDOF 10
ENDMDL
MODEL 8
REMARK VINA RESULT:      -6.9      2.602      5.766
REMARK  Name = 66261
REMARK  10 active torsions:
REMARK  status: ('A' for Active; 'I' for Inactive)
REMARK    1  A    between atoms: C_1  and  C_2
REMARK    2  A    between atoms: C_1  and  C_4
REMARK    3  A    between atoms: C_1  and  C_9
REMARK    4  A    between atoms: C_1  and  C_14
REMARK    5  A    between atoms: C_4  and  O_5
REMARK    6  A    between atoms: O_5  and  N_8
REMARK    7  A    between atoms: C_9  and  O_10
REMARK    8  A    between atoms: O_10  and  N_13
REMARK    9  A    between atoms: C_14  and  O_15
REMARK   10  A    between atoms: O_15  and  N_18
REMARK                            x       y       z     vdW  Elec       q    Type
REMARK                         _______ _______ _______ _____ _____    ______ ____
ROOT
ATOM      1  C   UNL     1      34.882 -23.866 -14.251  0.00  0.00    +0.130 C 
ENDROOT
BRANCH   1   2
ATOM      2  C   UNL     1      35.130 -22.781 -15.343  0.00  0.00    +0.011 C 
ATOM      3  C   UNL     1      34.489 -23.050 -16.699  0.00  0.00    +0.000 C 
ENDBRANCH   1   2
BRANCH   1   4
ATOM      4  C   UNL     1      35.684 -23.561 -12.962  0.00  0.00    +0.250 C 
BRANCH   4   5
ATOM      5  O   UNL     1      35.050 -24.124 -11.821  0.00  0.00    -0.336 OA
BRANCH   5   8
ATOM      6  O   UNL     1      35.318 -24.559  -9.666  0.00  0.00    -0.090 OA
ATOM      7  O   UNL     1      37.123 -24.097 -10.889  0.00  0.00    -0.090 OA
ATOM      8  N   UNL     1      35.918 -24.270 -10.703  0.00  0.00    +0.218 N 
ENDBRANCH   5   8
ENDBRANCH   4   5
ENDBRANCH   1   4
BRANCH   1   9
ATOM      9  C   UNL     1      35.297 -25.280 -14.733  0.00  0.00    +0.250 C 
BRANCH   9  10
ATOM     10  O   UNL     1      36.701 -25.390 -14.927  0.00  0.00    -0.336 OA
BRANCH  10  13
ATOM     11  O   UNL     1      36.471 -27.205 -16.175  0.00  0.00    -0.090 OA
ATOM     12  O   UNL     1      38.066 -27.182 -14.616  0.00  0.00    -0.090 OA
ATOM     13  N   UNL     1      37.127 -26.707 -15.258  0.00  0.00    +0.218 N 
ENDBRANCH  10  13
ENDBRANCH   9  10
ENDBRANCH   1   9
BRANCH   1  14
ATOM     14  C   UNL     1      33.358 -23.841 -13.943  0.00  0.00    +0.250 C 
BRANCH  14  15
ATOM     15  O   UNL     1      32.773 -25.122 -14.143  0.00  0.00    -0.336 OA
BRANCH  15  18
ATOM     16  O   UNL     1      31.052 -24.579 -12.863  0.00  0.00    -0.090 OA
ATOM     17  O   UNL     1      30.662 -25.714 -14.742  0.00  0.00    -0.090 OA
ATOM     18  N   UNL     1      31.371 -25.148 -13.907  0.00  0.00    +0.218 N 
ENDBRANCH  15  18
ENDBRANCH  14  15
ENDBRANCH   1  14
TORSDOF 10
ENDMDL
MODEL 9
REMARK VINA RESULT:      -6.8      9.283     10.725
REMARK  Name = 66261
REMARK  10 active torsions:
REMARK  status: ('A' for Active; 'I' for Inactive)
REMARK    1  A    between atoms: C_1  and  C_2
REMARK    2  A    between atoms: C_1  and  C_4
REMARK    3  A    between atoms: C_1  and  C_9
REMARK    4  A    between atoms: C_1  and  C_14
REMARK    5  A    between atoms: C_4  and  O_5
REMARK    6  A    between atoms: O_5  and  N_8
REMARK    7  A    between atoms: C_9  and  O_10
REMARK    8  A    between atoms: O_10  and  N_13
REMARK    9  A    between atoms: C_14  and  O_15
REMARK   10  A    between atoms: O_15  and  N_18
REMARK                            x       y       z     vdW  Elec       q    Type
REMARK                         _______ _______ _______ _____ _____    ______ ____
ROOT
ATOM      1  C   UNL     1      34.922 -19.205 -21.612  0.00  0.00    +0.130 C 
ENDROOT
BRANCH   1   2
ATOM      2  C   UNL     1      33.514 -19.020 -20.968  0.00  0.00    +0.011 C 
ATOM      3  C   UNL     1      32.877 -20.282 -20.397  0.00  0.00    +0.000 C 
ENDBRANCH   1   2
BRANCH   1   4
ATOM      4  C   UNL     1      34.817 -19.420 -23.142  0.00  0.00    +0.250 C 
BRANCH   4   5
ATOM      5  O   UNL     1      35.355 -18.312 -23.852  0.00  0.00    -0.336 OA
BRANCH   5   8
ATOM      6  O   UNL     1      33.708 -18.770 -25.259  0.00  0.00    -0.090 OA
ATOM      7  O   UNL     1      34.969 -16.974 -25.649  0.00  0.00    -0.090 OA
ATOM      8  N   UNL     1      34.621 -17.978 -25.025  0.00  0.00    +0.218 N 
ENDBRANCH   5   8
ENDBRANCH   4   5
ENDBRANCH   1   4
BRANCH   1   9
ATOM      9  C   UNL     1      35.674 -20.425 -21.022  0.00  0.00    +0.250 C 
BRANCH   9  10
ATOM     10  O   UNL     1      36.336 -20.109 -19.803  0.00  0.00    -0.336 OA
BRANCH  10  13
ATOM     11  O   UNL     1      35.708 -22.161 -19.259  0.00  0.00    -0.090 OA
ATOM     12  O   UNL     1      36.934 -21.002 -17.800  0.00  0.00    -0.090 OA
ATOM     13  N   UNL     1      36.334 -21.177 -18.863  0.00  0.00    +0.218 N 
ENDBRANCH  10  13
ENDBRANCH   9  10
ENDBRANCH   1   9
BRANCH   1  14
ATOM     14  C   UNL     1      35.716 -17.902 -21.316  0.00  0.00    +0.250 C 
BRANCH  14  15
ATOM     15  O   UNL     1      34.949 -17.002 -20.525  0.00  0.00    -0.336 OA
BRANCH  15  18
ATOM     16  O   UNL     1      34.928 -14.800 -20.299  0.00  0.00    -0.090 OA
ATOM     17  O   UNL     1      34.569 -15.665 -22.323  0.00  0.00    -0.090 OA
ATOM     18  N   UNL     1      34.800 -15.716 -21.113  0.00  0.00    +0.218 N 
ENDBRANCH  15  18
ENDBRANCH  14  15
ENDBRANCH   1  14
TORSDOF 10
ENDMDL
