MODEL 1
REMARK VINA RESULT:      -9.1      0.000      0.000
REMARK  Name = 24822371
REMARK  12 active torsions:
REMARK  status: ('A' for Active; 'I' for Inactive)
REMARK    1  A    between atoms: C_2  and  C_8
REMARK    2  A    between atoms: C_3  and  O_18
REMARK    3  A    between atoms: C_7  and  C_9
REMARK    4  A    between atoms: C_10  and  N_15
REMARK    5  A    between atoms: O_18  and  C_19
REMARK    6  A    between atoms: C_19  and  C_20
REMARK    7  A    between atoms: C_20  and  O_21
REMARK    8  A    between atoms: O_21  and  C_22
REMARK    9  A    between atoms: C_22  and  C_23
REMARK   10  A    between atoms: C_23  and  O_24
REMARK   11  A    between atoms: O_24  and  C_25
REMARK   12  A    between atoms: C_25  and  C_27
REMARK                            x       y       z     vdW  Elec       q    Type
REMARK                         _______ _______ _______ _____ _____    ______ ____
ROOT
ATOM      1  N   UNL     1      33.022 -21.880 -19.459  0.00  0.00    -0.210 NA
ATOM      2  C   UNL     1      34.197 -20.122 -20.631  0.00  0.00    +0.019 C 
ATOM      3  C   UNL     1      34.227 -22.390 -19.115  0.00  0.00    +0.225 C 
ATOM      4  C   UNL     1      35.415 -20.676 -20.257  0.00  0.00    +0.006 C 
ATOM      5  C   UNL     1      35.439 -21.832 -19.484  0.00  0.00    +0.058 C 
ATOM      6  C   UNL     1      33.039 -20.756 -20.211  0.00  0.00    +0.102 C 
ENDROOT
BRANCH   2   8
ATOM      7  C   UNL     1      34.300 -17.637 -20.982  0.00  0.00    +0.000 C 
ATOM      8  C   UNL     1      34.138 -18.898 -21.450  0.00  0.00    +0.002 C 
BRANCH   7   9
ATOM      9  C   UNL     1      34.261 -16.430 -21.793  0.00  0.00    +0.000 C 
ATOM     10  C   UNL     1      34.183 -14.115 -23.348  0.00  0.00    +0.045 C 
ATOM     11  C   UNL     1      33.875 -15.219 -21.221  0.00  0.00    +0.001 C 
ATOM     12  C   UNL     1      34.608 -16.485 -23.143  0.00  0.00    +0.001 C 
ATOM     13  C   UNL     1      33.837 -14.061 -21.999  0.00  0.00    +0.014 C 
ATOM     14  C   UNL     1      34.569 -15.328 -23.920  0.00  0.00    +0.014 C 
BRANCH  10  15
ATOM     15  N   UNL     1      34.144 -12.946 -24.134  0.00  0.00    -0.331 N 
ATOM     16  C   UNL     1      33.447 -11.762 -23.731  0.00  0.00    +0.109 C 
ATOM     17  H   UNL     1      34.617 -12.942 -24.998  0.00  0.00    +0.147 HD
ENDBRANCH  10  15
ENDBRANCH   7   9
ENDBRANCH   2   8
BRANCH   3  18
ATOM     18  O   UNL     1      34.223 -23.528 -18.352  0.00  0.00    -0.457 OA
BRANCH  18  19
ATOM     19  C   UNL     1      33.472 -23.488 -17.145  0.00  0.00    +0.239 C 
BRANCH  19  20
ATOM     20  C   UNL     1      34.402 -23.167 -15.992  0.00  0.00    +0.189 C 
BRANCH  20  21
ATOM     21  O   UNL     1      35.546 -24.010 -16.070  0.00  0.00    -0.347 OA
BRANCH  21  22
ATOM     22  C   UNL     1      36.008 -24.382 -14.778  0.00  0.00    +0.174 C 
BRANCH  22  23
ATOM     23  C   UNL     1      37.155 -23.473 -14.383  0.00  0.00    +0.174 C 
BRANCH  23  24
ATOM     24  O   UNL     1      38.341 -23.914 -15.034  0.00  0.00    -0.348 OA
BRANCH  24  25
ATOM     25  C   UNL     1      38.786 -25.160 -14.517  0.00  0.00    +0.180 C 
BRANCH  25  27
ATOM     26  F   UNL     1      40.764 -26.360 -14.205  0.00  0.00    -0.232 F 
ATOM     27  C   UNL     1      40.198 -25.411 -14.999  0.00  0.00    +0.225 C 
ENDBRANCH  25  27
ENDBRANCH  24  25
ENDBRANCH  23  24
ENDBRANCH  22  23
ENDBRANCH  21  22
ENDBRANCH  20  21
ENDBRANCH  19  20
ENDBRANCH  18  19
ENDBRANCH   3  18
TORSDOF 12
ENDMDL
MODEL 2
REMARK VINA RESULT:      -8.9      1.644      2.127
REMARK  Name = 24822371
REMARK  12 active torsions:
REMARK  status: ('A' for Active; 'I' for Inactive)
REMARK    1  A    between atoms: C_2  and  C_8
REMARK    2  A    between atoms: C_3  and  O_18
REMARK    3  A    between atoms: C_7  and  C_9
REMARK    4  A    between atoms: C_10  and  N_15
REMARK    5  A    between atoms: O_18  and  C_19
REMARK    6  A    between atoms: C_19  and  C_20
REMARK    7  A    between atoms: C_20  and  O_21
REMARK    8  A    between atoms: O_21  and  C_22
REMARK    9  A    between atoms: C_22  and  C_23
REMARK   10  A    between atoms: C_23  and  O_24
REMARK   11  A    between atoms: O_24  and  C_25
REMARK   12  A    between atoms: C_25  and  C_27
REMARK                            x       y       z     vdW  Elec       q    Type
REMARK                         _______ _______ _______ _____ _____    ______ ____
ROOT
ATOM      1  N   UNL     1      35.816 -21.823 -18.861  0.00  0.00    -0.210 NA
ATOM      2  C   UNL     1      34.226 -20.629 -20.235  0.00  0.00    +0.019 C 
ATOM      3  C   UNL     1      34.768 -22.440 -18.269  0.00  0.00    +0.225 C 
ATOM      4  C   UNL     1      33.175 -21.284 -19.603  0.00  0.00    +0.006 C 
ATOM      5  C   UNL     1      33.443 -22.209 -18.600  0.00  0.00    +0.058 C 
ATOM      6  C   UNL     1      35.516 -20.930 -19.831  0.00  0.00    +0.102 C 
ENDROOT
BRANCH   2   8
ATOM      7  C   UNL     1      34.920 -18.867 -21.886  0.00  0.00    +0.000 C 
ATOM      8  C   UNL     1      33.975 -19.643 -21.302  0.00  0.00    +0.002 C 
BRANCH   7   9
ATOM      9  C   UNL     1      34.676 -17.909 -22.953  0.00  0.00    +0.000 C 
ATOM     10  C   UNL     1      34.204 -16.070 -24.997  0.00  0.00    +0.045 C 
ATOM     11  C   UNL     1      34.515 -16.557 -22.650  0.00  0.00    +0.001 C 
ATOM     12  C   UNL     1      34.600 -18.342 -24.276  0.00  0.00    +0.001 C 
ATOM     13  C   UNL     1      34.279 -15.637 -23.673  0.00  0.00    +0.014 C 
ATOM     14  C   UNL     1      34.365 -17.423 -25.298  0.00  0.00    +0.014 C 
BRANCH  10  15
ATOM     15  N   UNL     1      33.965 -15.140 -26.029  0.00  0.00    -0.331 N 
ATOM     16  C   UNL     1      32.664 -14.905 -26.578  0.00  0.00    +0.109 C 
ATOM     17  H   UNL     1      34.727 -14.630 -26.389  0.00  0.00    +0.147 HD
ENDBRANCH  10  15
ENDBRANCH   7   9
ENDBRANCH   2   8
BRANCH   3  18
ATOM     18  O   UNL     1      35.059 -23.348 -17.284  0.00  0.00    -0.457 OA
BRANCH  18  19
ATOM     19  C   UNL     1      34.089 -23.513 -16.257  0.00  0.00    +0.239 C 
BRANCH  19  20
ATOM     20  C   UNL     1      34.737 -24.198 -15.070  0.00  0.00    +0.189 C 
BRANCH  20  21
ATOM     21  O   UNL     1      35.987 -24.743 -15.473  0.00  0.00    -0.347 OA
BRANCH  21  22
ATOM     22  C   UNL     1      36.642 -25.398 -14.396  0.00  0.00    +0.174 C 
BRANCH  22  23
ATOM     23  C   UNL     1      37.043 -26.793 -14.836  0.00  0.00    +0.174 C 
BRANCH  23  24
ATOM     24  O   UNL     1      38.458 -26.917 -14.750  0.00  0.00    -0.348 OA
BRANCH  24  25
ATOM     25  C   UNL     1      39.028 -25.861 -13.990  0.00  0.00    +0.180 C 
BRANCH  25  27
ATOM     26  F   UNL     1      41.127 -26.773 -14.452  0.00  0.00    -0.232 F 
ATOM     27  C   UNL     1      40.432 -25.603 -14.491  0.00  0.00    +0.225 C 
ENDBRANCH  25  27
ENDBRANCH  24  25
ENDBRANCH  23  24
ENDBRANCH  22  23
ENDBRANCH  21  22
ENDBRANCH  20  21
ENDBRANCH  19  20
ENDBRANCH  18  19
ENDBRANCH   3  18
TORSDOF 12
ENDMDL
MODEL 3
REMARK VINA RESULT:      -8.9      1.513      1.919
REMARK  Name = 24822371
REMARK  12 active torsions:
REMARK  status: ('A' for Active; 'I' for Inactive)
REMARK    1  A    between atoms: C_2  and  C_8
REMARK    2  A    between atoms: C_3  and  O_18
REMARK    3  A    between atoms: C_7  and  C_9
REMARK    4  A    between atoms: C_10  and  N_15
REMARK    5  A    between atoms: O_18  and  C_19
REMARK    6  A    between atoms: C_19  and  C_20
REMARK    7  A    between atoms: C_20  and  O_21
REMARK    8  A    between atoms: O_21  and  C_22
REMARK    9  A    between atoms: C_22  and  C_23
REMARK   10  A    between atoms: C_23  and  O_24
REMARK   11  A    between atoms: O_24  and  C_25
REMARK   12  A    between atoms: C_25  and  C_27
REMARK                            x       y       z     vdW  Elec       q    Type
REMARK                         _______ _______ _______ _____ _____    ______ ____
ROOT
ATOM      1  N   UNL     1      32.969 -21.757 -19.480  0.00  0.00    -0.210 NA
ATOM      2  C   UNL     1      34.290 -20.048 -20.566  0.00  0.00    +0.019 C 
ATOM      3  C   UNL     1      34.126 -22.332 -19.084  0.00  0.00    +0.225 C 
ATOM      4  C   UNL     1      35.458 -20.669 -20.139  0.00  0.00    +0.006 C 
ATOM      5  C   UNL     1      35.383 -21.834 -19.383  0.00  0.00    +0.058 C 
ATOM      6  C   UNL     1      33.081 -20.626 -20.214  0.00  0.00    +0.102 C 
ENDROOT
BRANCH   2   8
ATOM      7  C   UNL     1      33.910 -17.595 -20.952  0.00  0.00    +0.000 C 
ATOM      8  C   UNL     1      34.335 -18.812 -21.368  0.00  0.00    +0.002 C 
BRANCH   7   9
ATOM      9  C   UNL     1      33.973 -16.372 -21.736  0.00  0.00    +0.000 C 
ATOM     10  C   UNL     1      34.098 -14.026 -23.241  0.00  0.00    +0.045 C 
ATOM     11  C   UNL     1      34.530 -16.392 -23.014  0.00  0.00    +0.001 C 
ATOM     12  C   UNL     1      33.479 -15.179 -21.210  0.00  0.00    +0.001 C 
ATOM     13  C   UNL     1      34.593 -15.219 -23.767  0.00  0.00    +0.014 C 
ATOM     14  C   UNL     1      33.541 -14.006 -21.961  0.00  0.00    +0.014 C 
BRANCH  10  15
ATOM     15  N   UNL     1      34.162 -12.841 -24.001  0.00  0.00    -0.331 N 
ATOM     16  C   UNL     1      33.307 -11.718 -23.762  0.00  0.00    +0.109 C 
ATOM     17  H   UNL     1      34.823 -12.782 -24.728  0.00  0.00    +0.147 HD
ENDBRANCH  10  15
ENDBRANCH   7   9
ENDBRANCH   2   8
BRANCH   3  18
ATOM     18  O   UNL     1      34.025 -23.478 -18.339  0.00  0.00    -0.457 OA
BRANCH  18  19
ATOM     19  C   UNL     1      33.311 -23.385 -17.113  0.00  0.00    +0.239 C 
BRANCH  19  20
ATOM     20  C   UNL     1      34.299 -23.394 -15.962  0.00  0.00    +0.189 C 
BRANCH  20  21
ATOM     21  O   UNL     1      35.103 -24.564 -16.051  0.00  0.00    -0.347 OA
BRANCH  21  22
ATOM     22  C   UNL     1      36.082 -24.602 -15.021  0.00  0.00    +0.174 C 
BRANCH  22  23
ATOM     23  C   UNL     1      37.108 -23.515 -15.275  0.00  0.00    +0.174 C 
BRANCH  23  24
ATOM     24  O   UNL     1      37.603 -23.044 -14.027  0.00  0.00    -0.348 OA
BRANCH  24  25
ATOM     25  C   UNL     1      36.670 -23.267 -12.979  0.00  0.00    +0.180 C 
BRANCH  25  27
ATOM     26  F   UNL     1      36.546 -23.952 -10.750  0.00  0.00    -0.232 F 
ATOM     27  C   UNL     1      37.430 -23.541 -11.700  0.00  0.00    +0.225 C 
ENDBRANCH  25  27
ENDBRANCH  24  25
ENDBRANCH  23  24
ENDBRANCH  22  23
ENDBRANCH  21  22
ENDBRANCH  20  21
ENDBRANCH  19  20
ENDBRANCH  18  19
ENDBRANCH   3  18
TORSDOF 12
ENDMDL
MODEL 4
REMARK VINA RESULT:      -8.9      6.603     12.063
REMARK  Name = 24822371
REMARK  12 active torsions:
REMARK  status: ('A' for Active; 'I' for Inactive)
REMARK    1  A    between atoms: C_2  and  C_8
REMARK    2  A    between atoms: C_3  and  O_18
REMARK    3  A    between atoms: C_7  and  C_9
REMARK    4  A    between atoms: C_10  and  N_15
REMARK    5  A    between atoms: O_18  and  C_19
REMARK    6  A    between atoms: C_19  and  C_20
REMARK    7  A    between atoms: C_20  and  O_21
REMARK    8  A    between atoms: O_21  and  C_22
REMARK    9  A    between atoms: C_22  and  C_23
REMARK   10  A    between atoms: C_23  and  O_24
REMARK   11  A    between atoms: O_24  and  C_25
REMARK   12  A    between atoms: C_25  and  C_27
REMARK                            x       y       z     vdW  Elec       q    Type
REMARK                         _______ _______ _______ _____ _____    ______ ____
ROOT
ATOM      1  N   UNL     1      34.707 -16.078 -23.921  0.00  0.00    -0.210 NA
ATOM      2  C   UNL     1      34.915 -18.269 -22.921  0.00  0.00    +0.019 C 
ATOM      3  C   UNL     1      34.440 -16.692 -25.096  0.00  0.00    +0.225 C 
ATOM      4  C   UNL     1      34.637 -18.863 -24.147  0.00  0.00    +0.006 C 
ATOM      5  C   UNL     1      34.393 -18.066 -25.260  0.00  0.00    +0.058 C 
ATOM      6  C   UNL     1      34.940 -16.885 -22.861  0.00  0.00    +0.102 C 
ENDROOT
BRANCH   2   8
ATOM      7  C   UNL     1      34.331 -20.009 -21.207  0.00  0.00    +0.000 C 
ATOM      8  C   UNL     1      35.177 -19.085 -21.723  0.00  0.00    +0.002 C 
BRANCH   7   9
ATOM      9  C   UNL     1      34.598 -20.829 -20.035  0.00  0.00    +0.000 C 
ATOM     10  C   UNL     1      35.113 -22.404 -17.791  0.00  0.00    +0.045 C 
ATOM     11  C   UNL     1      35.891 -20.902 -19.517  0.00  0.00    +0.001 C 
ATOM     12  C   UNL     1      33.563 -21.543 -19.432  0.00  0.00    +0.001 C 
ATOM     13  C   UNL     1      36.148 -21.690 -18.394  0.00  0.00    +0.014 C 
ATOM     14  C   UNL     1      33.820 -22.330 -18.310  0.00  0.00    +0.014 C 
BRANCH  10  15
ATOM     15  N   UNL     1      35.374 -23.200 -16.657  0.00  0.00    -0.331 N 
ATOM     16  C   UNL     1      36.592 -23.114 -15.911  0.00  0.00    +0.109 C 
ATOM     17  H   UNL     1      34.687 -23.843 -16.365  0.00  0.00    +0.147 HD
ENDBRANCH  10  15
ENDBRANCH   7   9
ENDBRANCH   2   8
BRANCH   3  18
ATOM     18  O   UNL     1      34.203 -15.885 -26.178  0.00  0.00    -0.457 OA
BRANCH  18  19
ATOM     19  C   UNL     1      32.934 -15.243 -26.232  0.00  0.00    +0.239 C 
BRANCH  19  20
ATOM     20  C   UNL     1      33.139 -13.760 -26.470  0.00  0.00    +0.189 C 
BRANCH  20  21
ATOM     21  O   UNL     1      33.363 -13.116 -25.221  0.00  0.00    -0.347 OA
BRANCH  21  22
ATOM     22  C   UNL     1      33.815 -11.781 -25.397  0.00  0.00    +0.174 C 
BRANCH  22  23
ATOM     23  C   UNL     1      34.069 -11.161 -24.037  0.00  0.00    +0.174 C 
BRANCH  23  24
ATOM     24  O   UNL     1      33.744  -9.777 -24.090  0.00  0.00    -0.348 OA
BRANCH  24  25
ATOM     25  C   UNL     1      34.911  -8.968 -24.080  0.00  0.00    +0.180 C 
BRANCH  25  27
ATOM     26  F   UNL     1      34.923  -6.654 -24.390  0.00  0.00    -0.232 F 
ATOM     27  C   UNL     1      34.562  -7.616 -23.498  0.00  0.00    +0.225 C 
ENDBRANCH  25  27
ENDBRANCH  24  25
ENDBRANCH  23  24
ENDBRANCH  22  23
ENDBRANCH  21  22
ENDBRANCH  20  21
ENDBRANCH  19  20
ENDBRANCH  18  19
ENDBRANCH   3  18
TORSDOF 12
ENDMDL
MODEL 5
REMARK VINA RESULT:      -8.8      2.278      3.350
REMARK  Name = 24822371
REMARK  12 active torsions:
REMARK  status: ('A' for Active; 'I' for Inactive)
REMARK    1  A    between atoms: C_2  and  C_8
REMARK    2  A    between atoms: C_3  and  O_18
REMARK    3  A    between atoms: C_7  and  C_9
REMARK    4  A    between atoms: C_10  and  N_15
REMARK    5  A    between atoms: O_18  and  C_19
REMARK    6  A    between atoms: C_19  and  C_20
REMARK    7  A    between atoms: C_20  and  O_21
REMARK    8  A    between atoms: O_21  and  C_22
REMARK    9  A    between atoms: C_22  and  C_23
REMARK   10  A    between atoms: C_23  and  O_24
REMARK   11  A    between atoms: O_24  and  C_25
REMARK   12  A    between atoms: C_25  and  C_27
REMARK                            x       y       z     vdW  Elec       q    Type
REMARK                         _______ _______ _______ _____ _____    ______ ____
ROOT
ATOM      1  N   UNL     1      35.633 -22.428 -17.962  0.00  0.00    -0.210 NA
ATOM      2  C   UNL     1      34.185 -21.269 -19.512  0.00  0.00    +0.019 C 
ATOM      3  C   UNL     1      34.530 -23.018 -17.447  0.00  0.00    +0.225 C 
ATOM      4  C   UNL     1      33.076 -21.896 -18.956  0.00  0.00    +0.006 C 
ATOM      5  C   UNL     1      33.243 -22.789 -17.904  0.00  0.00    +0.058 C 
ATOM      6  C   UNL     1      35.431 -21.565 -18.983  0.00  0.00    +0.102 C 
ENDROOT
BRANCH   2   8
ATOM      7  C   UNL     1      35.062 -19.669 -21.238  0.00  0.00    +0.000 C 
ATOM      8  C   UNL     1      34.041 -20.317 -20.628  0.00  0.00    +0.002 C 
BRANCH   7   9
ATOM      9  C   UNL     1      34.922 -18.745 -22.353  0.00  0.00    +0.000 C 
ATOM     10  C   UNL     1      34.656 -16.975 -24.493  0.00  0.00    +0.045 C 
ATOM     11  C   UNL     1      34.729 -19.236 -23.644  0.00  0.00    +0.001 C 
ATOM     12  C   UNL     1      34.982 -17.370 -22.132  0.00  0.00    +0.001 C 
ATOM     13  C   UNL     1      34.596 -18.350 -24.714  0.00  0.00    +0.014 C 
ATOM     14  C   UNL     1      34.849 -16.484 -23.201  0.00  0.00    +0.014 C 
BRANCH  10  15
ATOM     15  N   UNL     1      34.522 -16.081 -25.574  0.00  0.00    -0.331 N 
ATOM     16  C   UNL     1      33.338 -15.308 -25.801  0.00  0.00    +0.109 C 
ATOM     17  H   UNL     1      35.275 -15.982 -26.201  0.00  0.00    +0.147 HD
ENDBRANCH  10  15
ENDBRANCH   7   9
ENDBRANCH   2   8
BRANCH   3  18
ATOM     18  O   UNL     1      34.723 -23.895 -16.412  0.00  0.00    -0.457 OA
BRANCH  18  19
ATOM     19  C   UNL     1      35.865 -23.679 -15.593  0.00  0.00    +0.239 C 
BRANCH  19  20
ATOM     20  C   UNL     1      36.191 -24.960 -14.850  0.00  0.00    +0.189 C 
BRANCH  20  21
ATOM     21  O   UNL     1      37.604 -25.114 -14.789  0.00  0.00    -0.347 OA
BRANCH  21  22
ATOM     22  C   UNL     1      38.009 -25.728 -13.572  0.00  0.00    +0.174 C 
BRANCH  22  23
ATOM     23  C   UNL     1      38.603 -24.672 -12.660  0.00  0.00    +0.174 C 
BRANCH  23  24
ATOM     24  O   UNL     1      37.784 -24.544 -11.504  0.00  0.00    -0.348 OA
BRANCH  24  25
ATOM     25  C   UNL     1      37.018 -23.349 -11.538  0.00  0.00    +0.180 C 
BRANCH  25  27
ATOM     26  F   UNL     1      35.394 -24.940 -11.006  0.00  0.00    -0.232 F 
ATOM     27  C   UNL     1      35.550 -23.712 -11.571  0.00  0.00    +0.225 C 
ENDBRANCH  25  27
ENDBRANCH  24  25
ENDBRANCH  23  24
ENDBRANCH  22  23
ENDBRANCH  21  22
ENDBRANCH  20  21
ENDBRANCH  19  20
ENDBRANCH  18  19
ENDBRANCH   3  18
TORSDOF 12
ENDMDL
MODEL 6
REMARK VINA RESULT:      -8.8      5.220     10.234
REMARK  Name = 24822371
REMARK  12 active torsions:
REMARK  status: ('A' for Active; 'I' for Inactive)
REMARK    1  A    between atoms: C_2  and  C_8
REMARK    2  A    between atoms: C_3  and  O_18
REMARK    3  A    between atoms: C_7  and  C_9
REMARK    4  A    between atoms: C_10  and  N_15
REMARK    5  A    between atoms: O_18  and  C_19
REMARK    6  A    between atoms: C_19  and  C_20
REMARK    7  A    between atoms: C_20  and  O_21
REMARK    8  A    between atoms: O_21  and  C_22
REMARK    9  A    between atoms: C_22  and  C_23
REMARK   10  A    between atoms: C_23  and  O_24
REMARK   11  A    between atoms: O_24  and  C_25
REMARK   12  A    between atoms: C_25  and  C_27
REMARK                            x       y       z     vdW  Elec       q    Type
REMARK                         _______ _______ _______ _____ _____    ______ ____
ROOT
ATOM      1  N   UNL     1      35.061 -16.245 -23.959  0.00  0.00    -0.210 NA
ATOM      2  C   UNL     1      35.093 -18.380 -22.827  0.00  0.00    +0.019 C 
ATOM      3  C   UNL     1      34.566 -16.882 -25.044  0.00  0.00    +0.225 C 
ATOM      4  C   UNL     1      34.583 -18.999 -23.962  0.00  0.00    +0.006 C 
ATOM      5  C   UNL     1      34.311 -18.242 -25.097  0.00  0.00    +0.058 C 
ATOM      6  C   UNL     1      35.314 -17.013 -22.876  0.00  0.00    +0.102 C 
ENDROOT
BRANCH   2   8
ATOM      7  C   UNL     1      34.613 -20.138 -21.098  0.00  0.00    +0.000 C 
ATOM      8  C   UNL     1      35.392 -19.154 -21.609  0.00  0.00    +0.002 C 
BRANCH   7   9
ATOM      9  C   UNL     1      34.917 -20.916 -19.907  0.00  0.00    +0.000 C 
ATOM     10  C   UNL     1      35.503 -22.409 -17.625  0.00  0.00    +0.045 C 
ATOM     11  C   UNL     1      36.209 -20.910 -19.384  0.00  0.00    +0.001 C 
ATOM     12  C   UNL     1      33.918 -21.668 -19.291  0.00  0.00    +0.001 C 
ATOM     13  C   UNL     1      36.502 -21.657 -18.242  0.00  0.00    +0.014 C 
ATOM     14  C   UNL     1      34.210 -22.414 -18.150  0.00  0.00    +0.014 C 
BRANCH  10  15
ATOM     15  N   UNL     1      35.799 -23.164 -16.472  0.00  0.00    -0.331 N 
ATOM     16  C   UNL     1      34.915 -23.248 -15.350  0.00  0.00    +0.109 C 
ATOM     17  H   UNL     1      36.652 -23.655 -16.436  0.00  0.00    +0.147 HD
ENDBRANCH  10  15
ENDBRANCH   7   9
ENDBRANCH   2   8
BRANCH   3  18
ATOM     18  O   UNL     1      34.305 -16.113 -26.149  0.00  0.00    -0.457 OA
BRANCH  18  19
ATOM     19  C   UNL     1      33.052 -15.443 -26.182  0.00  0.00    +0.239 C 
BRANCH  19  20
ATOM     20  C   UNL     1      33.291 -13.949 -26.283  0.00  0.00    +0.189 C 
BRANCH  20  21
ATOM     21  O   UNL     1      33.534 -13.428 -24.982  0.00  0.00    -0.347 OA
BRANCH  21  22
ATOM     22  C   UNL     1      32.483 -13.760 -24.084  0.00  0.00    +0.174 C 
BRANCH  22  23
ATOM     23  C   UNL     1      33.057 -13.921 -22.690  0.00  0.00    +0.174 C 
BRANCH  23  24
ATOM     24  O   UNL     1      32.093 -14.560 -21.862  0.00  0.00    -0.348 OA
BRANCH  24  25
ATOM     25  C   UNL     1      32.705 -15.222 -20.765  0.00  0.00    +0.180 C 
BRANCH  25  27
ATOM     26  F   UNL     1      34.846 -15.660 -19.943  0.00  0.00    -0.232 F 
ATOM     27  C   UNL     1      34.129 -14.731 -20.632  0.00  0.00    +0.225 C 
ENDBRANCH  25  27
ENDBRANCH  24  25
ENDBRANCH  23  24
ENDBRANCH  22  23
ENDBRANCH  21  22
ENDBRANCH  20  21
ENDBRANCH  19  20
ENDBRANCH  18  19
ENDBRANCH   3  18
TORSDOF 12
ENDMDL
MODEL 7
REMARK VINA RESULT:      -8.8      3.436      4.926
REMARK  Name = 24822371
REMARK  12 active torsions:
REMARK  status: ('A' for Active; 'I' for Inactive)
REMARK    1  A    between atoms: C_2  and  C_8
REMARK    2  A    between atoms: C_3  and  O_18
REMARK    3  A    between atoms: C_7  and  C_9
REMARK    4  A    between atoms: C_10  and  N_15
REMARK    5  A    between atoms: O_18  and  C_19
REMARK    6  A    between atoms: C_19  and  C_20
REMARK    7  A    between atoms: C_20  and  O_21
REMARK    8  A    between atoms: O_21  and  C_22
REMARK    9  A    between atoms: C_22  and  C_23
REMARK   10  A    between atoms: C_23  and  O_24
REMARK   11  A    between atoms: O_24  and  C_25
REMARK   12  A    between atoms: C_25  and  C_27
REMARK                            x       y       z     vdW  Elec       q    Type
REMARK                         _______ _______ _______ _____ _____    ______ ____
ROOT
ATOM      1  N   UNL     1      35.680 -22.335 -17.996  0.00  0.00    -0.210 NA
ATOM      2  C   UNL     1      34.183 -21.248 -19.551  0.00  0.00    +0.019 C 
ATOM      3  C   UNL     1      34.603 -22.963 -17.472  0.00  0.00    +0.225 C 
ATOM      4  C   UNL     1      33.101 -21.913 -18.986  0.00  0.00    +0.006 C 
ATOM      5  C   UNL     1      33.307 -22.789 -17.926  0.00  0.00    +0.058 C 
ATOM      6  C   UNL     1      35.441 -21.490 -19.024  0.00  0.00    +0.102 C 
ENDROOT
BRANCH   2   8
ATOM      7  C   UNL     1      34.986 -19.606 -21.274  0.00  0.00    +0.000 C 
ATOM      8  C   UNL     1      33.998 -20.312 -20.675  0.00  0.00    +0.002 C 
BRANCH   7   9
ATOM      9  C   UNL     1      34.807 -18.698 -22.396  0.00  0.00    +0.000 C 
ATOM     10  C   UNL     1      34.466 -16.958 -24.550  0.00  0.00    +0.045 C 
ATOM     11  C   UNL     1      34.748 -19.201 -23.695  0.00  0.00    +0.001 C 
ATOM     12  C   UNL     1      34.695 -17.326 -22.173  0.00  0.00    +0.001 C 
ATOM     13  C   UNL     1      34.577 -18.330 -24.773  0.00  0.00    +0.014 C 
ATOM     14  C   UNL     1      34.525 -16.456 -23.249  0.00  0.00    +0.014 C 
BRANCH  10  15
ATOM     15  N   UNL     1      34.294 -16.079 -25.638  0.00  0.00    -0.331 N 
ATOM     16  C   UNL     1      33.313 -15.037 -25.648  0.00  0.00    +0.109 C 
ATOM     17  H   UNL     1      34.874 -16.186 -26.427  0.00  0.00    +0.147 HD
ENDBRANCH  10  15
ENDBRANCH   7   9
ENDBRANCH   2   8
BRANCH   3  18
ATOM     18  O   UNL     1      34.833 -23.823 -16.430  0.00  0.00    -0.457 OA
BRANCH  18  19
ATOM     19  C   UNL     1      34.742 -23.281 -15.119  0.00  0.00    +0.239 C 
BRANCH  19  20
ATOM     20  C   UNL     1      34.438 -24.397 -14.140  0.00  0.00    +0.189 C 
BRANCH  20  21
ATOM     21  O   UNL     1      33.497 -23.931 -13.181  0.00  0.00    -0.347 OA
BRANCH  21  22
ATOM     22  C   UNL     1      32.217 -23.724 -13.765  0.00  0.00    +0.174 C 
BRANCH  22  23
ATOM     23  C   UNL     1      31.483 -25.048 -13.829  0.00  0.00    +0.174 C 
BRANCH  23  24
ATOM     24  O   UNL     1      30.638 -25.056 -14.973  0.00  0.00    -0.348 OA
BRANCH  24  25
ATOM     25  C   UNL     1      30.602 -23.782 -15.602  0.00  0.00    +0.180 C 
BRANCH  25  27
ATOM     26  F   UNL     1      28.515 -24.724 -16.057  0.00  0.00    -0.232 F 
ATOM     27  C   UNL     1      29.233 -23.578 -16.213  0.00  0.00    +0.225 C 
ENDBRANCH  25  27
ENDBRANCH  24  25
ENDBRANCH  23  24
ENDBRANCH  22  23
ENDBRANCH  21  22
ENDBRANCH  20  21
ENDBRANCH  19  20
ENDBRANCH  18  19
ENDBRANCH   3  18
TORSDOF 12
ENDMDL
MODEL 8
REMARK VINA RESULT:      -8.7      4.696     10.768
REMARK  Name = 24822371
REMARK  12 active torsions:
REMARK  status: ('A' for Active; 'I' for Inactive)
REMARK    1  A    between atoms: C_2  and  C_8
REMARK    2  A    between atoms: C_3  and  O_18
REMARK    3  A    between atoms: C_7  and  C_9
REMARK    4  A    between atoms: C_10  and  N_15
REMARK    5  A    between atoms: O_18  and  C_19
REMARK    6  A    between atoms: C_19  and  C_20
REMARK    7  A    between atoms: C_20  and  O_21
REMARK    8  A    between atoms: O_21  and  C_22
REMARK    9  A    between atoms: C_22  and  C_23
REMARK   10  A    between atoms: C_23  and  O_24
REMARK   11  A    between atoms: O_24  and  C_25
REMARK   12  A    between atoms: C_25  and  C_27
REMARK                            x       y       z     vdW  Elec       q    Type
REMARK                         _______ _______ _______ _____ _____    ______ ____
ROOT
ATOM      1  N   UNL     1      35.755 -19.725 -21.223  0.00  0.00    -0.210 NA
ATOM      2  C   UNL     1      34.729 -21.163 -19.572  0.00  0.00    +0.019 C 
ATOM      3  C   UNL     1      34.511 -19.375 -21.621  0.00  0.00    +0.225 C 
ATOM      4  C   UNL     1      33.467 -20.779 -20.010  0.00  0.00    +0.006 C 
ATOM      5  C   UNL     1      33.347 -19.867 -21.054  0.00  0.00    +0.058 C 
ATOM      6  C   UNL     1      35.832 -20.613 -20.206  0.00  0.00    +0.102 C 
ENDROOT
BRANCH   2   8
ATOM      7  C   UNL     1      35.764 -21.998 -17.441  0.00  0.00    +0.000 C 
ATOM      8  C   UNL     1      34.890 -22.126 -18.469  0.00  0.00    +0.002 C 
BRANCH   7   9
ATOM      9  C   UNL     1      35.909 -22.939 -16.342  0.00  0.00    +0.000 C 
ATOM     10  C   UNL     1      36.189 -24.746 -14.235  0.00  0.00    +0.045 C 
ATOM     11  C   UNL     1      37.164 -23.161 -15.776  0.00  0.00    +0.001 C 
ATOM     12  C   UNL     1      34.794 -23.620 -15.854  0.00  0.00    +0.001 C 
ATOM     13  C   UNL     1      37.304 -24.065 -14.722  0.00  0.00    +0.014 C 
ATOM     14  C   UNL     1      34.934 -24.524 -14.801  0.00  0.00    +0.014 C 
BRANCH  10  15
ATOM     15  N   UNL     1      36.331 -25.659 -13.170  0.00  0.00    -0.331 N 
ATOM     16  C   UNL     1      37.597 -25.976 -12.582  0.00  0.00    +0.109 C 
ATOM     17  H   UNL     1      35.524 -26.098 -12.815  0.00  0.00    +0.147 HD
ENDBRANCH  10  15
ENDBRANCH   7   9
ENDBRANCH   2   8
BRANCH   3  18
ATOM     18  O   UNL     1      34.420 -18.474 -22.650  0.00  0.00    -0.457 OA
BRANCH  18  19
ATOM     19  C   UNL     1      34.945 -18.882 -23.907  0.00  0.00    +0.239 C 
BRANCH  19  20
ATOM     20  C   UNL     1      34.497 -17.901 -24.973  0.00  0.00    +0.189 C 
BRANCH  20  21
ATOM     21  O   UNL     1      34.892 -16.589 -24.592  0.00  0.00    -0.347 OA
BRANCH  21  22
ATOM     22  C   UNL     1      33.837 -15.654 -24.772  0.00  0.00    +0.174 C 
BRANCH  22  23
ATOM     23  C   UNL     1      33.798 -14.717 -23.581  0.00  0.00    +0.174 C 
BRANCH  23  24
ATOM     24  O   UNL     1      34.873 -15.034 -22.705  0.00  0.00    -0.348 OA
BRANCH  24  25
ATOM     25  C   UNL     1      34.421 -15.222 -21.372  0.00  0.00    +0.180 C 
BRANCH  25  27
ATOM     26  F   UNL     1      32.642 -14.727 -19.943  0.00  0.00    -0.232 F 
ATOM     27  C   UNL     1      33.137 -14.446 -21.179  0.00  0.00    +0.225 C 
ENDBRANCH  25  27
ENDBRANCH  24  25
ENDBRANCH  23  24
ENDBRANCH  22  23
ENDBRANCH  21  22
ENDBRANCH  20  21
ENDBRANCH  19  20
ENDBRANCH  18  19
ENDBRANCH   3  18
TORSDOF 12
ENDMDL
MODEL 9
REMARK VINA RESULT:      -8.7      1.764      2.503
REMARK  Name = 24822371
REMARK  12 active torsions:
REMARK  status: ('A' for Active; 'I' for Inactive)
REMARK    1  A    between atoms: C_2  and  C_8
REMARK    2  A    between atoms: C_3  and  O_18
REMARK    3  A    between atoms: C_7  and  C_9
REMARK    4  A    between atoms: C_10  and  N_15
REMARK    5  A    between atoms: O_18  and  C_19
REMARK    6  A    between atoms: C_19  and  C_20
REMARK    7  A    between atoms: C_20  and  O_21
REMARK    8  A    between atoms: O_21  and  C_22
REMARK    9  A    between atoms: C_22  and  C_23
REMARK   10  A    between atoms: C_23  and  O_24
REMARK   11  A    between atoms: O_24  and  C_25
REMARK   12  A    between atoms: C_25  and  C_27
REMARK                            x       y       z     vdW  Elec       q    Type
REMARK                         _______ _______ _______ _____ _____    ______ ____
ROOT
ATOM      1  N   UNL     1      35.667 -22.240 -18.301  0.00  0.00    -0.210 NA
ATOM      2  C   UNL     1      34.148 -21.078 -19.780  0.00  0.00    +0.019 C 
ATOM      3  C   UNL     1      34.588 -22.818 -17.726  0.00  0.00    +0.225 C 
ATOM      4  C   UNL     1      33.065 -21.692 -19.163  0.00  0.00    +0.006 C 
ATOM      5  C   UNL     1      33.280 -22.580 -18.115  0.00  0.00    +0.058 C 
ATOM      6  C   UNL     1      35.418 -21.382 -19.316  0.00  0.00    +0.102 C 
ENDROOT
BRANCH   2   8
ATOM      7  C   UNL     1      34.929 -19.385 -21.463  0.00  0.00    +0.000 C 
ATOM      8  C   UNL     1      33.953 -20.132 -20.893  0.00  0.00    +0.002 C 
BRANCH   7   9
ATOM      9  C   UNL     1      34.741 -18.466 -22.575  0.00  0.00    +0.000 C 
ATOM     10  C   UNL     1      34.382 -16.705 -24.709  0.00  0.00    +0.045 C 
ATOM     11  C   UNL     1      34.614 -18.960 -23.873  0.00  0.00    +0.001 C 
ATOM     12  C   UNL     1      34.688 -17.092 -22.343  0.00  0.00    +0.001 C 
ATOM     13  C   UNL     1      34.435 -18.079 -24.940  0.00  0.00    +0.014 C 
ATOM     14  C   UNL     1      34.509 -16.211 -23.410  0.00  0.00    +0.014 C 
BRANCH  10  15
ATOM     15  N   UNL     1      34.201 -15.815 -25.787  0.00  0.00    -0.331 N 
ATOM     16  C   UNL     1      33.073 -14.940 -25.891  0.00  0.00    +0.109 C 
ATOM     17  H   UNL     1      34.881 -15.793 -26.500  0.00  0.00    +0.147 HD
ENDBRANCH  10  15
ENDBRANCH   7   9
ENDBRANCH   2   8
BRANCH   3  18
ATOM     18  O   UNL     1      34.827 -23.691 -16.697  0.00  0.00    -0.457 OA
BRANCH  18  19
ATOM     19  C   UNL     1      34.960 -23.129 -15.397  0.00  0.00    +0.239 C 
BRANCH  19  20
ATOM     20  C   UNL     1      34.228 -24.005 -14.401  0.00  0.00    +0.189 C 
BRANCH  20  21
ATOM     21  O   UNL     1      35.164 -24.528 -13.466  0.00  0.00    -0.347 OA
BRANCH  21  22
ATOM     22  C   UNL     1      36.240 -23.626 -13.247  0.00  0.00    +0.174 C 
BRANCH  22  23
ATOM     23  C   UNL     1      37.299 -24.315 -12.408  0.00  0.00    +0.174 C 
BRANCH  23  24
ATOM     24  O   UNL     1      38.577 -24.069 -12.982  0.00  0.00    -0.348 OA
BRANCH  24  25
ATOM     25  C   UNL     1      39.197 -25.275 -13.407  0.00  0.00    +0.180 C 
BRANCH  25  27
ATOM     26  F   UNL     1      40.405 -25.771 -15.342  0.00  0.00    -0.232 F 
ATOM     27  C   UNL     1      39.193 -25.318 -14.919  0.00  0.00    +0.225 C 
ENDBRANCH  25  27
ENDBRANCH  24  25
ENDBRANCH  23  24
ENDBRANCH  22  23
ENDBRANCH  21  22
ENDBRANCH  20  21
ENDBRANCH  19  20
ENDBRANCH  18  19
ENDBRANCH   3  18
TORSDOF 12
ENDMDL
