MODEL 1
REMARK VINA RESULT:      -6.5      0.000      0.000
REMARK  Name = 4696
REMARK  1 active torsions:
REMARK  status: ('A' for Active; 'I' for Inactive)
REMARK    1  A    between atoms: C_5  and  O_11
REMARK                            x       y       z     vdW  Elec       q    Type
REMARK                         _______ _______ _______ _____ _____    ______ ____
ROOT
ATOM      1  O   UNL     1      36.440 -24.820 -15.444  0.00  0.00    -0.322 OA
ATOM      2  O   UNL     1      36.422 -25.761 -11.465  0.00  0.00    -0.421 OA
ATOM      3  O   UNL     1      35.366 -24.457  -9.888  0.00  0.00    -0.244 OA
ATOM      4  C   UNL     1      36.253 -24.186 -13.142  0.00  0.00    +0.074 C 
ATOM      5  C   UNL     1      36.481 -23.707 -14.534  0.00  0.00    +0.260 C 
ATOM      6  C   UNL     1      36.673 -25.495 -12.791  0.00  0.00    +0.148 C 
ATOM      7  C   UNL     1      37.350 -25.887 -15.116  0.00  0.00    +0.174 C 
ATOM      8  C   UNL     1      37.220 -26.326 -13.683  0.00  0.00    +0.043 C 
ATOM      9  C   UNL     1      35.667 -23.625 -12.096  0.00  0.00    +0.086 C 
ATOM     10  C   UNL     1      35.782 -24.624 -11.024  0.00  0.00    +0.346 C 
ENDROOT
BRANCH   5  11
ATOM     11  O   UNL     1      37.725 -23.017 -14.596  0.00  0.00    -0.357 OA
ATOM     12  H   UNL     1      37.819 -22.448 -13.815  0.00  0.00    +0.213 HD
ENDBRANCH   5  11
TORSDOF 1
ENDMDL
MODEL 2
REMARK VINA RESULT:      -6.5     11.594     13.775
REMARK  Name = 4696
REMARK  1 active torsions:
REMARK  status: ('A' for Active; 'I' for Inactive)
REMARK    1  A    between atoms: C_5  and  O_11
REMARK                            x       y       z     vdW  Elec       q    Type
REMARK                         _______ _______ _______ _____ _____    ______ ____
ROOT
ATOM      1  O   UNL     1      34.765 -18.141 -21.545  0.00  0.00    -0.322 OA
ATOM      2  O   UNL     1      33.873 -15.208 -24.253  0.00  0.00    -0.421 OA
ATOM      3  O   UNL     1      33.568 -15.642 -26.493  0.00  0.00    -0.244 OA
ATOM      4  C   UNL     1      34.748 -17.291 -23.785  0.00  0.00    +0.074 C 
ATOM      5  C   UNL     1      35.326 -18.305 -22.859  0.00  0.00    +0.260 C 
ATOM      6  C   UNL     1      34.348 -16.035 -23.261  0.00  0.00    +0.148 C 
ATOM      7  C   UNL     1      34.906 -16.814 -21.002  0.00  0.00    +0.174 C 
ATOM      8  C   UNL     1      34.428 -15.754 -21.956  0.00  0.00    +0.043 C 
ATOM      9  C   UNL     1      34.474 -17.327 -25.080  0.00  0.00    +0.086 C 
ATOM     10  C   UNL     1      33.925 -15.997 -25.381  0.00  0.00    +0.346 C 
ENDROOT
BRANCH   5  11
ATOM     11  O   UNL     1      36.745 -18.178 -22.849  0.00  0.00    -0.357 OA
ATOM     12  H   UNL     1      37.042 -17.927 -21.960  0.00  0.00    +0.213 HD
ENDBRANCH   5  11
TORSDOF 1
ENDMDL
MODEL 3
REMARK VINA RESULT:      -6.4      8.014      9.433
REMARK  Name = 4696
REMARK  1 active torsions:
REMARK  status: ('A' for Active; 'I' for Inactive)
REMARK    1  A    between atoms: C_5  and  O_11
REMARK                            x       y       z     vdW  Elec       q    Type
REMARK                         _______ _______ _______ _____ _____    ______ ____
ROOT
ATOM      1  O   UNL     1      35.528 -18.583 -22.468  0.00  0.00    -0.322 OA
ATOM      2  O   UNL     1      34.822 -21.282 -19.478  0.00  0.00    -0.421 OA
ATOM      3  O   UNL     1      32.724 -22.117 -19.032  0.00  0.00    -0.244 OA
ATOM      4  C   UNL     1      34.059 -19.621 -20.886  0.00  0.00    +0.074 C 
ATOM      5  C   UNL     1      34.266 -18.454 -21.789  0.00  0.00    +0.260 C 
ATOM      6  C   UNL     1      35.192 -20.251 -20.311  0.00  0.00    +0.148 C 
ATOM      7  C   UNL     1      36.657 -18.757 -21.592  0.00  0.00    +0.174 C 
ATOM      8  C   UNL     1      36.439 -19.861 -20.594  0.00  0.00    +0.043 C 
ATOM      9  C   UNL     1      32.967 -20.265 -20.506  0.00  0.00    +0.086 C 
ATOM     10  C   UNL     1      33.451 -21.318 -19.601  0.00  0.00    +0.346 C 
ENDROOT
BRANCH   5  11
ATOM     11  O   UNL     1      34.193 -17.253 -21.028  0.00  0.00    -0.357 OA
ATOM     12  H   UNL     1      34.984 -16.715 -21.194  0.00  0.00    +0.213 HD
ENDBRANCH   5  11
TORSDOF 1
ENDMDL
MODEL 4
REMARK VINA RESULT:      -6.4     10.625     12.769
REMARK  Name = 4696
REMARK  1 active torsions:
REMARK  status: ('A' for Active; 'I' for Inactive)
REMARK    1  A    between atoms: C_5  and  O_11
REMARK                            x       y       z     vdW  Elec       q    Type
REMARK                         _______ _______ _______ _____ _____    ______ ____
ROOT
ATOM      1  O   UNL     1      35.621 -17.952 -20.669  0.00  0.00    -0.322 OA
ATOM      2  O   UNL     1      34.671 -18.325 -24.629  0.00  0.00    -0.421 OA
ATOM      3  O   UNL     1      34.746 -16.550 -26.094  0.00  0.00    -0.244 OA
ATOM      4  C   UNL     1      34.883 -17.011 -22.744  0.00  0.00    +0.074 C 
ATOM      5  C   UNL     1      34.970 -16.818 -21.270  0.00  0.00    +0.260 C 
ATOM      6  C   UNL     1      34.781 -18.329 -23.257  0.00  0.00    +0.148 C 
ATOM      7  C   UNL     1      35.012 -19.219 -20.982  0.00  0.00    +0.174 C 
ATOM      8  C   UNL     1      34.811 -19.403 -22.462  0.00  0.00    +0.043 C 
ATOM      9  C   UNL     1      34.918 -16.156 -23.754  0.00  0.00    +0.086 C 
ATOM     10  C   UNL     1      34.774 -16.991 -24.955  0.00  0.00    +0.346 C 
ENDROOT
BRANCH   5  11
ATOM     11  O   UNL     1      33.662 -16.616 -20.743  0.00  0.00    -0.357 OA
ATOM     12  H   UNL     1      33.033 -16.505 -21.474  0.00  0.00    +0.213 HD
ENDBRANCH   5  11
TORSDOF 1
ENDMDL
MODEL 5
REMARK VINA RESULT:      -6.4      1.820      3.822
REMARK  Name = 4696
REMARK  1 active torsions:
REMARK  status: ('A' for Active; 'I' for Inactive)
REMARK    1  A    between atoms: C_5  and  O_11
REMARK                            x       y       z     vdW  Elec       q    Type
REMARK                         _______ _______ _______ _____ _____    ______ ____
ROOT
ATOM      1  O   UNL     1      37.041 -23.556 -12.542  0.00  0.00    -0.322 OA
ATOM      2  O   UNL     1      37.966 -26.912 -14.689  0.00  0.00    -0.421 OA
ATOM      3  O   UNL     1      36.731 -27.600 -16.506  0.00  0.00    -0.244 OA
ATOM      4  C   UNL     1      36.413 -25.353 -13.996  0.00  0.00    +0.074 C 
ATOM      5  C   UNL     1      35.925 -24.294 -13.068  0.00  0.00    +0.260 C 
ATOM      6  C   UNL     1      37.688 -25.929 -13.766  0.00  0.00    +0.148 C 
ATOM      7  C   UNL     1      38.042 -24.371 -11.904  0.00  0.00    +0.174 C 
ATOM      8  C   UNL     1      38.484 -25.516 -12.775  0.00  0.00    +0.043 C 
ATOM      9  C   UNL     1      35.888 -25.885 -15.089  0.00  0.00    +0.086 C 
ATOM     10  C   UNL     1      36.874 -26.885 -15.526  0.00  0.00    +0.346 C 
ENDROOT
BRANCH   5  11
ATOM     11  O   UNL     1      35.151 -24.895 -12.034  0.00  0.00    -0.357 OA
ATOM     12  H   UNL     1      35.437 -24.550 -11.173  0.00  0.00    +0.213 HD
ENDBRANCH   5  11
TORSDOF 1
ENDMDL
MODEL 6
REMARK VINA RESULT:      -6.4      1.450      3.897
REMARK  Name = 4696
REMARK  1 active torsions:
REMARK  status: ('A' for Active; 'I' for Inactive)
REMARK    1  A    between atoms: C_5  and  O_11
REMARK                            x       y       z     vdW  Elec       q    Type
REMARK                         _______ _______ _______ _____ _____    ______ ____
ROOT
ATOM      1  O   UNL     1      36.997 -24.527 -11.224  0.00  0.00    -0.322 OA
ATOM      2  O   UNL     1      35.716 -25.527 -14.977  0.00  0.00    -0.421 OA
ATOM      3  O   UNL     1      36.631 -27.265 -16.177  0.00  0.00    -0.244 OA
ATOM      4  C   UNL     1      37.369 -25.529 -13.368  0.00  0.00    +0.074 C 
ATOM      5  C   UNL     1      38.008 -25.007 -12.128  0.00  0.00    +0.260 C 
ATOM      6  C   UNL     1      36.147 -24.956 -13.802  0.00  0.00    +0.148 C 
ATOM      7  C   UNL     1      36.111 -23.546 -11.794  0.00  0.00    +0.174 C 
ATOM      8  C   UNL     1      35.527 -23.998 -13.105  0.00  0.00    +0.043 C 
ATOM      9  C   UNL     1      37.704 -26.509 -14.193  0.00  0.00    +0.086 C 
ATOM     10  C   UNL     1      36.656 -26.503 -15.224  0.00  0.00    +0.346 C 
ENDROOT
BRANCH   5  11
ATOM     11  O   UNL     1      38.939 -23.985 -12.473  0.00  0.00    -0.357 OA
ATOM     12  H   UNL     1      38.476 -23.135 -12.542  0.00  0.00    +0.213 HD
ENDBRANCH   5  11
TORSDOF 1
ENDMDL
MODEL 7
REMARK VINA RESULT:      -6.4      1.470      2.381
REMARK  Name = 4696
REMARK  1 active torsions:
REMARK  status: ('A' for Active; 'I' for Inactive)
REMARK    1  A    between atoms: C_5  and  O_11
REMARK                            x       y       z     vdW  Elec       q    Type
REMARK                         _______ _______ _______ _____ _____    ______ ____
ROOT
ATOM      1  O   UNL     1      36.022 -24.451 -15.650  0.00  0.00    -0.322 OA
ATOM      2  O   UNL     1      34.738 -23.844 -11.815  0.00  0.00    -0.421 OA
ATOM      3  O   UNL     1      36.053 -24.298  -9.981  0.00  0.00    -0.244 OA
ATOM      4  C   UNL     1      36.127 -24.928 -13.305  0.00  0.00    +0.074 C 
ATOM      5  C   UNL     1      36.494 -25.393 -14.671  0.00  0.00    +0.260 C 
ATOM      6  C   UNL     1      34.947 -24.158 -13.138  0.00  0.00    +0.148 C 
ATOM      7  C   UNL     1      34.612 -24.169 -15.569  0.00  0.00    +0.174 C 
ATOM      8  C   UNL     1      34.185 -23.796 -14.176  0.00  0.00    +0.043 C 
ATOM      9  C   UNL     1      36.727 -25.058 -12.132  0.00  0.00    +0.086 C 
ATOM     10  C   UNL     1      35.838 -24.375 -11.181  0.00  0.00    +0.346 C 
ENDROOT
BRANCH   5  11
ATOM     11  O   UNL     1      35.956 -26.695 -14.885  0.00  0.00    -0.357 OA
ATOM     12  H   UNL     1      35.352 -26.675 -15.645  0.00  0.00    +0.213 HD
ENDBRANCH   5  11
TORSDOF 1
ENDMDL
MODEL 8
REMARK VINA RESULT:      -6.4      5.949      7.095
REMARK  Name = 4696
REMARK  1 active torsions:
REMARK  status: ('A' for Active; 'I' for Inactive)
REMARK    1  A    between atoms: C_5  and  O_11
REMARK                            x       y       z     vdW  Elec       q    Type
REMARK                         _______ _______ _______ _____ _____    ______ ____
ROOT
ATOM      1  O   UNL     1      32.276 -23.341 -13.136  0.00  0.00    -0.322 OA
ATOM      2  O   UNL     1      30.660 -22.744 -16.845  0.00  0.00    -0.421 OA
ATOM      3  O   UNL     1      28.488 -22.046 -17.153  0.00  0.00    -0.244 OA
ATOM      4  C   UNL     1      30.385 -23.201 -14.600  0.00  0.00    +0.074 C 
ATOM      5  C   UNL     1      30.882 -23.667 -13.275  0.00  0.00    +0.260 C 
ATOM      6  C   UNL     1      31.288 -23.159 -15.694  0.00  0.00    +0.148 C 
ATOM      7  C   UNL     1      33.110 -23.841 -14.198  0.00  0.00    +0.174 C 
ATOM      8  C   UNL     1      32.579 -23.477 -15.558  0.00  0.00    +0.043 C 
ATOM      9  C   UNL     1      29.205 -22.751 -14.997  0.00  0.00    +0.086 C 
ATOM     10  C   UNL     1      29.377 -22.468 -16.429  0.00  0.00    +0.346 C 
ENDROOT
BRANCH   5  11
ATOM     11  O   UNL     1      30.649 -25.066 -13.152  0.00  0.00    -0.357 OA
ATOM     12  H   UNL     1      30.156 -25.242 -12.334  0.00  0.00    +0.213 HD
ENDBRANCH   5  11
TORSDOF 1
ENDMDL
MODEL 9
REMARK VINA RESULT:      -6.3     11.868     13.713
REMARK  Name = 4696
REMARK  1 active torsions:
REMARK  status: ('A' for Active; 'I' for Inactive)
REMARK    1  A    between atoms: C_5  and  O_11
REMARK                            x       y       z     vdW  Elec       q    Type
REMARK                         _______ _______ _______ _____ _____    ______ ____
ROOT
ATOM      1  O   UNL     1      34.742 -16.406 -25.903  0.00  0.00    -0.322 OA
ATOM      2  O   UNL     1      34.048 -15.372 -22.008  0.00  0.00    -0.421 OA
ATOM      3  O   UNL     1      35.145 -16.370 -20.246  0.00  0.00    -0.244 OA
ATOM      4  C   UNL     1      34.762 -16.919 -23.563  0.00  0.00    +0.074 C 
ATOM      5  C   UNL     1      34.822 -17.475 -24.944  0.00  0.00    +0.260 C 
ATOM      6  C   UNL     1      34.032 -15.724 -23.337  0.00  0.00    +0.148 C 
ATOM      7  C   UNL     1      33.592 -15.553 -25.745  0.00  0.00    +0.174 C 
ATOM      8  C   UNL     1      33.441 -15.057 -24.334  0.00  0.00    +0.043 C 
ATOM      9  C   UNL     1      35.313 -17.310 -22.425  0.00  0.00    +0.086 C 
ATOM     10  C   UNL     1      34.852 -16.330 -21.431  0.00  0.00    +0.346 C 
ENDROOT
BRANCH   5  11
ATOM     11  O   UNL     1      33.771 -18.421 -25.116  0.00  0.00    -0.357 OA
ATOM     12  H   UNL     1      33.123 -18.075 -25.750  0.00  0.00    +0.213 HD
ENDBRANCH   5  11
TORSDOF 1
ENDMDL
