MODEL 1
REMARK VINA RESULT:     -10.1      0.000      0.000
REMARK  Name = 448677
REMARK  10 active torsions:
REMARK  status: ('A' for Active; 'I' for Inactive)
REMARK    1  A    between atoms: N_2  and  C_23
REMARK    2  A    between atoms: C_3  and  C_7
REMARK    3  A    between atoms: C_8  and  C_12
REMARK    4  A    between atoms: C_12  and  C_13
REMARK    5  A    between atoms: C_12  and  N_19
REMARK    6  A    between atoms: C_23  and  C_25
REMARK    7  A    between atoms: C_26  and  O_31
REMARK    8  A    between atoms: O_31  and  C_32
REMARK    9  A    between atoms: C_32  and  C_35
REMARK   10  A    between atoms: N_34  and  C_37
REMARK                            x       y       z     vdW  Elec       q    Type
REMARK                         _______ _______ _______ _____ _____    ______ ____
ROOT
ATOM      1  O   UNL     1      34.785 -15.281 -23.960  0.00  0.00    -0.273 OA
ATOM      2  N   UNL     1      32.658 -14.343 -24.078  0.00  0.00    -0.299 N 
ATOM      3  C   UNL     1      33.645 -15.140 -23.524  0.00  0.00    +0.241 C 
ATOM      4  H   UNL     1      31.779 -14.311 -23.636  0.00  0.00    +0.150 HD
ENDROOT
BRANCH   3   7
ATOM      5  O   UNL     1      34.276 -18.293 -23.265  0.00  0.00    -0.277 OA
ATOM      6  N   UNL     1      34.328 -16.555 -21.738  0.00  0.00    -0.275 N 
ATOM      7  C   UNL     1      33.185 -15.827 -22.274  0.00  0.00    +0.152 C 
ATOM      8  C   UNL     1      34.736 -17.779 -22.243  0.00  0.00    +0.205 C 
ATOM      9  C   UNL     1      34.845 -15.909 -20.533  0.00  0.00    +0.094 C 
ATOM     10  C   UNL     1      32.814 -14.829 -21.184  0.00  0.00    +0.031 C 
ATOM     11  C   UNL     1      34.143 -14.561 -20.481  0.00  0.00    +0.024 C 
BRANCH   8  12
ATOM     12  C   UNL     1      35.821 -18.476 -21.462  0.00  0.00    +0.013 C 
BRANCH  12  13
ATOM     13  C   UNL     1      35.360 -19.877 -21.064  0.00  0.00    -0.011 C 
ATOM     14  C   UNL     1      33.926 -19.841 -20.518  0.00  0.00    -0.002 C 
ATOM     15  C   UNL     1      36.320 -20.493 -20.039  0.00  0.00    -0.002 C 
ATOM     16  C   UNL     1      33.461 -21.222 -20.063  0.00  0.00    -0.000 C 
ATOM     17  C   UNL     1      35.852 -21.873 -19.585  0.00  0.00    -0.000 C 
ATOM     18  C   UNL     1      34.423 -21.835 -19.050  0.00  0.00    -0.000 C 
ENDBRANCH  12  13
BRANCH  12  19
ATOM     19  N   UNL     1      36.989 -18.533 -22.325  0.00  0.00    +0.387 N 
ATOM     20  H   UNL     1      37.422 -19.453 -22.250  0.00  0.00    -0.089 HD
ATOM     21  H   UNL     1      37.658 -17.818 -22.038  0.00  0.00    -0.089 HD
ATOM     22  H   UNL     1      36.708 -18.366 -23.290  0.00  0.00    -0.089 HD
ENDBRANCH  12  19
ENDBRANCH   8  12
ENDBRANCH   3   7
BRANCH   2  23
ATOM     23  C   UNL     1      32.856 -13.555 -25.274  0.00  0.00    +0.119 C 
BRANCH  23  25
ATOM     24 CL   UNL     1      36.215  -9.879 -26.768  0.00  0.00    -0.082 Cl
ATOM     25  C   UNL     1      33.532 -12.248 -24.980  0.00  0.00    +0.032 C 
ATOM     26  C   UNL     1      33.256 -11.553 -23.803  0.00  0.00    +0.137 C 
ATOM     27  C   UNL     1      34.448 -11.731 -25.896  0.00  0.00    +0.012 C 
ATOM     28  C   UNL     1      33.894 -10.339 -23.543  0.00  0.00    +0.038 C 
ATOM     29  C   UNL     1      35.086 -10.519 -25.636  0.00  0.00    +0.058 C 
ATOM     30  C   UNL     1      34.809  -9.822 -24.460  0.00  0.00    +0.014 C 
BRANCH  26  31
ATOM     31  O   UNL     1      32.364 -12.044 -22.897  0.00  0.00    -0.466 OA
BRANCH  31  32
ATOM     32  C   UNL     1      31.304 -11.178 -22.495  0.00  0.00    +0.289 C 
BRANCH  32  35
ATOM     33  O   UNL     1      31.414 -11.377 -20.096  0.00  0.00    -0.271 OA
ATOM     34  N   UNL     1      31.892  -9.327 -21.084  0.00  0.00    -0.301 N 
ATOM     35  C   UNL     1      31.536 -10.667 -21.090  0.00  0.00    +0.267 C 
ATOM     36  H   UNL     1      31.959  -8.856 -21.947  0.00  0.00    +0.150 HD
BRANCH  34  37
ATOM     37  C   UNL     1      32.169  -8.590 -19.874  0.00  0.00    +0.090 C 
ATOM     38  C   UNL     1      32.383  -7.117 -20.158  0.00  0.00    +0.023 C 
ENDBRANCH  34  37
ENDBRANCH  32  35
ENDBRANCH  31  32
ENDBRANCH  26  31
ENDBRANCH  23  25
ENDBRANCH   2  23
TORSDOF 10
ENDMDL
MODEL 2
REMARK VINA RESULT:      -9.8      5.701     11.301
REMARK  Name = 448677
REMARK  10 active torsions:
REMARK  status: ('A' for Active; 'I' for Inactive)
REMARK    1  A    between atoms: N_2  and  C_23
REMARK    2  A    between atoms: C_3  and  C_7
REMARK    3  A    between atoms: C_8  and  C_12
REMARK    4  A    between atoms: C_12  and  C_13
REMARK    5  A    between atoms: C_12  and  N_19
REMARK    6  A    between atoms: C_23  and  C_25
REMARK    7  A    between atoms: C_26  and  O_31
REMARK    8  A    between atoms: O_31  and  C_32
REMARK    9  A    between atoms: C_32  and  C_35
REMARK   10  A    between atoms: N_34  and  C_37
REMARK                            x       y       z     vdW  Elec       q    Type
REMARK                         _______ _______ _______ _____ _____    ______ ____
ROOT
ATOM      1  O   UNL     1      32.737 -20.530 -19.547  0.00  0.00    -0.273 OA
ATOM      2  N   UNL     1      33.854 -22.405 -18.737  0.00  0.00    -0.299 N 
ATOM      3  C   UNL     1      33.657 -21.341 -19.602  0.00  0.00    +0.241 C 
ATOM      4  H   UNL     1      34.632 -22.990 -18.883  0.00  0.00    +0.150 HD
ENDROOT
BRANCH   3   7
ATOM      5  O   UNL     1      33.431 -18.936 -21.740  0.00  0.00    -0.277 OA
ATOM      6  N   UNL     1      35.229 -19.883 -20.632  0.00  0.00    -0.275 N 
ATOM      7  C   UNL     1      34.730 -21.252 -20.645  0.00  0.00    +0.152 C 
ATOM      8  C   UNL     1      34.560 -18.840 -21.252  0.00  0.00    +0.205 C 
ATOM      9  C   UNL     1      36.564 -19.814 -20.042  0.00  0.00    +0.094 C 
ATOM     10  C   UNL     1      35.939 -22.108 -20.287  0.00  0.00    +0.031 C 
ATOM     11  C   UNL     1      36.784 -21.182 -19.415  0.00  0.00    +0.024 C 
BRANCH   8  12
ATOM     12  C   UNL     1      35.299 -17.527 -21.295  0.00  0.00    +0.013 C 
BRANCH  12  13
ATOM     13  C   UNL     1      35.264 -16.955 -22.711  0.00  0.00    -0.011 C 
ATOM     14  C   UNL     1      34.233 -15.824 -22.813  0.00  0.00    -0.002 C 
ATOM     15  C   UNL     1      34.969 -18.059 -23.735  0.00  0.00    -0.002 C 
ATOM     16  C   UNL     1      34.141 -15.271 -24.234  0.00  0.00    -0.000 C 
ATOM     17  C   UNL     1      34.876 -17.503 -25.154  0.00  0.00    -0.000 C 
ATOM     18  C   UNL     1      33.855 -16.373 -25.250  0.00  0.00    -0.000 C 
ENDBRANCH  12  13
BRANCH  12  19
ATOM     19  N   UNL     1      34.637 -16.640 -20.354  0.00  0.00    +0.387 N 
ATOM     20  H   UNL     1      33.629 -16.676 -20.506  0.00  0.00    -0.089 HD
ATOM     21  H   UNL     1      34.969 -15.686 -20.494  0.00  0.00    -0.089 HD
ATOM     22  H   UNL     1      34.847 -16.937 -19.401  0.00  0.00    -0.089 HD
ENDBRANCH  12  19
ENDBRANCH   8  12
ENDBRANCH   3   7
BRANCH   2  23
ATOM     23  C   UNL     1      32.972 -22.696 -17.630  0.00  0.00    +0.119 C 
BRANCH  23  25
ATOM     24 CL   UNL     1      37.562 -23.611 -15.366  0.00  0.00    -0.082 Cl
ATOM     25  C   UNL     1      33.731 -23.102 -16.399  0.00  0.00    +0.032 C 
ATOM     26  C   UNL     1      33.057 -23.419 -15.220  0.00  0.00    +0.137 C 
ATOM     27  C   UNL     1      35.124 -23.162 -16.445  0.00  0.00    +0.012 C 
ATOM     28  C   UNL     1      33.777 -23.795 -14.085  0.00  0.00    +0.038 C 
ATOM     29  C   UNL     1      35.843 -23.538 -15.311  0.00  0.00    +0.058 C 
ATOM     30  C   UNL     1      35.170 -23.854 -14.131  0.00  0.00    +0.014 C 
BRANCH  26  31
ATOM     31  O   UNL     1      31.697 -23.366 -15.159  0.00  0.00    -0.466 OA
BRANCH  31  32
ATOM     32  C   UNL     1      31.024 -24.526 -14.673  0.00  0.00    +0.289 C 
BRANCH  32  35
ATOM     33  O   UNL     1      28.738 -25.286 -14.681  0.00  0.00    -0.271 OA
ATOM     34  N   UNL     1      29.413 -23.714 -16.256  0.00  0.00    -0.301 N 
ATOM     35  C   UNL     1      29.600 -24.569 -15.181  0.00  0.00    +0.267 C 
ATOM     36  H   UNL     1      30.181 -23.185 -16.574  0.00  0.00    +0.150 HD
BRANCH  34  37
ATOM     37  C   UNL     1      28.145 -23.562 -16.932  0.00  0.00    +0.090 C 
ATOM     38  C   UNL     1      27.388 -22.351 -16.426  0.00  0.00    +0.023 C 
ENDBRANCH  34  37
ENDBRANCH  32  35
ENDBRANCH  31  32
ENDBRANCH  26  31
ENDBRANCH  23  25
ENDBRANCH   2  23
TORSDOF 10
ENDMDL
MODEL 3
REMARK VINA RESULT:      -9.7      2.536      4.437
REMARK  Name = 448677
REMARK  10 active torsions:
REMARK  status: ('A' for Active; 'I' for Inactive)
REMARK    1  A    between atoms: N_2  and  C_23
REMARK    2  A    between atoms: C_3  and  C_7
REMARK    3  A    between atoms: C_8  and  C_12
REMARK    4  A    between atoms: C_12  and  C_13
REMARK    5  A    between atoms: C_12  and  N_19
REMARK    6  A    between atoms: C_23  and  C_25
REMARK    7  A    between atoms: C_26  and  O_31
REMARK    8  A    between atoms: O_31  and  C_32
REMARK    9  A    between atoms: C_32  and  C_35
REMARK   10  A    between atoms: N_34  and  C_37
REMARK                            x       y       z     vdW  Elec       q    Type
REMARK                         _______ _______ _______ _____ _____    ______ ____
ROOT
ATOM      1  O   UNL     1      32.717 -15.726 -21.722  0.00  0.00    -0.273 OA
ATOM      2  N   UNL     1      32.979 -13.750 -22.924  0.00  0.00    -0.299 N 
ATOM      3  C   UNL     1      33.374 -14.991 -22.454  0.00  0.00    +0.241 C 
ATOM      4  H   UNL     1      33.596 -13.252 -23.507  0.00  0.00    +0.150 HD
ENDROOT
BRANCH   3   7
ATOM      5  O   UNL     1      35.105 -16.997 -20.614  0.00  0.00    -0.277 OA
ATOM      6  N   UNL     1      34.802 -16.840 -22.903  0.00  0.00    -0.275 N 
ATOM      7  C   UNL     1      34.728 -15.386 -22.962  0.00  0.00    +0.152 C 
ATOM      8  C   UNL     1      35.059 -17.526 -21.727  0.00  0.00    +0.205 C 
ATOM      9  C   UNL     1      34.738 -17.425 -24.240  0.00  0.00    +0.094 C 
ATOM     10  C   UNL     1      34.899 -15.048 -24.438  0.00  0.00    +0.031 C 
ATOM     11  C   UNL     1      34.334 -16.275 -25.150  0.00  0.00    +0.024 C 
BRANCH   8  12
ATOM     12  C   UNL     1      35.278 -19.010 -21.874  0.00  0.00    +0.013 C 
BRANCH  12  13
ATOM     13  C   UNL     1      34.834 -19.732 -20.604  0.00  0.00    -0.011 C 
ATOM     14  C   UNL     1      35.780 -20.896 -20.282  0.00  0.00    -0.002 C 
ATOM     15  C   UNL     1      33.387 -20.225 -20.737  0.00  0.00    -0.002 C 
ATOM     16  C   UNL     1      35.326 -21.667 -19.045  0.00  0.00    -0.000 C 
ATOM     17  C   UNL     1      32.936 -20.996 -19.499  0.00  0.00    -0.000 C 
ATOM     18  C   UNL     1      33.884 -22.148 -19.178  0.00  0.00    -0.000 C 
ENDBRANCH  12  13
BRANCH  12  19
ATOM     19  N   UNL     1      34.495 -19.438 -23.022  0.00  0.00    +0.387 N 
ATOM     20  H   UNL     1      34.828 -18.957 -23.858  0.00  0.00    -0.089 HD
ATOM     21  H   UNL     1      33.513 -19.211 -22.867  0.00  0.00    -0.089 HD
ATOM     22  H   UNL     1      34.595 -20.445 -23.146  0.00  0.00    -0.089 HD
ENDBRANCH  12  19
ENDBRANCH   8  12
ENDBRANCH   3   7
BRANCH   2  23
ATOM     23  C   UNL     1      31.704 -13.151 -22.600  0.00  0.00    +0.119 C 
BRANCH  23  25
ATOM     24 CL   UNL     1      31.210 -10.671 -18.058  0.00  0.00    -0.082 Cl
ATOM     25  C   UNL     1      31.864 -11.882 -21.814  0.00  0.00    +0.032 C 
ATOM     26  C   UNL     1      32.361 -10.728 -22.419  0.00  0.00    +0.137 C 
ATOM     27  C   UNL     1      31.508 -11.864 -20.465  0.00  0.00    +0.012 C 
ATOM     28  C   UNL     1      32.502  -9.556 -21.675  0.00  0.00    +0.038 C 
ATOM     29  C   UNL     1      31.648 -10.693 -19.722  0.00  0.00    +0.058 C 
ATOM     30  C   UNL     1      32.146  -9.539 -20.327  0.00  0.00    +0.014 C 
BRANCH  26  31
ATOM     31  O   UNL     1      32.714 -10.728 -23.735  0.00  0.00    -0.466 OA
BRANCH  31  32
ATOM     32  C   UNL     1      34.051 -10.344 -24.048  0.00  0.00    +0.289 C 
BRANCH  32  35
ATOM     33  O   UNL     1      35.454 -10.517 -25.999  0.00  0.00    -0.271 OA
ATOM     34  N   UNL     1      33.632 -11.945 -25.786  0.00  0.00    -0.301 N 
ATOM     35  C   UNL     1      34.476 -10.924 -25.379  0.00  0.00    +0.267 C 
ATOM     36  H   UNL     1      32.874 -12.188 -25.204  0.00  0.00    +0.150 HD
BRANCH  34  37
ATOM     37  C   UNL     1      33.809 -12.670 -27.023  0.00  0.00    +0.090 C 
ATOM     38  C   UNL     1      32.717 -13.701 -27.223  0.00  0.00    +0.023 C 
ENDBRANCH  34  37
ENDBRANCH  32  35
ENDBRANCH  31  32
ENDBRANCH  26  31
ENDBRANCH  23  25
ENDBRANCH   2  23
TORSDOF 10
ENDMDL
MODEL 4
REMARK VINA RESULT:      -9.7      2.321      4.151
REMARK  Name = 448677
REMARK  10 active torsions:
REMARK  status: ('A' for Active; 'I' for Inactive)
REMARK    1  A    between atoms: N_2  and  C_23
REMARK    2  A    between atoms: C_3  and  C_7
REMARK    3  A    between atoms: C_8  and  C_12
REMARK    4  A    between atoms: C_12  and  C_13
REMARK    5  A    between atoms: C_12  and  N_19
REMARK    6  A    between atoms: C_23  and  C_25
REMARK    7  A    between atoms: C_26  and  O_31
REMARK    8  A    between atoms: O_31  and  C_32
REMARK    9  A    between atoms: C_32  and  C_35
REMARK   10  A    between atoms: N_34  and  C_37
REMARK                            x       y       z     vdW  Elec       q    Type
REMARK                         _______ _______ _______ _____ _____    ______ ____
ROOT
ATOM      1  O   UNL     1      34.190 -13.882 -23.288  0.00  0.00    -0.273 OA
ATOM      2  N   UNL     1      32.023 -13.226 -22.744  0.00  0.00    -0.299 N 
ATOM      3  C   UNL     1      33.115 -14.078 -22.727  0.00  0.00    +0.241 C 
ATOM      4  H   UNL     1      31.212 -13.493 -22.255  0.00  0.00    +0.150 HD
ENDROOT
BRANCH   3   7
ATOM      5  O   UNL     1      33.954 -16.910 -24.024  0.00  0.00    -0.277 OA
ATOM      6  N   UNL     1      34.106 -16.065 -21.874  0.00  0.00    -0.275 N 
ATOM      7  C   UNL     1      32.863 -15.306 -21.906  0.00  0.00    +0.152 C 
ATOM      8  C   UNL     1      34.514 -16.870 -22.926  0.00  0.00    +0.205 C 
ATOM      9  C   UNL     1      34.739 -15.986 -20.560  0.00  0.00    +0.094 C 
ATOM     10  C   UNL     1      32.581 -14.963 -20.448  0.00  0.00    +0.031 C 
ATOM     11  C   UNL     1      33.973 -14.897 -19.824  0.00  0.00    +0.024 C 
BRANCH   8  12
ATOM     12  C   UNL     1      35.731 -17.720 -22.660  0.00  0.00    +0.013 C 
BRANCH  12  13
ATOM     13  C   UNL     1      35.510 -18.570 -21.411  0.00  0.00    -0.011 C 
ATOM     14  C   UNL     1      36.785 -19.342 -21.047  0.00  0.00    -0.002 C 
ATOM     15  C   UNL     1      34.328 -19.529 -21.609  0.00  0.00    -0.002 C 
ATOM     16  C   UNL     1      36.573 -20.241 -19.831  0.00  0.00    -0.000 C 
ATOM     17  C   UNL     1      34.120 -20.427 -20.392  0.00  0.00    -0.000 C 
ATOM     18  C   UNL     1      35.393 -21.187 -20.030  0.00  0.00    -0.000 C 
ENDBRANCH  12  13
BRANCH  12  19
ATOM     19  N   UNL     1      35.926 -18.554 -23.835  0.00  0.00    +0.387 N 
ATOM     20  H   UNL     1      35.812 -19.534 -23.578  0.00  0.00    -0.089 HD
ATOM     21  H   UNL     1      36.865 -18.405 -24.204  0.00  0.00    -0.089 HD
ATOM     22  H   UNL     1      35.238 -18.306 -24.546  0.00  0.00    -0.089 HD
ENDBRANCH  12  19
ENDBRANCH   8  12
ENDBRANCH   3   7
BRANCH   2  23
ATOM     23  C   UNL     1      32.018 -11.962 -23.446  0.00  0.00    +0.119 C 
BRANCH  23  25
ATOM     24 CL   UNL     1      31.077  -9.939 -18.751  0.00  0.00    -0.082 Cl
ATOM     25  C   UNL     1      32.151 -10.798 -22.508  0.00  0.00    +0.032 C 
ATOM     26  C   UNL     1      32.795  -9.629 -22.910  0.00  0.00    +0.137 C 
ATOM     27  C   UNL     1      31.619 -10.894 -21.221  0.00  0.00    +0.012 C 
ATOM     28  C   UNL     1      32.909  -8.555 -22.027  0.00  0.00    +0.038 C 
ATOM     29  C   UNL     1      31.732  -9.820 -20.339  0.00  0.00    +0.058 C 
ATOM     30  C   UNL     1      32.378  -8.651 -20.741  0.00  0.00    +0.014 C 
BRANCH  26  31
ATOM     31  O   UNL     1      33.320  -9.519 -24.163  0.00  0.00    -0.466 OA
BRANCH  31  32
ATOM     32  C   UNL     1      34.678  -9.924 -24.335  0.00  0.00    +0.289 C 
BRANCH  32  35
ATOM     33  O   UNL     1      35.714 -10.433 -26.450  0.00  0.00    -0.271 OA
ATOM     34  N   UNL     1      33.909 -11.714 -25.737  0.00  0.00    -0.301 N 
ATOM     35  C   UNL     1      34.845 -10.698 -25.624  0.00  0.00    +0.267 C 
ATOM     36  H   UNL     1      33.256 -11.834 -25.008  0.00  0.00    +0.150 HD
BRANCH  34  37
ATOM     37  C   UNL     1      33.844 -12.605 -26.871  0.00  0.00    +0.090 C 
ATOM     38  C   UNL     1      33.027 -13.843 -26.559  0.00  0.00    +0.023 C 
ENDBRANCH  34  37
ENDBRANCH  32  35
ENDBRANCH  31  32
ENDBRANCH  26  31
ENDBRANCH  23  25
ENDBRANCH   2  23
TORSDOF 10
ENDMDL
MODEL 5
REMARK VINA RESULT:      -9.6      2.627      4.777
REMARK  Name = 448677
REMARK  10 active torsions:
REMARK  status: ('A' for Active; 'I' for Inactive)
REMARK    1  A    between atoms: N_2  and  C_23
REMARK    2  A    between atoms: C_3  and  C_7
REMARK    3  A    between atoms: C_8  and  C_12
REMARK    4  A    between atoms: C_12  and  C_13
REMARK    5  A    between atoms: C_12  and  N_19
REMARK    6  A    between atoms: C_23  and  C_25
REMARK    7  A    between atoms: C_26  and  O_31
REMARK    8  A    between atoms: O_31  and  C_32
REMARK    9  A    between atoms: C_32  and  C_35
REMARK   10  A    between atoms: N_34  and  C_37
REMARK                            x       y       z     vdW  Elec       q    Type
REMARK                         _______ _______ _______ _____ _____    ______ ____
ROOT
ATOM      1  O   UNL     1      32.695 -10.821 -23.280  0.00  0.00    -0.273 OA
ATOM      2  N   UNL     1      34.586  -9.523 -23.677  0.00  0.00    -0.299 N 
ATOM      3  C   UNL     1      33.808 -10.665 -23.774  0.00  0.00    +0.241 C 
ATOM      4  H   UNL     1      35.466  -9.517 -24.118  0.00  0.00    +0.150 HD
ENDROOT
BRANCH   3   7
ATOM      5  O   UNL     1      34.771 -13.324 -22.222  0.00  0.00    -0.277 OA
ATOM      6  N   UNL     1      33.791 -12.987 -24.291  0.00  0.00    -0.275 N 
ATOM      7  C   UNL     1      34.468 -11.733 -24.594  0.00  0.00    +0.152 C 
ATOM      8  C   UNL     1      34.058 -13.720 -23.146  0.00  0.00    +0.205 C 
ATOM      9  C   UNL     1      32.953 -13.417 -25.409  0.00  0.00    +0.094 C 
ATOM     10  C   UNL     1      34.241 -11.521 -26.086  0.00  0.00    +0.031 C 
ATOM     11  C   UNL     1      32.909 -12.220 -26.346  0.00  0.00    +0.024 C 
BRANCH   8  12
ATOM     12  C   UNL     1      33.402 -15.076 -23.074  0.00  0.00    +0.013 C 
BRANCH  12  13
ATOM     13  C   UNL     1      34.460 -16.157 -22.859  0.00  0.00    -0.011 C 
ATOM     14  C   UNL     1      34.369 -17.230 -23.952  0.00  0.00    -0.002 C 
ATOM     15  C   UNL     1      34.319 -16.783 -21.465  0.00  0.00    -0.002 C 
ATOM     16  C   UNL     1      35.382 -18.350 -23.728  0.00  0.00    -0.000 C 
ATOM     17  C   UNL     1      35.332 -17.904 -21.245  0.00  0.00    -0.000 C 
ATOM     18  C   UNL     1      35.244 -18.964 -22.338  0.00  0.00    -0.000 C 
ENDBRANCH  12  13
BRANCH  12  19
ATOM     19  N   UNL     1      32.464 -15.031 -21.965  0.00  0.00    +0.387 N 
ATOM     20  H   UNL     1      31.554 -14.718 -22.303  0.00  0.00    -0.089 HD
ATOM     21  H   UNL     1      32.806 -14.381 -21.258  0.00  0.00    -0.089 HD
ATOM     22  H   UNL     1      32.374 -15.961 -21.558  0.00  0.00    -0.089 HD
ENDBRANCH  12  19
ENDBRANCH   8  12
ENDBRANCH   3   7
BRANCH   2  23
ATOM     23  C   UNL     1      34.167  -8.340 -22.960  0.00  0.00    +0.119 C 
BRANCH  23  25
ATOM     24 CL   UNL     1      35.136  -5.228 -27.010  0.00  0.00    -0.082 Cl
ATOM     25  C   UNL     1      33.683  -7.264 -23.888  0.00  0.00    +0.032 C 
ATOM     26  C   UNL     1      32.404  -6.725 -23.748  0.00  0.00    +0.137 C 
ATOM     27  C   UNL     1      34.528  -6.800 -24.897  0.00  0.00    +0.012 C 
ATOM     28  C   UNL     1      31.969  -5.724 -24.617  0.00  0.00    +0.038 C 
ATOM     29  C   UNL     1      34.094  -5.799 -25.765  0.00  0.00    +0.058 C 
ATOM     30  C   UNL     1      32.815  -5.262 -25.626  0.00  0.00    +0.014 C 
BRANCH  26  31
ATOM     31  O   UNL     1      31.566  -7.167 -22.768  0.00  0.00    -0.466 OA
BRANCH  31  32
ATOM     32  C   UNL     1      31.582  -6.453 -21.533  0.00  0.00    +0.289 C 
BRANCH  32  35
ATOM     33  O   UNL     1      32.932  -6.877 -19.583  0.00  0.00    -0.271 OA
ATOM     34  N   UNL     1      31.695  -8.618 -20.502  0.00  0.00    -0.301 N 
ATOM     35  C   UNL     1      32.155  -7.312 -20.427  0.00  0.00    +0.267 C 
ATOM     36  H   UNL     1      31.070  -8.854 -21.227  0.00  0.00    +0.150 HD
BRANCH  34  37
ATOM     37  C   UNL     1      32.087  -9.647 -19.568  0.00  0.00    +0.090 C 
ATOM     38  C   UNL     1      31.475 -10.986 -19.928  0.00  0.00    +0.023 C 
ENDBRANCH  34  37
ENDBRANCH  32  35
ENDBRANCH  31  32
ENDBRANCH  26  31
ENDBRANCH  23  25
ENDBRANCH   2  23
TORSDOF 10
ENDMDL
MODEL 6
REMARK VINA RESULT:      -9.6      5.874     10.145
REMARK  Name = 448677
REMARK  10 active torsions:
REMARK  status: ('A' for Active; 'I' for Inactive)
REMARK    1  A    between atoms: N_2  and  C_23
REMARK    2  A    between atoms: C_3  and  C_7
REMARK    3  A    between atoms: C_8  and  C_12
REMARK    4  A    between atoms: C_12  and  C_13
REMARK    5  A    between atoms: C_12  and  N_19
REMARK    6  A    between atoms: C_23  and  C_25
REMARK    7  A    between atoms: C_26  and  O_31
REMARK    8  A    between atoms: O_31  and  C_32
REMARK    9  A    between atoms: C_32  and  C_35
REMARK   10  A    between atoms: N_34  and  C_37
REMARK                            x       y       z     vdW  Elec       q    Type
REMARK                         _______ _______ _______ _____ _____    ______ ____
ROOT
ATOM      1  O   UNL     1      30.825 -22.030 -17.241  0.00  0.00    -0.273 OA
ATOM      2  N   UNL     1      32.795 -22.942 -18.080  0.00  0.00    -0.299 N 
ATOM      3  C   UNL     1      31.715 -22.875 -17.216  0.00  0.00    +0.241 C 
ATOM      4  H   UNL     1      33.447 -23.670 -17.959  0.00  0.00    +0.150 HD
ENDROOT
BRANCH   3   7
ATOM      5  O   UNL     1      34.571 -24.181 -16.479  0.00  0.00    -0.277 OA
ATOM      6  N   UNL     1      32.710 -23.662 -15.204  0.00  0.00    -0.275 N 
ATOM      7  C   UNL     1      31.717 -23.993 -16.217  0.00  0.00    +0.152 C 
ATOM      8  C   UNL     1      34.069 -23.855 -15.402  0.00  0.00    +0.205 C 
ATOM      9  C   UNL     1      32.074 -23.276 -13.947  0.00  0.00    +0.094 C 
ATOM     10  C   UNL     1      30.399 -24.072 -15.455  0.00  0.00    +0.031 C 
ATOM     11  C   UNL     1      30.602 -23.104 -14.292  0.00  0.00    +0.024 C 
BRANCH   8  12
ATOM     12  C   UNL     1      34.940 -23.628 -14.192  0.00  0.00    +0.013 C 
BRANCH  12  13
ATOM     13  C   UNL     1      35.958 -24.759 -14.063  0.00  0.00    -0.011 C 
ATOM     14  C   UNL     1      36.234 -25.074 -12.587  0.00  0.00    -0.002 C 
ATOM     15  C   UNL     1      37.258 -24.407 -14.799  0.00  0.00    -0.002 C 
ATOM     16  C   UNL     1      37.289 -26.167 -12.431  0.00  0.00    -0.000 C 
ATOM     17  C   UNL     1      38.311 -25.500 -14.640  0.00  0.00    -0.000 C 
ATOM     18  C   UNL     1      38.577 -25.816 -13.171  0.00  0.00    -0.000 C 
ENDBRANCH  12  13
BRANCH  12  19
ATOM     19  N   UNL     1      35.600 -22.347 -14.385  0.00  0.00    +0.387 N 
ATOM     20  H   UNL     1      34.947 -21.594 -14.171  0.00  0.00    -0.089 HD
ATOM     21  H   UNL     1      35.908 -22.266 -15.354  0.00  0.00    -0.089 HD
ATOM     22  H   UNL     1      36.407 -22.284 -13.765  0.00  0.00    -0.089 HD
ENDBRANCH  12  19
ENDBRANCH   8  12
ENDBRANCH   3   7
BRANCH   2  23
ATOM     23  C   UNL     1      33.011 -21.994 -19.150  0.00  0.00    +0.119 C 
BRANCH  23  25
ATOM     24 CL   UNL     1      37.786 -22.102 -17.095  0.00  0.00    -0.082 Cl
ATOM     25  C   UNL     1      34.438 -21.533 -19.211  0.00  0.00    +0.032 C 
ATOM     26  C   UNL     1      34.864 -20.668 -20.218  0.00  0.00    +0.137 C 
ATOM     27  C   UNL     1      35.342 -21.976 -18.244  0.00  0.00    +0.012 C 
ATOM     28  C   UNL     1      36.193 -20.246 -20.261  0.00  0.00    +0.038 C 
ATOM     29  C   UNL     1      36.670 -21.554 -18.287  0.00  0.00    +0.058 C 
ATOM     30  C   UNL     1      37.096 -20.690 -19.295  0.00  0.00    +0.014 C 
BRANCH  26  31
ATOM     31  O   UNL     1      33.994 -20.225 -21.170  0.00  0.00    -0.466 OA
BRANCH  31  32
ATOM     32  C   UNL     1      34.066 -18.845 -21.521  0.00  0.00    +0.289 C 
BRANCH  32  35
ATOM     33  O   UNL     1      34.895 -19.630 -23.643  0.00  0.00    -0.271 OA
ATOM     34  N   UNL     1      34.552 -17.351 -23.336  0.00  0.00    -0.301 N 
ATOM     35  C   UNL     1      34.550 -18.681 -22.945  0.00  0.00    +0.267 C 
ATOM     36  H   UNL     1      34.253 -16.671 -22.688  0.00  0.00    +0.150 HD
BRANCH  34  37
ATOM     37  C   UNL     1      34.970 -16.915 -24.648  0.00  0.00    +0.090 C 
ATOM     38  C   UNL     1      33.879 -16.129 -25.346  0.00  0.00    +0.023 C 
ENDBRANCH  34  37
ENDBRANCH  32  35
ENDBRANCH  31  32
ENDBRANCH  26  31
ENDBRANCH  23  25
ENDBRANCH   2  23
TORSDOF 10
ENDMDL
MODEL 7
REMARK VINA RESULT:      -9.6      2.646      4.363
REMARK  Name = 448677
REMARK  10 active torsions:
REMARK  status: ('A' for Active; 'I' for Inactive)
REMARK    1  A    between atoms: N_2  and  C_23
REMARK    2  A    between atoms: C_3  and  C_7
REMARK    3  A    between atoms: C_8  and  C_12
REMARK    4  A    between atoms: C_12  and  C_13
REMARK    5  A    between atoms: C_12  and  N_19
REMARK    6  A    between atoms: C_23  and  C_25
REMARK    7  A    between atoms: C_26  and  O_31
REMARK    8  A    between atoms: O_31  and  C_32
REMARK    9  A    between atoms: C_32  and  C_35
REMARK   10  A    between atoms: N_34  and  C_37
REMARK                            x       y       z     vdW  Elec       q    Type
REMARK                         _______ _______ _______ _____ _____    ______ ____
ROOT
ATOM      1  O   UNL     1      32.311 -14.918 -22.052  0.00  0.00    -0.273 OA
ATOM      2  N   UNL     1      32.432 -12.738 -22.859  0.00  0.00    -0.299 N 
ATOM      3  C   UNL     1      32.880 -14.038 -22.692  0.00  0.00    +0.241 C 
ATOM      4  H   UNL     1      32.978 -12.120 -23.396  0.00  0.00    +0.150 HD
ENDROOT
BRANCH   3   7
ATOM      5  O   UNL     1      35.012 -15.984 -21.252  0.00  0.00    -0.277 OA
ATOM      6  N   UNL     1      34.360 -15.734 -23.459  0.00  0.00    -0.275 N 
ATOM      7  C   UNL     1      34.169 -14.291 -23.414  0.00  0.00    +0.152 C 
ATOM      8  C   UNL     1      34.841 -16.457 -22.378  0.00  0.00    +0.205 C 
ATOM      9  C   UNL     1      34.141 -16.253 -24.807  0.00  0.00    +0.094 C 
ATOM     10  C   UNL     1      34.092 -13.865 -24.875  0.00  0.00    +0.031 C 
ATOM     11  C   UNL     1      33.521 -15.096 -25.574  0.00  0.00    +0.024 C 
BRANCH   8  12
ATOM     12  C   UNL     1      35.145 -17.908 -22.649  0.00  0.00    +0.013 C 
BRANCH  12  13
ATOM     13  C   UNL     1      35.139 -18.696 -21.341  0.00  0.00    -0.011 C 
ATOM     14  C   UNL     1      36.488 -19.392 -21.121  0.00  0.00    -0.002 C 
ATOM     15  C   UNL     1      33.990 -19.713 -21.325  0.00  0.00    -0.002 C 
ATOM     16  C   UNL     1      36.489 -20.230 -19.845  0.00  0.00    -0.000 C 
ATOM     17  C   UNL     1      33.995 -20.550 -20.049  0.00  0.00    -0.000 C 
ATOM     18  C   UNL     1      35.341 -21.235 -19.830  0.00  0.00    -0.000 C 
ENDBRANCH  12  13
BRANCH  12  19
ATOM     19  N   UNL     1      34.118 -18.390 -23.557  0.00  0.00    +0.387 N 
ATOM     20  H   UNL     1      33.511 -19.047 -23.066  0.00  0.00    -0.089 HD
ATOM     21  H   UNL     1      34.557 -18.860 -24.349  0.00  0.00    -0.089 HD
ATOM     22  H   UNL     1      33.565 -17.602 -23.894  0.00  0.00    -0.089 HD
ENDBRANCH  12  19
ENDBRANCH   8  12
ENDBRANCH   3   7
BRANCH   2  23
ATOM     23  C   UNL     1      31.201 -12.246 -22.284  0.00  0.00    +0.119 C 
BRANCH  23  25
ATOM     24 CL   UNL     1      31.502 -10.902 -17.271  0.00  0.00    -0.082 Cl
ATOM     25  C   UNL     1      31.448 -11.175 -21.262  0.00  0.00    +0.032 C 
ATOM     26  C   UNL     1      31.749  -9.871 -21.655  0.00  0.00    +0.137 C 
ATOM     27  C   UNL     1      31.371 -11.493 -19.905  0.00  0.00    +0.012 C 
ATOM     28  C   UNL     1      31.974  -8.886 -20.693  0.00  0.00    +0.038 C 
ATOM     29  C   UNL     1      31.596 -10.509 -18.944  0.00  0.00    +0.058 C 
ATOM     30  C   UNL     1      31.898  -9.206 -19.337  0.00  0.00    +0.014 C 
BRANCH  26  31
ATOM     31  O   UNL     1      31.828  -9.543 -22.976  0.00  0.00    -0.466 OA
BRANCH  31  32
ATOM     32  C   UNL     1      32.517  -8.338 -23.304  0.00  0.00    +0.289 C 
BRANCH  32  35
ATOM     33  O   UNL     1      34.879  -7.886 -23.161  0.00  0.00    -0.271 OA
ATOM     34  N   UNL     1      34.155  -9.769 -24.318  0.00  0.00    -0.301 N 
ATOM     35  C   UNL     1      33.980  -8.615 -23.570  0.00  0.00    +0.267 C 
ATOM     36  H   UNL     1      33.356 -10.276 -24.592  0.00  0.00    +0.150 HD
BRANCH  34  37
ATOM     37  C   UNL     1      35.454 -10.263 -24.713  0.00  0.00    +0.090 C 
ATOM     38  C   UNL     1      35.552 -10.421 -26.217  0.00  0.00    +0.023 C 
ENDBRANCH  34  37
ENDBRANCH  32  35
ENDBRANCH  31  32
ENDBRANCH  26  31
ENDBRANCH  23  25
ENDBRANCH   2  23
TORSDOF 10
ENDMDL
MODEL 8
REMARK VINA RESULT:      -9.5      3.362      5.774
REMARK  Name = 448677
REMARK  10 active torsions:
REMARK  status: ('A' for Active; 'I' for Inactive)
REMARK    1  A    between atoms: N_2  and  C_23
REMARK    2  A    between atoms: C_3  and  C_7
REMARK    3  A    between atoms: C_8  and  C_12
REMARK    4  A    between atoms: C_12  and  C_13
REMARK    5  A    between atoms: C_12  and  N_19
REMARK    6  A    between atoms: C_23  and  C_25
REMARK    7  A    between atoms: C_26  and  O_31
REMARK    8  A    between atoms: O_31  and  C_32
REMARK    9  A    between atoms: C_32  and  C_35
REMARK   10  A    between atoms: N_34  and  C_37
REMARK                            x       y       z     vdW  Elec       q    Type
REMARK                         _______ _______ _______ _____ _____    ______ ____
ROOT
ATOM      1  O   UNL     1      31.473 -10.715 -22.864  0.00  0.00    -0.273 OA
ATOM      2  N   UNL     1      32.340  -8.771 -23.806  0.00  0.00    -0.299 N 
ATOM      3  C   UNL     1      32.413 -10.060 -23.306  0.00  0.00    +0.241 C 
ATOM      4  H   UNL     1      33.166  -8.348 -24.133  0.00  0.00    +0.150 HD
ENDROOT
BRANCH   3   7
ATOM      5  O   UNL     1      32.742 -13.241 -22.881  0.00  0.00    -0.277 OA
ATOM      6  N   UNL     1      33.769 -11.737 -24.310  0.00  0.00    -0.275 N 
ATOM      7  C   UNL     1      33.802 -10.618 -23.377  0.00  0.00    +0.152 C 
ATOM      8  C   UNL     1      33.299 -12.991 -23.952  0.00  0.00    +0.205 C 
ATOM      9  C   UNL     1      34.433 -11.397 -25.566  0.00  0.00    +0.094 C 
ATOM     10  C   UNL     1      34.779  -9.626 -23.998  0.00  0.00    +0.031 C 
ATOM     11  C   UNL     1      34.653  -9.894 -25.496  0.00  0.00    +0.024 C 
BRANCH   8  12
ATOM     12  C   UNL     1      33.498 -14.077 -24.979  0.00  0.00    +0.013 C 
BRANCH  12  13
ATOM     13  C   UNL     1      33.724 -15.418 -24.283  0.00  0.00    -0.011 C 
ATOM     14  C   UNL     1      34.744 -15.274 -23.146  0.00  0.00    -0.002 C 
ATOM     15  C   UNL     1      34.176 -16.483 -25.291  0.00  0.00    -0.002 C 
ATOM     16  C   UNL     1      35.027 -16.612 -22.468  0.00  0.00    -0.000 C 
ATOM     17  C   UNL     1      34.460 -17.820 -24.610  0.00  0.00    -0.000 C 
ATOM     18  C   UNL     1      35.469 -17.670 -23.475  0.00  0.00    -0.000 C 
ENDBRANCH  12  13
BRANCH  12  19
ATOM     19  N   UNL     1      32.297 -14.106 -25.798  0.00  0.00    +0.387 N 
ATOM     20  H   UNL     1      32.178 -15.039 -26.192  0.00  0.00    -0.089 HD
ATOM     21  H   UNL     1      32.385 -13.426 -26.552  0.00  0.00    -0.089 HD
ATOM     22  H   UNL     1      31.488 -13.874 -25.223  0.00  0.00    -0.089 HD
ENDBRANCH  12  19
ENDBRANCH   8  12
ENDBRANCH   3   7
BRANCH   2  23
ATOM     23  C   UNL     1      31.108  -8.017 -23.871  0.00  0.00    +0.119 C 
BRANCH  23  25
ATOM     24 CL   UNL     1      32.427  -3.966 -26.850  0.00  0.00    -0.082 Cl
ATOM     25  C   UNL     1      31.358  -6.541 -23.981  0.00  0.00    +0.032 C 
ATOM     26  C   UNL     1      31.224  -5.711 -22.868  0.00  0.00    +0.137 C 
ATOM     27  C   UNL     1      31.731  -6.001 -25.212  0.00  0.00    +0.012 C 
ATOM     28  C   UNL     1      31.461  -4.341 -22.986  0.00  0.00    +0.038 C 
ATOM     29  C   UNL     1      31.968  -4.633 -25.330  0.00  0.00    +0.058 C 
ATOM     30  C   UNL     1      31.833  -3.802 -24.218  0.00  0.00    +0.014 C 
BRANCH  26  31
ATOM     31  O   UNL     1      30.861  -6.223 -21.658  0.00  0.00    -0.466 OA
BRANCH  31  32
ATOM     32  C   UNL     1      31.850  -6.218 -20.630  0.00  0.00    +0.289 C 
BRANCH  32  35
ATOM     33  O   UNL     1      33.585  -7.805 -21.161  0.00  0.00    -0.271 OA
ATOM     34  N   UNL     1      31.867  -8.444 -19.731  0.00  0.00    -0.301 N 
ATOM     35  C   UNL     1      32.546  -7.560 -20.554  0.00  0.00    +0.267 C 
ATOM     36  H   UNL     1      31.039  -8.136 -19.294  0.00  0.00    +0.150 HD
BRANCH  34  37
ATOM     37  C   UNL     1      32.314  -9.795 -19.483  0.00  0.00    +0.090 C 
ATOM     38  C   UNL     1      31.156 -10.707 -19.133  0.00  0.00    +0.023 C 
ENDBRANCH  34  37
ENDBRANCH  32  35
ENDBRANCH  31  32
ENDBRANCH  26  31
ENDBRANCH  23  25
ENDBRANCH   2  23
TORSDOF 10
ENDMDL
MODEL 9
REMARK VINA RESULT:      -9.4      2.617      9.975
REMARK  Name = 448677
REMARK  10 active torsions:
REMARK  status: ('A' for Active; 'I' for Inactive)
REMARK    1  A    between atoms: N_2  and  C_23
REMARK    2  A    between atoms: C_3  and  C_7
REMARK    3  A    between atoms: C_8  and  C_12
REMARK    4  A    between atoms: C_12  and  C_13
REMARK    5  A    between atoms: C_12  and  N_19
REMARK    6  A    between atoms: C_23  and  C_25
REMARK    7  A    between atoms: C_26  and  O_31
REMARK    8  A    between atoms: O_31  and  C_32
REMARK    9  A    between atoms: C_32  and  C_35
REMARK   10  A    between atoms: N_34  and  C_37
REMARK                            x       y       z     vdW  Elec       q    Type
REMARK                         _______ _______ _______ _____ _____    ______ ____
ROOT
ATOM      1  O   UNL     1      32.288 -12.489 -22.375  0.00  0.00    -0.273 OA
ATOM      2  N   UNL     1      34.164 -13.083 -23.619  0.00  0.00    -0.299 N 
ATOM      3  C   UNL     1      33.069 -12.296 -23.303  0.00  0.00    +0.241 C 
ATOM      4  H   UNL     1      34.719 -12.826 -24.390  0.00  0.00    +0.150 HD
ENDROOT
BRANCH   3   7
ATOM      5  O   UNL     1      31.189  -9.869 -22.312  0.00  0.00    -0.277 OA
ATOM      6  N   UNL     1      33.210  -9.926 -23.438  0.00  0.00    -0.275 N 
ATOM      7  C   UNL     1      32.930 -11.121 -24.222  0.00  0.00    +0.152 C 
ATOM      8  C   UNL     1      32.274  -9.354 -22.591  0.00  0.00    +0.205 C 
ATOM      9  C   UNL     1      34.506  -9.352 -23.795  0.00  0.00    +0.094 C 
ATOM     10  C   UNL     1      33.996 -11.127 -25.312  0.00  0.00    +0.031 C 
ATOM     11  C   UNL     1      35.175 -10.408 -24.660  0.00  0.00    +0.024 C 
BRANCH   8  12
ATOM     12  C   UNL     1      32.663  -8.026 -21.992  0.00  0.00    +0.013 C 
BRANCH  12  13
ATOM     13  C   UNL     1      31.760  -6.923 -22.539  0.00  0.00    -0.011 C 
ATOM     14  C   UNL     1      32.413  -6.236 -23.746  0.00  0.00    -0.002 C 
ATOM     15  C   UNL     1      31.427  -5.902 -21.443  0.00  0.00    -0.002 C 
ATOM     16  C   UNL     1      31.553  -5.093 -24.278  0.00  0.00    -0.000 C 
ATOM     17  C   UNL     1      30.568  -4.759 -21.979  0.00  0.00    -0.000 C 
ATOM     18  C   UNL     1      31.217  -4.084 -23.184  0.00  0.00    -0.000 C 
ENDBRANCH  12  13
BRANCH  12  19
ATOM     19  N   UNL     1      32.520  -8.157 -20.551  0.00  0.00    +0.387 N 
ATOM     20  H   UNL     1      31.867  -7.451 -20.210  0.00  0.00    -0.089 HD
ATOM     21  H   UNL     1      33.428  -8.024 -20.107  0.00  0.00    -0.089 HD
ATOM     22  H   UNL     1      32.164  -9.086 -20.328  0.00  0.00    -0.089 HD
ENDBRANCH  12  19
ENDBRANCH   8  12
ENDBRANCH   3   7
BRANCH   2  23
ATOM     23  C   UNL     1      34.532 -14.263 -22.870  0.00  0.00    +0.119 C 
BRANCH  23  25
ATOM     24 CL   UNL     1      32.413 -16.598 -27.004  0.00  0.00    -0.082 Cl
ATOM     25  C   UNL     1      34.351 -15.518 -23.675  0.00  0.00    +0.032 C 
ATOM     26  C   UNL     1      34.959 -16.709 -23.282  0.00  0.00    +0.137 C 
ATOM     27  C   UNL     1      33.563 -15.483 -24.826  0.00  0.00    +0.012 C 
ATOM     28  C   UNL     1      34.780 -17.867 -24.040  0.00  0.00    +0.038 C 
ATOM     29  C   UNL     1      33.384 -16.640 -25.583  0.00  0.00    +0.058 C 
ATOM     30  C   UNL     1      33.993 -17.832 -25.191  0.00  0.00    +0.014 C 
BRANCH  26  31
ATOM     31  O   UNL     1      35.731 -16.760 -22.160  0.00  0.00    -0.466 OA
BRANCH  31  32
ATOM     32  C   UNL     1      35.257 -17.567 -21.083  0.00  0.00    +0.289 C 
BRANCH  32  35
ATOM     33  O   UNL     1      37.228 -18.926 -21.359  0.00  0.00    -0.271 OA
ATOM     34  N   UNL     1      35.328 -19.868 -20.404  0.00  0.00    -0.301 N 
ATOM     35  C   UNL     1      36.065 -18.842 -20.976  0.00  0.00    +0.267 C 
ATOM     36  H   UNL     1      34.399 -19.684 -20.134  0.00  0.00    +0.150 HD
BRANCH  34  37
ATOM     37  C   UNL     1      35.859 -21.193 -20.186  0.00  0.00    +0.090 C 
ATOM     38  C   UNL     1      36.446 -21.334 -18.796  0.00  0.00    +0.023 C 
ENDBRANCH  34  37
ENDBRANCH  32  35
ENDBRANCH  31  32
ENDBRANCH  26  31
ENDBRANCH  23  25
ENDBRANCH   2  23
TORSDOF 10
ENDMDL
