MODEL 1
REMARK VINA RESULT:      -6.3      0.000      0.000
REMARK  Name = 697993
REMARK  0 active torsions:
REMARK  status: ('A' for Active; 'I' for Inactive)
REMARK                            x       y       z     vdW  Elec       q    Type
REMARK                         _______ _______ _______ _____ _____    ______ ____
ROOT
ATOM      1  S   UNL     1      36.406 -18.785 -21.417  0.00  0.00    -0.061 S 
ATOM      2  S   UNL     1      34.926 -16.507 -22.813  0.00  0.00    -0.025 S 
ATOM      3  N   UNL     1      33.823 -18.562 -21.447  0.00  0.00    -0.342 N 
ATOM      4  C   UNL     1      34.076 -19.725 -20.712  0.00  0.00    +0.063 A 
ATOM      5  C   UNL     1      35.433 -20.014 -20.587  0.00  0.00    +0.047 A 
ATOM      6  C   UNL     1      33.105 -20.536 -20.150  0.00  0.00    +0.017 C 
ATOM      7  C   UNL     1      35.860 -21.131 -19.890  0.00  0.00    +0.008 C 
ATOM      8  C   UNL     1      34.948 -17.904 -21.917  0.00  0.00    +0.124 A 
ATOM      9  C   UNL     1      33.526 -21.666 -19.444  0.00  0.00    +0.002 C 
ATOM     10  C   UNL     1      34.893 -21.961 -19.315  0.00  0.00    +0.001 C 
ATOM     11  H   UNL     1      32.911 -18.233 -21.617  0.00  0.00    +0.167 HD
ENDROOT
TORSDOF 0
ENDMDL
MODEL 2
REMARK VINA RESULT:      -6.0      3.090      4.321
REMARK  Name = 697993
REMARK  0 active torsions:
REMARK  status: ('A' for Active; 'I' for Inactive)
REMARK                            x       y       z     vdW  Elec       q    Type
REMARK                         _______ _______ _______ _____ _____    ______ ____
ROOT
ATOM      1  S   UNL     1      35.341 -22.121 -18.623  0.00  0.00    -0.061 S 
ATOM      2  S   UNL     1      33.075 -23.528 -17.134  0.00  0.00    -0.025 S 
ATOM      3  N   UNL     1      32.829 -21.680 -19.091  0.00  0.00    -0.342 N 
ATOM      4  C   UNL     1      33.514 -20.842 -19.978  0.00  0.00    +0.063 A 
ATOM      5  C   UNL     1      34.900 -20.941 -19.872  0.00  0.00    +0.047 A 
ATOM      6  C   UNL     1      32.913 -19.986 -20.885  0.00  0.00    +0.017 C 
ATOM      7  C   UNL     1      35.729 -20.180 -20.677  0.00  0.00    +0.008 C 
ATOM      8  C   UNL     1      33.633 -22.455 -18.271  0.00  0.00    +0.124 A 
ATOM      9  C   UNL     1      33.742 -19.214 -21.702  0.00  0.00    +0.002 C 
ATOM     10  C   UNL     1      35.140 -19.310 -21.599  0.00  0.00    +0.001 C 
ATOM     11  H   UNL     1      31.846 -21.718 -19.052  0.00  0.00    +0.167 HD
ENDROOT
TORSDOF 0
ENDMDL
MODEL 3
REMARK VINA RESULT:      -6.0      3.502      4.467
REMARK  Name = 697993
REMARK  0 active torsions:
REMARK  status: ('A' for Active; 'I' for Inactive)
REMARK                            x       y       z     vdW  Elec       q    Type
REMARK                         _______ _______ _______ _____ _____    ______ ____
ROOT
ATOM      1  S   UNL     1      33.748 -14.787 -23.311  0.00  0.00    -0.061 S 
ATOM      2  S   UNL     1      33.076 -14.610 -26.286  0.00  0.00    -0.025 S 
ATOM      3  N   UNL     1      34.192 -16.707 -24.995  0.00  0.00    -0.342 N 
ATOM      4  C   UNL     1      34.640 -17.196 -23.764  0.00  0.00    +0.063 A 
ATOM      5  C   UNL     1      34.481 -16.289 -22.718  0.00  0.00    +0.047 A 
ATOM      6  C   UNL     1      35.193 -18.450 -23.561  0.00  0.00    +0.017 C 
ATOM      7  C   UNL     1      34.873 -16.613 -21.431  0.00  0.00    +0.008 C 
ATOM      8  C   UNL     1      33.673 -15.423 -24.967  0.00  0.00    +0.124 A 
ATOM      9  C   UNL     1      35.592 -18.786 -22.265  0.00  0.00    +0.002 C 
ATOM     10  C   UNL     1      35.433 -17.874 -21.209  0.00  0.00    +0.001 C 
ATOM     11  H   UNL     1      34.241 -17.237 -25.824  0.00  0.00    +0.167 HD
ENDROOT
TORSDOF 0
ENDMDL
MODEL 4
REMARK VINA RESULT:      -5.9      4.125      5.137
REMARK  Name = 697993
REMARK  0 active torsions:
REMARK  status: ('A' for Active; 'I' for Inactive)
REMARK                            x       y       z     vdW  Elec       q    Type
REMARK                         _______ _______ _______ _____ _____    ______ ____
ROOT
ATOM      1  S   UNL     1      33.501 -15.186 -25.396  0.00  0.00    -0.061 S 
ATOM      2  S   UNL     1      33.558 -12.536 -23.877  0.00  0.00    -0.025 S 
ATOM      3  N   UNL     1      34.560 -14.905 -23.046  0.00  0.00    -0.342 N 
ATOM      4  C   UNL     1      34.748 -16.254 -23.367  0.00  0.00    +0.063 A 
ATOM      5  C   UNL     1      34.236 -16.600 -24.615  0.00  0.00    +0.047 A 
ATOM      6  C   UNL     1      35.375 -17.183 -22.555  0.00  0.00    +0.017 C 
ATOM      7  C   UNL     1      34.337 -17.896 -25.089  0.00  0.00    +0.008 C 
ATOM      8  C   UNL     1      33.906 -14.154 -24.009  0.00  0.00    +0.124 A 
ATOM      9  C   UNL     1      35.482 -18.494 -23.024  0.00  0.00    +0.002 C 
ATOM     10  C   UNL     1      34.967 -18.848 -24.282  0.00  0.00    +0.001 C 
ATOM     11  H   UNL     1      34.870 -14.516 -22.196  0.00  0.00    +0.167 HD
ENDROOT
TORSDOF 0
ENDMDL
MODEL 5
REMARK VINA RESULT:      -5.9      3.335      4.424
REMARK  Name = 697993
REMARK  0 active torsions:
REMARK  status: ('A' for Active; 'I' for Inactive)
REMARK                            x       y       z     vdW  Elec       q    Type
REMARK                         _______ _______ _______ _____ _____    ______ ____
ROOT
ATOM      1  S   UNL     1      34.314 -15.048 -21.955  0.00  0.00    -0.061 S 
ATOM      2  S   UNL     1      33.629 -12.906 -24.022  0.00  0.00    -0.025 S 
ATOM      3  N   UNL     1      34.130 -15.520 -24.498  0.00  0.00    -0.342 N 
ATOM      4  C   UNL     1      34.456 -16.754 -23.925  0.00  0.00    +0.063 A 
ATOM      5  C   UNL     1      34.599 -16.699 -22.540  0.00  0.00    +0.047 A 
ATOM      6  C   UNL     1      34.628 -17.934 -24.627  0.00  0.00    +0.017 C 
ATOM      7  C   UNL     1      34.921 -17.832 -21.814  0.00  0.00    +0.008 C 
ATOM      8  C   UNL     1      34.006 -14.468 -23.604  0.00  0.00    +0.124 A 
ATOM      9  C   UNL     1      34.953 -19.083 -23.903  0.00  0.00    +0.002 C 
ATOM     10  C   UNL     1      35.099 -19.033 -22.507  0.00  0.00    +0.001 C 
ATOM     11  H   UNL     1      33.998 -15.406 -25.466  0.00  0.00    +0.167 HD
ENDROOT
TORSDOF 0
ENDMDL
MODEL 6
REMARK VINA RESULT:      -5.9      3.139      4.085
REMARK  Name = 697993
REMARK  0 active torsions:
REMARK  status: ('A' for Active; 'I' for Inactive)
REMARK                            x       y       z     vdW  Elec       q    Type
REMARK                         _______ _______ _______ _____ _____    ______ ____
ROOT
ATOM      1  S   UNL     1      34.148 -16.039 -24.795  0.00  0.00    -0.061 S 
ATOM      2  S   UNL     1      33.697 -13.118 -24.026  0.00  0.00    -0.025 S 
ATOM      3  N   UNL     1      34.401 -15.139 -22.376  0.00  0.00    -0.342 N 
ATOM      4  C   UNL     1      34.692 -16.505 -22.286  0.00  0.00    +0.063 A 
ATOM      5  C   UNL     1      34.607 -17.170 -23.507  0.00  0.00    +0.047 A 
ATOM      6  C   UNL     1      35.034 -17.168 -21.119  0.00  0.00    +0.017 C 
ATOM      7  C   UNL     1      34.864 -18.527 -23.596  0.00  0.00    +0.008 C 
ATOM      8  C   UNL     1      34.082 -14.687 -23.646  0.00  0.00    +0.124 A 
ATOM      9  C   UNL     1      35.296 -18.538 -21.199  0.00  0.00    +0.002 C 
ATOM     10  C   UNL     1      35.211 -19.212 -22.428  0.00  0.00    +0.001 C 
ATOM     11  H   UNL     1      34.421 -14.542 -21.594  0.00  0.00    +0.167 HD
ENDROOT
TORSDOF 0
ENDMDL
MODEL 7
REMARK VINA RESULT:      -5.9      2.580      5.111
REMARK  Name = 697993
REMARK  0 active torsions:
REMARK  status: ('A' for Active; 'I' for Inactive)
REMARK                            x       y       z     vdW  Elec       q    Type
REMARK                         _______ _______ _______ _____ _____    ______ ____
ROOT
ATOM      1  S   UNL     1      35.486 -18.550 -23.060  0.00  0.00    -0.061 S 
ATOM      2  S   UNL     1      36.017 -20.202 -20.546  0.00  0.00    -0.025 S 
ATOM      3  N   UNL     1      35.234 -17.618 -20.654  0.00  0.00    -0.342 N 
ATOM      4  C   UNL     1      34.900 -16.548 -21.492  0.00  0.00    +0.063 A 
ATOM      5  C   UNL     1      34.979 -16.863 -22.847  0.00  0.00    +0.047 A 
ATOM      6  C   UNL     1      34.524 -15.288 -21.060  0.00  0.00    +0.017 C 
ATOM      7  C   UNL     1      34.682 -15.919 -23.814  0.00  0.00    +0.008 C 
ATOM      8  C   UNL     1      35.580 -18.791 -21.304  0.00  0.00    +0.124 A 
ATOM      9  C   UNL     1      34.223 -14.328 -22.029  0.00  0.00    +0.002 C 
ATOM     10  C   UNL     1      34.301 -14.641 -23.396  0.00  0.00    +0.001 C 
ATOM     11  H   UNL     1      35.223 -17.543 -19.673  0.00  0.00    +0.167 HD
ENDROOT
TORSDOF 0
ENDMDL
MODEL 8
REMARK VINA RESULT:      -5.8      4.079      5.132
REMARK  Name = 697993
REMARK  0 active torsions:
REMARK  status: ('A' for Active; 'I' for Inactive)
REMARK                            x       y       z     vdW  Elec       q    Type
REMARK                         _______ _______ _______ _____ _____    ______ ____
ROOT
ATOM      1  S   UNL     1      34.251 -16.520 -25.024  0.00  0.00    -0.061 S 
ATOM      2  S   UNL     1      32.894 -14.243 -26.543  0.00  0.00    -0.025 S 
ATOM      3  N   UNL     1      33.353 -14.372 -23.882  0.00  0.00    -0.342 N 
ATOM      4  C   UNL     1      33.888 -15.138 -22.840  0.00  0.00    +0.063 A 
ATOM      5  C   UNL     1      34.426 -16.350 -23.267  0.00  0.00    +0.047 A 
ATOM      6  C   UNL     1      33.900 -14.765 -21.507  0.00  0.00    +0.017 C 
ATOM      7  C   UNL     1      34.997 -17.230 -22.364  0.00  0.00    +0.008 C 
ATOM      8  C   UNL     1      33.449 -14.941 -25.142  0.00  0.00    +0.124 A 
ATOM      9  C   UNL     1      34.474 -15.647 -20.588  0.00  0.00    +0.002 C 
ATOM     10  C   UNL     1      35.018 -16.870 -21.013  0.00  0.00    +0.001 C 
ATOM     11  H   UNL     1      32.938 -13.492 -23.732  0.00  0.00    +0.167 HD
ENDROOT
TORSDOF 0
ENDMDL
MODEL 9
REMARK VINA RESULT:      -5.7      1.389      2.093
REMARK  Name = 697993
REMARK  0 active torsions:
REMARK  status: ('A' for Active; 'I' for Inactive)
REMARK                            x       y       z     vdW  Elec       q    Type
REMARK                         _______ _______ _______ _____ _____    ______ ____
ROOT
ATOM      1  S   UNL     1      33.445 -19.259 -21.321  0.00  0.00    -0.061 S 
ATOM      2  S   UNL     1      35.335 -17.230 -22.602  0.00  0.00    -0.025 S 
ATOM      3  N   UNL     1      36.003 -19.218 -20.897  0.00  0.00    -0.342 N 
ATOM      4  C   UNL     1      35.526 -20.286 -20.129  0.00  0.00    +0.063 A 
ATOM      5  C   UNL     1      34.149 -20.468 -20.230  0.00  0.00    +0.047 A 
ATOM      6  C   UNL     1      36.311 -21.105 -19.335  0.00  0.00    +0.017 C 
ATOM      7  C   UNL     1      33.513 -21.481 -19.534  0.00  0.00    +0.008 C 
ATOM      8  C   UNL     1      35.038 -18.532 -21.617  0.00  0.00    +0.124 A 
ATOM      9  C   UNL     1      35.679 -22.131 -18.629  0.00  0.00    +0.002 C 
ATOM     10  C   UNL     1      34.291 -22.317 -18.728  0.00  0.00    +0.001 C 
ATOM     11  H   UNL     1      36.955 -18.970 -20.925  0.00  0.00    +0.167 HD
ENDROOT
TORSDOF 0
ENDMDL
