MODEL 1
REMARK VINA RESULT:      -9.6      0.000      0.000
REMARK  Name = 445015
REMARK  13 active torsions:
REMARK  status: ('A' for Active; 'I' for Inactive)
REMARK    1  A    between atoms: C_1  and  C_4
REMARK    2  A    between atoms: C_2  and  C_15
REMARK    3  A    between atoms: C_4  and  C_5
REMARK    4  A    between atoms: C_5  and  C_7
REMARK    5  A    between atoms: C_6  and  C_9
REMARK    6  A    between atoms: C_9  and  C_10
REMARK    7  A    between atoms: C_10  and  C_11
REMARK    8  A    between atoms: C_15  and  O_16
REMARK    9  A    between atoms: O_16  and  N_18
REMARK   10  A    between atoms: C_19  and  C_21
REMARK   11  A    between atoms: C_21  and  P_22
REMARK   12  A    between atoms: P_22  and  O_24
REMARK   13  A    between atoms: P_22  and  O_26
REMARK                            x       y       z     vdW  Elec       q    Type
REMARK                         _______ _______ _______ _____ _____    ______ ____
ROOT
ATOM      1  C   UNL     1      34.537 -22.541 -18.136  0.00  0.00    -0.045 C 
ATOM      2  C   UNL     1      34.012 -23.208 -17.090  0.00  0.00    -0.000 C 
ATOM      3  C   UNL     1      35.948 -22.018 -18.074  0.00  0.00    +0.026 C 
ENDROOT
BRANCH   1   4
ATOM      4  C   UNL     1      33.811 -22.279 -19.437  0.00  0.00    +0.026 C 
BRANCH   4   5
ATOM      5  C   UNL     1      33.208 -20.870 -19.487  0.00  0.00    +0.030 C 
BRANCH   5   7
ATOM      6  C   UNL     1      34.431 -19.725 -21.439  0.00  0.00    -0.048 C 
ATOM      7  C   UNL     1      33.342 -20.269 -20.859  0.00  0.00    -0.034 C 
ATOM      8  C   UNL     1      35.732 -19.673 -20.677  0.00  0.00    +0.026 C 
BRANCH   6   9
ATOM      9  C   UNL     1      34.463 -19.091 -22.814  0.00  0.00    +0.026 C 
BRANCH   9  10
ATOM     10  C   UNL     1      35.588 -18.064 -23.006  0.00  0.00    +0.030 C 
BRANCH  10  11
ATOM     11  C   UNL     1      35.071 -16.675 -23.260  0.00  0.00    -0.034 C 
ATOM     12  C   UNL     1      34.688 -15.750 -22.360  0.00  0.00    -0.048 C 
ATOM     13  C   UNL     1      34.179 -14.376 -22.686  0.00  0.00    +0.026 C 
ATOM     14  C   UNL     1      34.742 -16.054 -20.886  0.00  0.00    +0.026 C 
ENDBRANCH  10  11
ENDBRANCH   9  10
ENDBRANCH   6   9
ENDBRANCH   5   7
ENDBRANCH   4   5
ENDBRANCH   1   4
BRANCH   2  15
ATOM     15  C   UNL     1      34.681 -23.521 -15.790  0.00  0.00    +0.197 C 
BRANCH  15  16
ATOM     16  O   UNL     1      35.227 -24.832 -15.866  0.00  0.00    -0.262 OA
BRANCH  16  18
ATOM     17  O   UNL     1      36.835 -27.005 -15.878  0.00  0.00    -0.272 OA
ATOM     18  N   UNL     1      36.420 -24.858 -15.121  0.00  0.00    -0.192 N 
ATOM     19  C   UNL     1      37.123 -26.037 -15.178  0.00  0.00    +0.257 C 
ATOM     20  H   UNL     1      36.730 -24.087 -14.595  0.00  0.00    +0.183 HD
BRANCH  19  21
ATOM     21  C   UNL     1      38.326 -26.023 -14.271  0.00  0.00    +0.202 C 
BRANCH  21  22
ATOM     22  P   UNL     1      39.711 -25.057 -14.905  0.00  0.00    +0.346 P 
ATOM     23  O   UNL     1      40.713 -24.691 -13.864  0.00  0.00    -0.258 OA
BRANCH  22  24
ATOM     24  O   UNL     1      40.250 -25.972 -16.116  0.00  0.00    -0.323 OA
ATOM     25  H   UNL     1      39.565 -26.039 -16.801  0.00  0.00    +0.220 HD
ENDBRANCH  22  24
BRANCH  22  26
ATOM     26  O   UNL     1      38.974 -23.831 -15.643  0.00  0.00    -0.323 OA
ATOM     27  H   UNL     1      38.129 -24.136 -16.011  0.00  0.00    +0.220 HD
ENDBRANCH  22  26
ENDBRANCH  21  22
ENDBRANCH  19  21
ENDBRANCH  16  18
ENDBRANCH  15  16
ENDBRANCH   2  15
TORSDOF 13
ENDMDL
MODEL 2
REMARK VINA RESULT:      -9.4      0.964      1.820
REMARK  Name = 445015
REMARK  13 active torsions:
REMARK  status: ('A' for Active; 'I' for Inactive)
REMARK    1  A    between atoms: C_1  and  C_4
REMARK    2  A    between atoms: C_2  and  C_15
REMARK    3  A    between atoms: C_4  and  C_5
REMARK    4  A    between atoms: C_5  and  C_7
REMARK    5  A    between atoms: C_6  and  C_9
REMARK    6  A    between atoms: C_9  and  C_10
REMARK    7  A    between atoms: C_10  and  C_11
REMARK    8  A    between atoms: C_15  and  O_16
REMARK    9  A    between atoms: O_16  and  N_18
REMARK   10  A    between atoms: C_19  and  C_21
REMARK   11  A    between atoms: C_21  and  P_22
REMARK   12  A    between atoms: P_22  and  O_24
REMARK   13  A    between atoms: P_22  and  O_26
REMARK                            x       y       z     vdW  Elec       q    Type
REMARK                         _______ _______ _______ _____ _____    ______ ____
ROOT
ATOM      1  C   UNL     1      35.217 -22.471 -17.533  0.00  0.00    -0.045 C 
ATOM      2  C   UNL     1      35.575 -22.888 -16.303  0.00  0.00    -0.000 C 
ATOM      3  C   UNL     1      33.857 -22.810 -18.085  0.00  0.00    +0.026 C 
ENDROOT
BRANCH   1   4
ATOM      4  C   UNL     1      36.088 -21.632 -18.442  0.00  0.00    +0.026 C 
BRANCH   4   5
ATOM      5  C   UNL     1      35.633 -21.705 -19.904  0.00  0.00    +0.030 C 
BRANCH   5   7
ATOM      6  C   UNL     1      34.443 -19.614 -20.814  0.00  0.00    -0.048 C 
ATOM      7  C   UNL     1      35.543 -20.334 -20.516  0.00  0.00    -0.034 C 
ATOM      8  C   UNL     1      33.078 -20.189 -20.528  0.00  0.00    +0.026 C 
BRANCH   6   9
ATOM      9  C   UNL     1      34.444 -18.255 -21.481  0.00  0.00    +0.026 C 
BRANCH   9  10
ATOM     10  C   UNL     1      35.454 -18.117 -22.629  0.00  0.00    +0.030 C 
BRANCH  10  11
ATOM     11  C   UNL     1      34.828 -17.617 -23.900  0.00  0.00    -0.034 C 
ATOM     12  C   UNL     1      34.461 -16.359 -24.211  0.00  0.00    -0.048 C 
ATOM     13  C   UNL     1      33.837 -15.929 -25.507  0.00  0.00    +0.026 C 
ATOM     14  C   UNL     1      34.659 -15.242 -23.221  0.00  0.00    +0.026 C 
ENDBRANCH  10  11
ENDBRANCH   9  10
ENDBRANCH   6   9
ENDBRANCH   5   7
ENDBRANCH   4   5
ENDBRANCH   1   4
BRANCH   2  15
ATOM     15  C   UNL     1      34.756 -23.695 -15.349  0.00  0.00    +0.197 C 
BRANCH  15  16
ATOM     16  O   UNL     1      35.198 -25.046 -15.401  0.00  0.00    -0.262 OA
BRANCH  16  18
ATOM     17  O   UNL     1      36.898 -27.085 -15.911  0.00  0.00    -0.272 OA
ATOM     18  N   UNL     1      36.450 -25.126 -14.764  0.00  0.00    -0.192 N 
ATOM     19  C   UNL     1      37.199 -26.234 -15.078  0.00  0.00    +0.257 C 
ATOM     20  H   UNL     1      36.768 -24.438 -14.137  0.00  0.00    +0.183 HD
BRANCH  19  21
ATOM     21  C   UNL     1      38.472 -26.302 -14.275  0.00  0.00    +0.202 C 
BRANCH  21  22
ATOM     22  P   UNL     1      39.835 -25.353 -14.980  0.00  0.00    +0.346 P 
ATOM     23  O   UNL     1      40.678 -26.130 -15.931  0.00  0.00    -0.258 OA
BRANCH  22  24
ATOM     24  O   UNL     1      39.085 -24.063 -15.588  0.00  0.00    -0.323 OA
ATOM     25  H   UNL     1      38.610 -24.316 -16.396  0.00  0.00    +0.220 HD
ENDBRANCH  22  24
BRANCH  22  26
ATOM     26  O   UNL     1      40.581 -24.786 -13.670  0.00  0.00    -0.323 OA
ATOM     27  H   UNL     1      41.524 -24.663 -13.864  0.00  0.00    +0.220 HD
ENDBRANCH  22  26
ENDBRANCH  21  22
ENDBRANCH  19  21
ENDBRANCH  16  18
ENDBRANCH  15  16
ENDBRANCH   2  15
TORSDOF 13
ENDMDL
MODEL 3
REMARK VINA RESULT:      -9.4      1.612      2.481
REMARK  Name = 445015
REMARK  13 active torsions:
REMARK  status: ('A' for Active; 'I' for Inactive)
REMARK    1  A    between atoms: C_1  and  C_4
REMARK    2  A    between atoms: C_2  and  C_15
REMARK    3  A    between atoms: C_4  and  C_5
REMARK    4  A    between atoms: C_5  and  C_7
REMARK    5  A    between atoms: C_6  and  C_9
REMARK    6  A    between atoms: C_9  and  C_10
REMARK    7  A    between atoms: C_10  and  C_11
REMARK    8  A    between atoms: C_15  and  O_16
REMARK    9  A    between atoms: O_16  and  N_18
REMARK   10  A    between atoms: C_19  and  C_21
REMARK   11  A    between atoms: C_21  and  P_22
REMARK   12  A    between atoms: P_22  and  O_24
REMARK   13  A    between atoms: P_22  and  O_26
REMARK                            x       y       z     vdW  Elec       q    Type
REMARK                         _______ _______ _______ _____ _____    ______ ____
ROOT
ATOM      1  C   UNL     1      33.042 -23.349 -15.787  0.00  0.00    -0.045 C 
ATOM      2  C   UNL     1      34.321 -23.355 -15.365  0.00  0.00    -0.000 C 
ATOM      3  C   UNL     1      31.917 -23.567 -14.810  0.00  0.00    +0.026 C 
ENDROOT
BRANCH   1   4
ATOM      4  C   UNL     1      32.613 -23.106 -17.218  0.00  0.00    +0.026 C 
BRANCH   4   5
ATOM      5  C   UNL     1      33.809 -22.864 -18.145  0.00  0.00    +0.030 C 
BRANCH   5   7
ATOM      6  C   UNL     1      34.378 -21.051 -19.878  0.00  0.00    -0.048 C 
ATOM      7  C   UNL     1      33.514 -21.780 -19.145  0.00  0.00    -0.034 C 
ATOM      8  C   UNL     1      35.861 -21.290 -19.735  0.00  0.00    +0.026 C 
BRANCH   6   9
ATOM      9  C   UNL     1      33.994 -19.936 -20.828  0.00  0.00    +0.026 C 
BRANCH   9  10
ATOM     10  C   UNL     1      35.185 -19.270 -21.532  0.00  0.00    +0.030 C 
BRANCH  10  11
ATOM     11  C   UNL     1      34.937 -19.028 -22.995  0.00  0.00    -0.034 C 
ATOM     12  C   UNL     1      34.899 -17.853 -23.651  0.00  0.00    -0.048 C 
ATOM     13  C   UNL     1      34.644 -17.683 -25.120  0.00  0.00    +0.026 C 
ATOM     14  C   UNL     1      35.116 -16.560 -22.910  0.00  0.00    +0.026 C 
ENDBRANCH  10  11
ENDBRANCH   9  10
ENDBRANCH   6   9
ENDBRANCH   5   7
ENDBRANCH   4   5
ENDBRANCH   1   4
BRANCH   2  15
ATOM     15  C   UNL     1      34.810 -23.564 -13.968  0.00  0.00    +0.197 C 
BRANCH  15  16
ATOM     16  O   UNL     1      35.320 -24.887 -13.859  0.00  0.00    -0.262 OA
BRANCH  16  18
ATOM     17  O   UNL     1      36.900 -26.100 -12.032  0.00  0.00    -0.272 OA
ATOM     18  N   UNL     1      36.722 -24.830 -13.957  0.00  0.00    -0.192 N 
ATOM     19  C   UNL     1      37.408 -25.450 -12.942  0.00  0.00    +0.257 C 
ATOM     20  H   UNL     1      37.180 -24.377 -14.701  0.00  0.00    +0.183 HD
BRANCH  19  21
ATOM     21  C   UNL     1      38.897 -25.251 -13.061  0.00  0.00    +0.202 C 
BRANCH  21  22
ATOM     22  P   UNL     1      39.530 -25.442 -14.739  0.00  0.00    +0.346 P 
ATOM     23  O   UNL     1      40.965 -25.840 -14.798  0.00  0.00    -0.258 OA
BRANCH  22  24
ATOM     24  O   UNL     1      38.481 -26.475 -15.394  0.00  0.00    -0.323 OA
ATOM     25  H   UNL     1      38.028 -26.048 -16.138  0.00  0.00    +0.220 HD
ENDBRANCH  22  24
BRANCH  22  26
ATOM     26  O   UNL     1      39.158 -24.030 -15.417  0.00  0.00    -0.323 OA
ATOM     27  H   UNL     1      38.420 -24.153 -16.036  0.00  0.00    +0.220 HD
ENDBRANCH  22  26
ENDBRANCH  21  22
ENDBRANCH  19  21
ENDBRANCH  16  18
ENDBRANCH  15  16
ENDBRANCH   2  15
TORSDOF 13
ENDMDL
MODEL 4
REMARK VINA RESULT:      -9.3      1.998      2.851
REMARK  Name = 445015
REMARK  13 active torsions:
REMARK  status: ('A' for Active; 'I' for Inactive)
REMARK    1  A    between atoms: C_1  and  C_4
REMARK    2  A    between atoms: C_2  and  C_15
REMARK    3  A    between atoms: C_4  and  C_5
REMARK    4  A    between atoms: C_5  and  C_7
REMARK    5  A    between atoms: C_6  and  C_9
REMARK    6  A    between atoms: C_9  and  C_10
REMARK    7  A    between atoms: C_10  and  C_11
REMARK    8  A    between atoms: C_15  and  O_16
REMARK    9  A    between atoms: O_16  and  N_18
REMARK   10  A    between atoms: C_19  and  C_21
REMARK   11  A    between atoms: C_21  and  P_22
REMARK   12  A    between atoms: P_22  and  O_24
REMARK   13  A    between atoms: P_22  and  O_26
REMARK                            x       y       z     vdW  Elec       q    Type
REMARK                         _______ _______ _______ _____ _____    ______ ____
ROOT
ATOM      1  C   UNL     1      33.614 -23.254 -16.262  0.00  0.00    -0.045 C 
ATOM      2  C   UNL     1      33.982 -23.631 -15.023  0.00  0.00    -0.000 C 
ATOM      3  C   UNL     1      32.155 -23.172 -16.630  0.00  0.00    +0.026 C 
ENDROOT
BRANCH   1   4
ATOM      4  C   UNL     1      34.577 -22.863 -17.361  0.00  0.00    +0.026 C 
BRANCH   4   5
ATOM      5  C   UNL     1      33.849 -22.483 -18.656  0.00  0.00    +0.030 C 
BRANCH   5   7
ATOM      6  C   UNL     1      34.360 -20.566 -20.293  0.00  0.00    -0.048 C 
ATOM      7  C   UNL     1      34.714 -21.623 -19.535  0.00  0.00    -0.034 C 
ATOM      8  C   UNL     1      32.919 -20.120 -20.320  0.00  0.00    +0.026 C 
BRANCH   6   9
ATOM      9  C   UNL     1      35.293 -19.785 -21.194  0.00  0.00    +0.026 C 
BRANCH   9  10
ATOM     10  C   UNL     1      34.617 -19.196 -22.441  0.00  0.00    +0.030 C 
BRANCH  10  11
ATOM     11  C   UNL     1      34.697 -17.696 -22.493  0.00  0.00    -0.034 C 
ATOM     12  C   UNL     1      34.710 -16.899 -23.579  0.00  0.00    -0.048 C 
ATOM     13  C   UNL     1      34.792 -15.400 -23.558  0.00  0.00    +0.026 C 
ATOM     14  C   UNL     1      34.646 -17.493 -24.961  0.00  0.00    +0.026 C 
ENDBRANCH  10  11
ENDBRANCH   9  10
ENDBRANCH   6   9
ENDBRANCH   5   7
ENDBRANCH   4   5
ENDBRANCH   1   4
BRANCH   2  15
ATOM     15  C   UNL     1      33.084 -24.004 -13.887  0.00  0.00    +0.197 C 
BRANCH  15  16
ATOM     16  O   UNL     1      33.888 -24.301 -12.753  0.00  0.00    -0.262 OA
BRANCH  16  18
ATOM     17  O   UNL     1      35.765 -25.189 -11.022  0.00  0.00    -0.272 OA
ATOM     18  N   UNL     1      35.149 -24.733 -13.204  0.00  0.00    -0.192 N 
ATOM     19  C   UNL     1      36.026 -25.118 -12.220  0.00  0.00    +0.257 C 
ATOM     20  H   UNL     1      35.387 -24.758 -14.159  0.00  0.00    +0.183 HD
BRANCH  19  21
ATOM     21  C   UNL     1      37.384 -25.461 -12.775  0.00  0.00    +0.202 C 
BRANCH  21  22
ATOM     22  P   UNL     1      37.366 -25.938 -14.514  0.00  0.00    +0.346 P 
ATOM     23  O   UNL     1      37.146 -24.796 -15.447  0.00  0.00    -0.258 OA
BRANCH  22  24
ATOM     24  O   UNL     1      38.762 -26.725 -14.676  0.00  0.00    -0.323 OA
ATOM     25  H   UNL     1      39.224 -26.742 -13.823  0.00  0.00    +0.220 HD
ENDBRANCH  22  24
BRANCH  22  26
ATOM     26  O   UNL     1      36.257 -27.104 -14.546  0.00  0.00    -0.323 OA
ATOM     27  H   UNL     1      35.859 -27.146 -15.430  0.00  0.00    +0.220 HD
ENDBRANCH  22  26
ENDBRANCH  21  22
ENDBRANCH  19  21
ENDBRANCH  16  18
ENDBRANCH  15  16
ENDBRANCH   2  15
TORSDOF 13
ENDMDL
MODEL 5
REMARK VINA RESULT:      -9.1      2.308      3.015
REMARK  Name = 445015
REMARK  13 active torsions:
REMARK  status: ('A' for Active; 'I' for Inactive)
REMARK    1  A    between atoms: C_1  and  C_4
REMARK    2  A    between atoms: C_2  and  C_15
REMARK    3  A    between atoms: C_4  and  C_5
REMARK    4  A    between atoms: C_5  and  C_7
REMARK    5  A    between atoms: C_6  and  C_9
REMARK    6  A    between atoms: C_9  and  C_10
REMARK    7  A    between atoms: C_10  and  C_11
REMARK    8  A    between atoms: C_15  and  O_16
REMARK    9  A    between atoms: O_16  and  N_18
REMARK   10  A    between atoms: C_19  and  C_21
REMARK   11  A    between atoms: C_21  and  P_22
REMARK   12  A    between atoms: P_22  and  O_24
REMARK   13  A    between atoms: P_22  and  O_26
REMARK                            x       y       z     vdW  Elec       q    Type
REMARK                         _______ _______ _______ _____ _____    ______ ____
ROOT
ATOM      1  C   UNL     1      34.546 -22.860 -16.722  0.00  0.00    -0.045 C 
ATOM      2  C   UNL     1      35.834 -22.495 -16.876  0.00  0.00    -0.000 C 
ATOM      3  C   UNL     1      34.018 -23.233 -15.362  0.00  0.00    +0.026 C 
ENDROOT
BRANCH   1   4
ATOM      4  C   UNL     1      33.529 -22.906 -17.841  0.00  0.00    +0.026 C 
BRANCH   4   5
ATOM      5  C   UNL     1      34.181 -22.750 -19.220  0.00  0.00    +0.030 C 
BRANCH   5   7
ATOM      6  C   UNL     1      34.632 -20.465 -20.311  0.00  0.00    -0.048 C 
ATOM      7  C   UNL     1      33.817 -21.434 -19.849  0.00  0.00    -0.034 C 
ATOM      8  C   UNL     1      36.127 -20.645 -20.220  0.00  0.00    +0.026 C 
BRANCH   6   9
ATOM      9  C   UNL     1      34.177 -19.140 -20.886  0.00  0.00    +0.026 C 
BRANCH   9  10
ATOM     10  C   UNL     1      35.323 -18.211 -21.309  0.00  0.00    +0.030 C 
BRANCH  10  11
ATOM     11  C   UNL     1      35.013 -17.435 -22.559  0.00  0.00    -0.034 C 
ATOM     12  C   UNL     1      34.839 -17.903 -23.810  0.00  0.00    -0.048 C 
ATOM     13  C   UNL     1      34.530 -17.066 -25.017  0.00  0.00    +0.026 C 
ATOM     14  C   UNL     1      34.956 -19.377 -24.094  0.00  0.00    +0.026 C 
ENDBRANCH  10  11
ENDBRANCH   9  10
ENDBRANCH   6   9
ENDBRANCH   5   7
ENDBRANCH   4   5
ENDBRANCH   1   4
BRANCH   2  15
ATOM     15  C   UNL     1      36.880 -22.405 -15.812  0.00  0.00    +0.197 C 
BRANCH  15  16
ATOM     16  O   UNL     1      37.523 -23.668 -15.700  0.00  0.00    -0.262 OA
BRANCH  16  18
ATOM     17  O   UNL     1      36.319 -25.828 -14.610  0.00  0.00    -0.272 OA
ATOM     18  N   UNL     1      37.669 -23.971 -14.334  0.00  0.00    -0.192 N 
ATOM     19  C   UNL     1      36.970 -25.070 -13.897  0.00  0.00    +0.257 C 
ATOM     20  H   UNL     1      38.232 -23.432 -13.731  0.00  0.00    +0.183 HD
BRANCH  19  21
ATOM     21  C   UNL     1      37.091 -25.261 -12.408  0.00  0.00    +0.202 C 
BRANCH  21  22
ATOM     22  P   UNL     1      36.829 -23.755 -11.451  0.00  0.00    +0.346 P 
ATOM     23  O   UNL     1      36.382 -24.003 -10.051  0.00  0.00    -0.258 OA
BRANCH  22  24
ATOM     24  O   UNL     1      38.233 -22.984 -11.620  0.00  0.00    -0.323 OA
ATOM     25  H   UNL     1      38.480 -22.964 -12.558  0.00  0.00    +0.220 HD
ENDBRANCH  22  24
BRANCH  22  26
ATOM     26  O   UNL     1      35.814 -22.921 -12.382  0.00  0.00    -0.323 OA
ATOM     27  H   UNL     1      36.306 -22.513 -13.112  0.00  0.00    +0.220 HD
ENDBRANCH  22  26
ENDBRANCH  21  22
ENDBRANCH  19  21
ENDBRANCH  16  18
ENDBRANCH  15  16
ENDBRANCH   2  15
TORSDOF 13
ENDMDL
MODEL 6
REMARK VINA RESULT:      -9.0      2.387      3.145
REMARK  Name = 445015
REMARK  13 active torsions:
REMARK  status: ('A' for Active; 'I' for Inactive)
REMARK    1  A    between atoms: C_1  and  C_4
REMARK    2  A    between atoms: C_2  and  C_15
REMARK    3  A    between atoms: C_4  and  C_5
REMARK    4  A    between atoms: C_5  and  C_7
REMARK    5  A    between atoms: C_6  and  C_9
REMARK    6  A    between atoms: C_9  and  C_10
REMARK    7  A    between atoms: C_10  and  C_11
REMARK    8  A    between atoms: C_15  and  O_16
REMARK    9  A    between atoms: O_16  and  N_18
REMARK   10  A    between atoms: C_19  and  C_21
REMARK   11  A    between atoms: C_21  and  P_22
REMARK   12  A    between atoms: P_22  and  O_24
REMARK   13  A    between atoms: P_22  and  O_26
REMARK                            x       y       z     vdW  Elec       q    Type
REMARK                         _______ _______ _______ _____ _____    ______ ____
ROOT
ATOM      1  C   UNL     1      36.398 -21.821 -17.987  0.00  0.00    -0.045 C 
ATOM      2  C   UNL     1      37.165 -21.927 -16.884  0.00  0.00    -0.000 C 
ATOM      3  C   UNL     1      35.008 -22.400 -18.005  0.00  0.00    +0.026 C 
ENDROOT
BRANCH   1   4
ATOM      4  C   UNL     1      36.818 -21.119 -19.259  0.00  0.00    +0.026 C 
BRANCH   4   5
ATOM      5  C   UNL     1      35.747 -21.216 -20.351  0.00  0.00    +0.030 C 
BRANCH   5   7
ATOM      6  C   UNL     1      34.058 -19.342 -20.851  0.00  0.00    -0.048 C 
ATOM      7  C   UNL     1      35.304 -19.852 -20.804  0.00  0.00    -0.034 C 
ATOM      8  C   UNL     1      32.891 -20.189 -20.408  0.00  0.00    +0.026 C 
BRANCH   6   9
ATOM      9  C   UNL     1      33.695 -17.968 -21.373  0.00  0.00    +0.026 C 
BRANCH   9  10
ATOM     10  C   UNL     1      34.806 -16.920 -21.211  0.00  0.00    +0.030 C 
BRANCH  10  11
ATOM     11  C   UNL     1      34.722 -15.819 -22.231  0.00  0.00    -0.034 C 
ATOM     12  C   UNL     1      34.006 -14.680 -22.172  0.00  0.00    -0.048 C 
ATOM     13  C   UNL     1      33.969 -13.619 -23.233  0.00  0.00    +0.026 C 
ATOM     14  C   UNL     1      33.145 -14.384 -20.973  0.00  0.00    +0.026 C 
ENDBRANCH  10  11
ENDBRANCH   9  10
ENDBRANCH   6   9
ENDBRANCH   5   7
ENDBRANCH   4   5
ENDBRANCH   1   4
BRANCH   2  15
ATOM     15  C   UNL     1      36.802 -22.583 -15.591  0.00  0.00    +0.197 C 
BRANCH  15  16
ATOM     16  O   UNL     1      37.895 -23.391 -15.171  0.00  0.00    -0.262 OA
BRANCH  16  18
ATOM     17  O   UNL     1      37.057 -25.922 -14.723  0.00  0.00    -0.272 OA
ATOM     18  N   UNL     1      37.630 -23.850 -13.868  0.00  0.00    -0.192 N 
ATOM     19  C   UNL     1      37.168 -25.141 -13.781  0.00  0.00    +0.257 C 
ATOM     20  H   UNL     1      37.764 -23.286 -13.073  0.00  0.00    +0.183 HD
BRANCH  19  21
ATOM     21  C   UNL     1      36.806 -25.519 -12.369  0.00  0.00    +0.202 C 
BRANCH  21  22
ATOM     22  P   UNL     1      36.136 -24.157 -11.395  0.00  0.00    +0.346 P 
ATOM     23  O   UNL     1      37.172 -23.211 -10.894  0.00  0.00    -0.258 OA
BRANCH  22  24
ATOM     24  O   UNL     1      35.026 -23.533 -12.382  0.00  0.00    -0.323 OA
ATOM     25  H   UNL     1      34.414 -24.232 -12.663  0.00  0.00    +0.220 HD
ENDBRANCH  22  24
BRANCH  22  26
ATOM     26  O   UNL     1      35.271 -24.921 -10.272  0.00  0.00    -0.323 OA
ATOM     27  H   UNL     1      35.864 -25.251  -9.578  0.00  0.00    +0.220 HD
ENDBRANCH  22  26
ENDBRANCH  21  22
ENDBRANCH  19  21
ENDBRANCH  16  18
ENDBRANCH  15  16
ENDBRANCH   2  15
TORSDOF 13
ENDMDL
MODEL 7
REMARK VINA RESULT:      -9.0      2.553      3.453
REMARK  Name = 445015
REMARK  13 active torsions:
REMARK  status: ('A' for Active; 'I' for Inactive)
REMARK    1  A    between atoms: C_1  and  C_4
REMARK    2  A    between atoms: C_2  and  C_15
REMARK    3  A    between atoms: C_4  and  C_5
REMARK    4  A    between atoms: C_5  and  C_7
REMARK    5  A    between atoms: C_6  and  C_9
REMARK    6  A    between atoms: C_9  and  C_10
REMARK    7  A    between atoms: C_10  and  C_11
REMARK    8  A    between atoms: C_15  and  O_16
REMARK    9  A    between atoms: O_16  and  N_18
REMARK   10  A    between atoms: C_19  and  C_21
REMARK   11  A    between atoms: C_21  and  P_22
REMARK   12  A    between atoms: P_22  and  O_24
REMARK   13  A    between atoms: P_22  and  O_26
REMARK                            x       y       z     vdW  Elec       q    Type
REMARK                         _______ _______ _______ _____ _____    ______ ____
ROOT
ATOM      1  C   UNL     1      36.274 -21.752 -18.279  0.00  0.00    -0.045 C 
ATOM      2  C   UNL     1      36.953 -21.989 -17.141  0.00  0.00    -0.000 C 
ATOM      3  C   UNL     1      34.862 -22.250 -18.440  0.00  0.00    +0.026 C 
ENDROOT
BRANCH   1   4
ATOM      4  C   UNL     1      36.819 -20.973 -19.457  0.00  0.00    +0.026 C 
BRANCH   4   5
ATOM      5  C   UNL     1      35.782 -20.819 -20.575  0.00  0.00    +0.030 C 
BRANCH   5   7
ATOM      6  C   UNL     1      34.332 -18.735 -20.989  0.00  0.00    -0.048 C 
ATOM      7  C   UNL     1      35.516 -19.370 -20.876  0.00  0.00    -0.034 C 
ATOM      8  C   UNL     1      33.052 -19.511 -20.804  0.00  0.00    +0.026 C 
BRANCH   6   9
ATOM      9  C   UNL     1      34.155 -17.275 -21.348  0.00  0.00    +0.026 C 
BRANCH   9  10
ATOM     10  C   UNL     1      35.110 -16.776 -22.441  0.00  0.00    +0.030 C 
BRANCH  10  11
ATOM     11  C   UNL     1      34.408 -15.995 -23.517  0.00  0.00    -0.034 C 
ATOM     12  C   UNL     1      34.137 -16.375 -24.781  0.00  0.00    -0.048 C 
ATOM     13  C   UNL     1      33.428 -15.540 -25.807  0.00  0.00    +0.026 C 
ATOM     14  C   UNL     1      34.555 -17.734 -25.274  0.00  0.00    +0.026 C 
ENDBRANCH  10  11
ENDBRANCH   9  10
ENDBRANCH   6   9
ENDBRANCH   5   7
ENDBRANCH   4   5
ENDBRANCH   1   4
BRANCH   2  15
ATOM     15  C   UNL     1      36.466 -22.727 -15.935  0.00  0.00    +0.197 C 
BRANCH  15  16
ATOM     16  O   UNL     1      37.517 -22.774 -14.978  0.00  0.00    -0.262 OA
BRANCH  16  18
ATOM     17  O   UNL     1      38.200 -25.334 -14.445  0.00  0.00    -0.272 OA
ATOM     18  N   UNL     1      37.039 -23.430 -13.829  0.00  0.00    -0.192 N 
ATOM     19  C   UNL     1      37.425 -24.742 -13.698  0.00  0.00    +0.257 C 
ATOM     20  H   UNL     1      36.468 -22.982 -13.164  0.00  0.00    +0.183 HD
BRANCH  19  21
ATOM     21  C   UNL     1      36.785 -25.404 -12.505  0.00  0.00    +0.202 C 
BRANCH  21  22
ATOM     22  P   UNL     1      35.739 -24.304 -11.531  0.00  0.00    +0.346 P 
ATOM     23  O   UNL     1      34.614 -23.705 -12.303  0.00  0.00    -0.258 OA
BRANCH  22  24
ATOM     24  O   UNL     1      35.325 -25.232 -10.281  0.00  0.00    -0.323 OA
ATOM     25  H   UNL     1      34.374 -25.421 -10.320  0.00  0.00    +0.220 HD
ENDBRANCH  22  24
BRANCH  22  26
ATOM     26  O   UNL     1      36.803 -23.268 -10.909  0.00  0.00    -0.323 OA
ATOM     27  H   UNL     1      36.542 -22.361 -11.137  0.00  0.00    +0.220 HD
ENDBRANCH  22  26
ENDBRANCH  21  22
ENDBRANCH  19  21
ENDBRANCH  16  18
ENDBRANCH  15  16
ENDBRANCH   2  15
TORSDOF 13
ENDMDL
MODEL 8
REMARK VINA RESULT:      -8.9      4.186      5.364
REMARK  Name = 445015
REMARK  13 active torsions:
REMARK  status: ('A' for Active; 'I' for Inactive)
REMARK    1  A    between atoms: C_1  and  C_4
REMARK    2  A    between atoms: C_2  and  C_15
REMARK    3  A    between atoms: C_4  and  C_5
REMARK    4  A    between atoms: C_5  and  C_7
REMARK    5  A    between atoms: C_6  and  C_9
REMARK    6  A    between atoms: C_9  and  C_10
REMARK    7  A    between atoms: C_10  and  C_11
REMARK    8  A    between atoms: C_15  and  O_16
REMARK    9  A    between atoms: O_16  and  N_18
REMARK   10  A    between atoms: C_19  and  C_21
REMARK   11  A    between atoms: C_21  and  P_22
REMARK   12  A    between atoms: P_22  and  O_24
REMARK   13  A    between atoms: P_22  and  O_26
REMARK                            x       y       z     vdW  Elec       q    Type
REMARK                         _______ _______ _______ _____ _____    ______ ____
ROOT
ATOM      1  C   UNL     1      35.168 -21.367 -19.402  0.00  0.00    -0.045 C 
ATOM      2  C   UNL     1      33.973 -21.933 -19.150  0.00  0.00    -0.000 C 
ATOM      3  C   UNL     1      36.343 -21.634 -18.497  0.00  0.00    +0.026 C 
ENDROOT
BRANCH   1   4
ATOM      4  C   UNL     1      35.459 -20.466 -20.582  0.00  0.00    +0.026 C 
BRANCH   4   5
ATOM      5  C   UNL     1      34.233 -19.640 -20.992  0.00  0.00    +0.030 C 
BRANCH   5   7
ATOM      6  C   UNL     1      34.857 -17.929 -22.807  0.00  0.00    -0.048 C 
ATOM      7  C   UNL     1      34.637 -18.295 -21.529  0.00  0.00    -0.034 C 
ATOM      8  C   UNL     1      34.700 -18.946 -23.910  0.00  0.00    +0.026 C 
BRANCH   6   9
ATOM      9  C   UNL     1      35.314 -16.557 -23.257  0.00  0.00    +0.026 C 
BRANCH   9  10
ATOM     10  C   UNL     1      34.203 -15.693 -23.869  0.00  0.00    +0.030 C 
BRANCH  10  11
ATOM     11  C   UNL     1      33.355 -15.013 -22.830  0.00  0.00    -0.034 C 
ATOM     12  C   UNL     1      32.989 -13.718 -22.769  0.00  0.00    -0.048 C 
ATOM     13  C   UNL     1      32.136 -13.104 -21.698  0.00  0.00    +0.026 C 
ATOM     14  C   UNL     1      33.442 -12.748 -23.828  0.00  0.00    +0.026 C 
ENDBRANCH  10  11
ENDBRANCH   9  10
ENDBRANCH   6   9
ENDBRANCH   5   7
ENDBRANCH   4   5
ENDBRANCH   1   4
BRANCH   2  15
ATOM     15  C   UNL     1      33.627 -22.849 -18.020  0.00  0.00    +0.197 C 
BRANCH  15  16
ATOM     16  O   UNL     1      32.211 -22.918 -17.910  0.00  0.00    -0.262 OA
BRANCH  16  18
ATOM     17  O   UNL     1      29.745 -22.406 -16.928  0.00  0.00    -0.272 OA
ATOM     18  N   UNL     1      31.885 -23.209 -16.573  0.00  0.00    -0.192 N 
ATOM     19  C   UNL     1      30.614 -22.861 -16.187  0.00  0.00    +0.257 C 
ATOM     20  H   UNL     1      32.524 -23.633 -15.955  0.00  0.00    +0.183 HD
BRANCH  19  21
ATOM     21  C   UNL     1      30.380 -23.104 -14.719  0.00  0.00    +0.202 C 
BRANCH  21  22
ATOM     22  P   UNL     1      30.835 -24.760 -14.169  0.00  0.00    +0.346 P 
ATOM     23  O   UNL     1      30.302 -25.848 -15.037  0.00  0.00    -0.258 OA
BRANCH  22  24
ATOM     24  O   UNL     1      32.439 -24.665 -14.059  0.00  0.00    -0.323 OA
ATOM     25  H   UNL     1      32.749 -23.872 -14.526  0.00  0.00    +0.220 HD
ENDBRANCH  22  24
BRANCH  22  26
ATOM     26  O   UNL     1      30.340 -24.769 -12.637  0.00  0.00    -0.323 OA
ATOM     27  H   UNL     1      30.070 -23.873 -12.381  0.00  0.00    +0.220 HD
ENDBRANCH  22  26
ENDBRANCH  21  22
ENDBRANCH  19  21
ENDBRANCH  16  18
ENDBRANCH  15  16
ENDBRANCH   2  15
TORSDOF 13
ENDMDL
MODEL 9
REMARK VINA RESULT:      -8.9      4.028      5.798
REMARK  Name = 445015
REMARK  13 active torsions:
REMARK  status: ('A' for Active; 'I' for Inactive)
REMARK    1  A    between atoms: C_1  and  C_4
REMARK    2  A    between atoms: C_2  and  C_15
REMARK    3  A    between atoms: C_4  and  C_5
REMARK    4  A    between atoms: C_5  and  C_7
REMARK    5  A    between atoms: C_6  and  C_9
REMARK    6  A    between atoms: C_9  and  C_10
REMARK    7  A    between atoms: C_10  and  C_11
REMARK    8  A    between atoms: C_15  and  O_16
REMARK    9  A    between atoms: O_16  and  N_18
REMARK   10  A    between atoms: C_19  and  C_21
REMARK   11  A    between atoms: C_21  and  P_22
REMARK   12  A    between atoms: P_22  and  O_24
REMARK   13  A    between atoms: P_22  and  O_26
REMARK                            x       y       z     vdW  Elec       q    Type
REMARK                         _______ _______ _______ _____ _____    ______ ____
ROOT
ATOM      1  C   UNL     1      36.041 -22.447 -16.825  0.00  0.00    -0.045 C 
ATOM      2  C   UNL     1      34.797 -22.900 -16.578  0.00  0.00    -0.000 C 
ATOM      3  C   UNL     1      37.180 -22.817 -15.912  0.00  0.00    +0.026 C 
ENDROOT
BRANCH   1   4
ATOM      4  C   UNL     1      36.419 -21.582 -18.007  0.00  0.00    +0.026 C 
BRANCH   4   5
ATOM      5  C   UNL     1      35.625 -21.947 -19.266  0.00  0.00    +0.030 C 
BRANCH   5   7
ATOM      6  C   UNL     1      34.451 -20.111 -20.632  0.00  0.00    -0.048 C 
ATOM      7  C   UNL     1      35.542 -20.783 -20.215  0.00  0.00    -0.034 C 
ATOM      8  C   UNL     1      33.089 -20.518 -20.128  0.00  0.00    +0.026 C 
BRANCH   6   9
ATOM      9  C   UNL     1      34.454 -18.977 -21.636  0.00  0.00    +0.026 C 
BRANCH   9  10
ATOM     10  C   UNL     1      35.170 -17.708 -21.150  0.00  0.00    +0.030 C 
BRANCH  10  11
ATOM     11  C   UNL     1      35.013 -16.552 -22.097  0.00  0.00    -0.034 C 
ATOM     12  C   UNL     1      34.389 -15.377 -21.883  0.00  0.00    -0.048 C 
ATOM     13  C   UNL     1      34.270 -14.261 -22.879  0.00  0.00    +0.026 C 
ATOM     14  C   UNL     1      33.729 -15.096 -20.560  0.00  0.00    +0.026 C 
ENDBRANCH  10  11
ENDBRANCH   9  10
ENDBRANCH   6   9
ENDBRANCH   5   7
ENDBRANCH   4   5
ENDBRANCH   1   4
BRANCH   2  15
ATOM     15  C   UNL     1      34.362 -23.775 -15.447  0.00  0.00    +0.197 C 
BRANCH  15  16
ATOM     16  O   UNL     1      33.221 -23.189 -14.833  0.00  0.00    -0.262 OA
BRANCH  16  18
ATOM     17  O   UNL     1      30.823 -23.298 -13.590  0.00  0.00    -0.272 OA
ATOM     18  N   UNL     1      32.073 -23.645 -15.505  0.00  0.00    -0.192 N 
ATOM     19  C   UNL     1      30.928 -23.693 -14.748  0.00  0.00    +0.257 C 
ATOM     20  H   UNL     1      32.088 -23.914 -16.452  0.00  0.00    +0.183 HD
BRANCH  19  21
ATOM     21  C   UNL     1      29.773 -24.294 -15.506  0.00  0.00    +0.202 C 
BRANCH  21  22
ATOM     22  P   UNL     1      28.824 -23.097 -16.466  0.00  0.00    +0.346 P 
ATOM     23  O   UNL     1      27.819 -23.718 -17.374  0.00  0.00    -0.258 OA
BRANCH  22  24
ATOM     24  O   UNL     1      28.241 -22.119 -15.327  0.00  0.00    -0.323 OA
ATOM     25  H   UNL     1      28.142 -21.224 -15.690  0.00  0.00    +0.220 HD
ENDBRANCH  22  24
BRANCH  22  26
ATOM     26  O   UNL     1      29.976 -22.225 -17.175  0.00  0.00    -0.323 OA
ATOM     27  H   UNL     1      30.794 -22.745 -17.218  0.00  0.00    +0.220 HD
ENDBRANCH  22  26
ENDBRANCH  21  22
ENDBRANCH  19  21
ENDBRANCH  16  18
ENDBRANCH  15  16
ENDBRANCH   2  15
TORSDOF 13
ENDMDL
