MODEL 1
REMARK VINA RESULT:     -10.8      0.000      0.000
REMARK  Name = 159326
REMARK  3 active torsions:
REMARK  status: ('A' for Active; 'I' for Inactive)
REMARK    1  A    between atoms: C_1  and  C_16
REMARK    2  A    between atoms: C_2  and  O_21
REMARK    3  A    between atoms: O_21  and  C_22
REMARK                            x       y       z     vdW  Elec       q    Type
REMARK                         _______ _______ _______ _____ _____    ______ ____
ROOT
ATOM      1  C   UNL     1      32.382 -11.726 -22.034  0.00  0.00    +0.061 C 
ATOM      2  C   UNL     1      32.518 -10.336 -22.058  0.00  0.00    +0.147 C 
ATOM      3  C   UNL     1      31.756 -12.342 -20.947  0.00  0.00    +0.005 C 
ATOM      4  C   UNL     1      32.030  -9.566 -21.001  0.00  0.00    +0.038 C 
ATOM      5  C   UNL     1      31.269 -11.572 -19.891  0.00  0.00    +0.000 C 
ATOM      6  C   UNL     1      31.406 -10.184 -19.918  0.00  0.00    +0.003 C 
ENDROOT
BRANCH   1  16
ATOM      7  S   UNL     1      33.522 -13.336 -25.427  0.00  0.00    -0.059 S 
ATOM      8  N   UNL     1      35.218 -17.607 -23.730  0.00  0.00    -0.306 N 
ATOM      9  N   UNL     1      34.377 -16.250 -21.954  0.00  0.00    -0.243 NA
ATOM     10  N   UNL     1      34.340 -15.538 -24.177  0.00  0.00    -0.257 N 
ATOM     11  N   UNL     1      33.404 -13.792 -22.886  0.00  0.00    -0.384 NA
ATOM     12  C   UNL     1      35.903 -18.169 -21.496  0.00  0.00    +0.048 C 
ATOM     13  C   UNL     1      35.625 -18.709 -22.891  0.00  0.00    +0.091 C 
ATOM     14  C   UNL     1      34.715 -17.336 -21.020  0.00  0.00    +0.130 C 
ATOM     15  C   UNL     1      34.631 -16.468 -23.211  0.00  0.00    +0.183 C 
ATOM     16  C   UNL     1      32.876 -12.536 -23.109  0.00  0.00    +0.125 C 
ATOM     17  C   UNL     1      33.780 -14.312 -24.036  0.00  0.00    +0.213 C 
ATOM     18  C   UNL     1      32.855 -12.116 -24.423  0.00  0.00    +0.125 C 
ATOM     19  H   UNL     1      35.364 -17.667 -24.702  0.00  0.00    +0.149 HD
ATOM     20  H   UNL     1      34.570 -15.795 -25.099  0.00  0.00    +0.158 HD
ENDBRANCH   1  16
BRANCH   2  21
ATOM     21  O   UNL     1      33.124  -9.705 -23.104  0.00  0.00    -0.454 OA
BRANCH  21  22
ATOM     22  C   UNL     1      32.607  -8.485 -23.504  0.00  0.00    +0.141 C 
ATOM     23  C   UNL     1      33.451  -7.408 -23.707  0.00  0.00    +0.012 C 
ATOM     24  C   UNL     1      31.537  -6.062 -24.309  0.00  0.00    -0.022 C 
ATOM     25  C   UNL     1      32.912  -6.187 -24.113  0.00  0.00    -0.006 C 
ATOM     26  C   UNL     1      31.239  -8.380 -23.694  0.00  0.00    +0.037 C 
ATOM     27  C   UNL     1      30.700  -7.158 -24.100  0.00  0.00    -0.001 C 
ATOM     28  C   UNL     1      34.925  -7.523 -23.501  0.00  0.00    +0.034 C 
ATOM     29  C   UNL     1      30.960  -4.757 -24.744  0.00  0.00    +0.031 C 
ENDBRANCH  21  22
ENDBRANCH   2  21
TORSDOF 3
ENDMDL
MODEL 2
REMARK VINA RESULT:     -10.8      3.218      9.940
REMARK  Name = 159326
REMARK  3 active torsions:
REMARK  status: ('A' for Active; 'I' for Inactive)
REMARK    1  A    between atoms: C_1  and  C_16
REMARK    2  A    between atoms: C_2  and  O_21
REMARK    3  A    between atoms: O_21  and  C_22
REMARK                            x       y       z     vdW  Elec       q    Type
REMARK                         _______ _______ _______ _____ _____    ______ ____
ROOT
ATOM      1  C   UNL     1      34.138 -16.972 -23.382  0.00  0.00    +0.061 C 
ATOM      2  C   UNL     1      34.735 -18.069 -22.756  0.00  0.00    +0.147 C 
ATOM      3  C   UNL     1      33.998 -16.960 -24.772  0.00  0.00    +0.005 C 
ATOM      4  C   UNL     1      35.191 -19.147 -23.516  0.00  0.00    +0.038 C 
ATOM      5  C   UNL     1      34.454 -18.037 -25.531  0.00  0.00    +0.000 C 
ATOM      6  C   UNL     1      35.050 -19.130 -24.904  0.00  0.00    +0.003 C 
ENDROOT
BRANCH   1  16
ATOM      7  S   UNL     1      32.654 -14.456 -20.761  0.00  0.00    -0.059 S 
ATOM      8  N   UNL     1      33.338 -10.276 -23.222  0.00  0.00    -0.306 N 
ATOM      9  N   UNL     1      34.109 -12.151 -24.483  0.00  0.00    -0.243 NA
ATOM     10  N   UNL     1      33.161 -12.394 -22.364  0.00  0.00    -0.257 N 
ATOM     11  N   UNL     1      33.742 -14.563 -23.103  0.00  0.00    -0.384 NA
ATOM     12  C   UNL     1      34.845  -9.835 -25.041  0.00  0.00    +0.048 C 
ATOM     13  C   UNL     1      33.702  -9.281 -24.203  0.00  0.00    +0.091 C 
ATOM     14  C   UNL     1      34.476 -11.221 -25.564  0.00  0.00    +0.130 C 
ATOM     15  C   UNL     1      33.564 -11.624 -23.426  0.00  0.00    +0.183 C 
ATOM     16  C   UNL     1      33.663 -15.855 -22.619  0.00  0.00    +0.125 C 
ATOM     17  C   UNL     1      33.240 -13.737 -22.208  0.00  0.00    +0.213 C 
ATOM     18  C   UNL     1      33.103 -15.996 -21.367  0.00  0.00    +0.125 C 
ATOM     19  H   UNL     1      32.916  -9.986 -22.381  0.00  0.00    +0.149 HD
ATOM     20  H   UNL     1      32.760 -11.902 -21.610  0.00  0.00    +0.158 HD
ENDBRANCH   1  16
BRANCH   2  21
ATOM     21  O   UNL     1      34.887 -18.112 -21.401  0.00  0.00    -0.454 OA
BRANCH  21  22
ATOM     22  C   UNL     1      34.604 -19.306 -20.762  0.00  0.00    +0.141 C 
ATOM     23  C   UNL     1      35.635 -20.096 -20.285  0.00  0.00    +0.012 C 
ATOM     24  C   UNL     1      34.002 -21.687 -19.485  0.00  0.00    -0.022 C 
ATOM     25  C   UNL     1      35.332 -21.296 -19.641  0.00  0.00    -0.006 C 
ATOM     26  C   UNL     1      33.279 -19.678 -20.616  0.00  0.00    +0.037 C 
ATOM     27  C   UNL     1      32.975 -20.878 -19.971  0.00  0.00    -0.001 C 
ATOM     28  C   UNL     1      37.064 -19.695 -20.446  0.00  0.00    +0.034 C 
ATOM     29  C   UNL     1      33.677 -22.969 -18.795  0.00  0.00    +0.031 C 
ENDBRANCH  21  22
ENDBRANCH   2  21
TORSDOF 3
ENDMDL
MODEL 3
REMARK VINA RESULT:     -10.6      4.317      9.276
REMARK  Name = 159326
REMARK  3 active torsions:
REMARK  status: ('A' for Active; 'I' for Inactive)
REMARK    1  A    between atoms: C_1  and  C_16
REMARK    2  A    between atoms: C_2  and  O_21
REMARK    3  A    between atoms: O_21  and  C_22
REMARK                            x       y       z     vdW  Elec       q    Type
REMARK                         _______ _______ _______ _____ _____    ______ ____
ROOT
ATOM      1  C   UNL     1      33.662  -9.065 -23.457  0.00  0.00    +0.061 C 
ATOM      2  C   UNL     1      33.169 -10.361 -23.624  0.00  0.00    +0.147 C 
ATOM      3  C   UNL     1      34.748  -8.634 -24.223  0.00  0.00    +0.005 C 
ATOM      4  C   UNL     1      33.758 -11.221 -24.551  0.00  0.00    +0.038 C 
ATOM      5  C   UNL     1      35.337  -9.494 -25.149  0.00  0.00    +0.000 C 
ATOM      6  C   UNL     1      34.843 -10.787 -25.314  0.00  0.00    +0.003 C 
ENDROOT
BRANCH   1  16
ATOM      7  S   UNL     1      32.216  -7.164 -20.343  0.00  0.00    -0.059 S 
ATOM      8  N   UNL     1      30.704  -3.069 -22.566  0.00  0.00    -0.306 N 
ATOM      9  N   UNL     1      31.678  -4.586 -24.131  0.00  0.00    -0.243 NA
ATOM     10  N   UNL     1      31.512  -5.094 -21.858  0.00  0.00    -0.257 N 
ATOM     11  N   UNL     1      32.564  -6.940 -22.894  0.00  0.00    -0.384 NA
ATOM     12  C   UNL     1      31.388  -2.173 -24.688  0.00  0.00    +0.048 C 
ATOM     13  C   UNL     1      30.412  -2.033 -23.529  0.00  0.00    +0.091 C 
ATOM     14  C   UNL     1      31.383  -3.613 -25.195  0.00  0.00    +0.130 C 
ATOM     15  C   UNL     1      31.309  -4.257 -22.928  0.00  0.00    +0.183 C 
ATOM     16  C   UNL     1      33.071  -8.166 -22.509  0.00  0.00    +0.125 C 
ATOM     17  C   UNL     1      32.085  -6.321 -21.835  0.00  0.00    +0.213 C 
ATOM     18  C   UNL     1      32.973  -8.464 -21.166  0.00  0.00    +0.125 C 
ATOM     19  H   UNL     1      30.465  -2.924 -21.621  0.00  0.00    +0.149 HD
ATOM     20  H   UNL     1      31.198  -4.755 -20.988  0.00  0.00    +0.158 HD
ENDBRANCH   1  16
BRANCH   2  21
ATOM     21  O   UNL     1      32.111 -10.813 -22.891  0.00  0.00    -0.454 OA
BRANCH  21  22
ATOM     22  C   UNL     1      32.216 -12.069 -22.320  0.00  0.00    +0.141 C 
ATOM     23  C   UNL     1      31.895 -12.252 -20.986  0.00  0.00    +0.012 C 
ATOM     24  C   UNL     1      32.433 -14.596 -21.211  0.00  0.00    -0.022 C 
ATOM     25  C   UNL     1      32.005 -13.525 -20.428  0.00  0.00    -0.006 C 
ATOM     26  C   UNL     1      32.643 -13.120 -23.113  0.00  0.00    +0.037 C 
ATOM     27  C   UNL     1      32.752 -14.395 -22.554  0.00  0.00    -0.001 C 
ATOM     28  C   UNL     1      31.437 -11.116 -20.132  0.00  0.00    +0.034 C 
ATOM     29  C   UNL     1      32.550 -15.959 -20.615  0.00  0.00    +0.031 C 
ENDBRANCH  21  22
ENDBRANCH   2  21
TORSDOF 3
ENDMDL
MODEL 4
REMARK VINA RESULT:     -10.4      2.997      9.699
REMARK  Name = 159326
REMARK  3 active torsions:
REMARK  status: ('A' for Active; 'I' for Inactive)
REMARK    1  A    between atoms: C_1  and  C_16
REMARK    2  A    between atoms: C_2  and  O_21
REMARK    3  A    between atoms: O_21  and  C_22
REMARK                            x       y       z     vdW  Elec       q    Type
REMARK                         _______ _______ _______ _____ _____    ______ ____
ROOT
ATOM      1  C   UNL     1      33.912 -16.205 -23.193  0.00  0.00    +0.061 C 
ATOM      2  C   UNL     1      34.736 -17.257 -22.790  0.00  0.00    +0.147 C 
ATOM      3  C   UNL     1      33.669 -15.998 -24.554  0.00  0.00    +0.005 C 
ATOM      4  C   UNL     1      35.314 -18.100 -23.741  0.00  0.00    +0.038 C 
ATOM      5  C   UNL     1      34.246 -16.840 -25.504  0.00  0.00    +0.000 C 
ATOM      6  C   UNL     1      35.069 -17.891 -25.098  0.00  0.00    +0.003 C 
ENDROOT
BRANCH   1  16
ATOM      7  S   UNL     1      32.201 -14.452 -20.127  0.00  0.00    -0.059 S 
ATOM      8  N   UNL     1      32.045  -9.866 -21.839  0.00  0.00    -0.306 N 
ATOM      9  N   UNL     1      33.033 -11.344 -23.433  0.00  0.00    -0.243 NA
ATOM     10  N   UNL     1      32.267 -12.096 -21.359  0.00  0.00    -0.257 N 
ATOM     11  N   UNL     1      33.147 -13.979 -22.485  0.00  0.00    -0.384 NA
ATOM     12  C   UNL     1      33.347  -8.876 -23.600  0.00  0.00    +0.048 C 
ATOM     13  C   UNL     1      32.182  -8.673 -22.643  0.00  0.00    +0.091 C 
ATOM     14  C   UNL     1      33.177 -10.198 -24.345  0.00  0.00    +0.130 C 
ATOM     15  C   UNL     1      32.475 -11.102 -22.283  0.00  0.00    +0.183 C 
ATOM     16  C   UNL     1      33.309 -15.328 -22.232  0.00  0.00    +0.125 C 
ATOM     17  C   UNL     1      32.573 -13.413 -21.444  0.00  0.00    +0.213 C 
ATOM     18  C   UNL     1      32.857 -15.770 -21.007  0.00  0.00    +0.125 C 
ATOM     19  H   UNL     1      31.633  -9.796 -20.947  0.00  0.00    +0.149 HD
ATOM     20  H   UNL     1      31.838 -11.812 -20.519  0.00  0.00    +0.158 HD
ENDBRANCH   1  16
BRANCH   2  21
ATOM     21  O   UNL     1      34.994 -17.485 -21.470  0.00  0.00    -0.454 OA
BRANCH  21  22
ATOM     22  C   UNL     1      34.704 -18.742 -20.967  0.00  0.00    +0.141 C 
ATOM     23  C   UNL     1      35.731 -19.604 -20.625  0.00  0.00    +0.012 C 
ATOM     24  C   UNL     1      34.087 -21.245 -19.961  0.00  0.00    -0.022 C 
ATOM     25  C   UNL     1      35.419 -20.865 -20.117  0.00  0.00    -0.006 C 
ATOM     26  C   UNL     1      33.375 -19.101 -20.818  0.00  0.00    +0.037 C 
ATOM     27  C   UNL     1      33.064 -20.364 -20.310  0.00  0.00    -0.001 C 
ATOM     28  C   UNL     1      37.163 -19.215 -20.788  0.00  0.00    +0.034 C 
ATOM     29  C   UNL     1      33.753 -22.594 -19.417  0.00  0.00    +0.031 C 
ENDBRANCH  21  22
ENDBRANCH   2  21
TORSDOF 3
ENDMDL
MODEL 5
REMARK VINA RESULT:     -10.2      2.214      4.302
REMARK  Name = 159326
REMARK  3 active torsions:
REMARK  status: ('A' for Active; 'I' for Inactive)
REMARK    1  A    between atoms: C_1  and  C_16
REMARK    2  A    between atoms: C_2  and  O_21
REMARK    3  A    between atoms: O_21  and  C_22
REMARK                            x       y       z     vdW  Elec       q    Type
REMARK                         _______ _______ _______ _____ _____    ______ ____
ROOT
ATOM      1  C   UNL     1      33.995 -11.549 -25.135  0.00  0.00    +0.061 C 
ATOM      2  C   UNL     1      33.276 -10.991 -24.076  0.00  0.00    +0.147 C 
ATOM      3  C   UNL     1      35.076 -10.852 -25.681  0.00  0.00    +0.005 C 
ATOM      4  C   UNL     1      33.636  -9.744 -23.564  0.00  0.00    +0.038 C 
ATOM      5  C   UNL     1      35.435  -9.605 -25.171  0.00  0.00    +0.000 C 
ATOM      6  C   UNL     1      34.716  -9.051 -24.112  0.00  0.00    +0.003 C 
ENDROOT
BRANCH   1  16
ATOM      7  S   UNL     1      32.711 -14.634 -27.195  0.00  0.00    -0.059 S 
ATOM      8  N   UNL     1      34.276 -18.232 -24.263  0.00  0.00    -0.306 N 
ATOM      9  N   UNL     1      34.843 -16.091 -23.371  0.00  0.00    -0.243 NA
ATOM     10  N   UNL     1      33.684 -16.323 -25.385  0.00  0.00    -0.257 N 
ATOM     11  N   UNL     1      33.970 -14.004 -25.027  0.00  0.00    -0.384 NA
ATOM     12  C   UNL     1      35.990 -18.158 -22.579  0.00  0.00    +0.048 C 
ATOM     13  C   UNL     1      34.882 -18.997 -23.198  0.00  0.00    +0.091 C 
ATOM     14  C   UNL     1      35.449 -16.776 -22.219  0.00  0.00    +0.130 C 
ATOM     15  C   UNL     1      34.299 -16.850 -24.276  0.00  0.00    +0.183 C 
ATOM     16  C   UNL     1      33.642 -12.829 -25.676  0.00  0.00    +0.125 C 
ATOM     17  C   UNL     1      33.531 -15.024 -25.735  0.00  0.00    +0.213 C 
ATOM     18  C   UNL     1      32.958 -12.969 -26.865  0.00  0.00    +0.125 C 
ATOM     19  H   UNL     1      33.834 -18.709 -25.002  0.00  0.00    +0.149 HD
ATOM     20  H   UNL     1      33.303 -16.980 -26.012  0.00  0.00    +0.158 HD
ENDBRANCH   1  16
BRANCH   2  21
ATOM     21  O   UNL     1      32.216 -11.646 -23.521  0.00  0.00    -0.454 OA
BRANCH  21  22
ATOM     22  C   UNL     1      31.994 -11.474 -22.166  0.00  0.00    +0.141 C 
ATOM     23  C   UNL     1      32.091 -12.554 -21.306  0.00  0.00    +0.012 C 
ATOM     24  C   UNL     1      31.548 -11.092 -19.460  0.00  0.00    -0.022 C 
ATOM     25  C   UNL     1      31.866 -12.361 -19.943  0.00  0.00    -0.006 C 
ATOM     26  C   UNL     1      31.680 -10.207 -21.705  0.00  0.00    +0.037 C 
ATOM     27  C   UNL     1      31.456 -10.014 -20.341  0.00  0.00    -0.001 C 
ATOM     28  C   UNL     1      32.428 -13.920 -21.805  0.00  0.00    +0.034 C 
ATOM     29  C   UNL     1      31.309 -10.885 -18.003  0.00  0.00    +0.031 C 
ENDBRANCH  21  22
ENDBRANCH   2  21
TORSDOF 3
ENDMDL
MODEL 6
REMARK VINA RESULT:     -10.1      1.817      3.648
REMARK  Name = 159326
REMARK  3 active torsions:
REMARK  status: ('A' for Active; 'I' for Inactive)
REMARK    1  A    between atoms: C_1  and  C_16
REMARK    2  A    between atoms: C_2  and  O_21
REMARK    3  A    between atoms: O_21  and  C_22
REMARK                            x       y       z     vdW  Elec       q    Type
REMARK                         _______ _______ _______ _____ _____    ______ ____
ROOT
ATOM      1  C   UNL     1      33.321 -13.363 -24.491  0.00  0.00    +0.061 C 
ATOM      2  C   UNL     1      33.735 -12.039 -24.647  0.00  0.00    +0.147 C 
ATOM      3  C   UNL     1      33.048 -14.141 -25.619  0.00  0.00    +0.005 C 
ATOM      4  C   UNL     1      33.876 -11.495 -25.924  0.00  0.00    +0.038 C 
ATOM      5  C   UNL     1      33.188 -13.597 -26.895  0.00  0.00    +0.000 C 
ATOM      6  C   UNL     1      33.602 -12.274 -27.048  0.00  0.00    +0.003 C 
ENDROOT
BRANCH   1  16
ATOM      7  S   UNL     1      32.519 -14.285 -20.761  0.00  0.00    -0.059 S 
ATOM      8  N   UNL     1      34.660 -18.686 -20.569  0.00  0.00    -0.306 N 
ATOM      9  N   UNL     1      34.914 -17.701 -22.730  0.00  0.00    -0.243 NA
ATOM     10  N   UNL     1      33.779 -16.615 -21.002  0.00  0.00    -0.257 N 
ATOM     11  N   UNL     1      33.693 -15.182 -22.881  0.00  0.00    -0.384 NA
ATOM     12  C   UNL     1      35.253 -20.147 -22.383  0.00  0.00    +0.048 C 
ATOM     13  C   UNL     1      35.360 -19.909 -20.884  0.00  0.00    +0.091 C 
ATOM     14  C   UNL     1      35.681 -18.890 -23.136  0.00  0.00    +0.130 C 
ATOM     15  C   UNL     1      34.487 -17.680 -21.501  0.00  0.00    +0.183 C 
ATOM     16  C   UNL     1      33.170 -13.941 -23.187  0.00  0.00    +0.125 C 
ATOM     17  C   UNL     1      33.412 -15.470 -21.627  0.00  0.00    +0.213 C 
ATOM     18  C   UNL     1      32.499 -13.301 -22.165  0.00  0.00    +0.125 C 
ATOM     19  H   UNL     1      34.294 -18.565 -19.663  0.00  0.00    +0.149 HD
ATOM     20  H   UNL     1      33.499 -16.694 -20.061  0.00  0.00    +0.158 HD
ENDBRANCH   1  16
BRANCH   2  21
ATOM     21  O   UNL     1      34.010 -11.253 -23.566  0.00  0.00    -0.454 OA
BRANCH  21  22
ATOM     22  C   UNL     1      33.704  -9.906 -23.658  0.00  0.00    +0.141 C 
ATOM     23  C   UNL     1      32.463  -9.450 -23.251  0.00  0.00    +0.012 C 
ATOM     24  C   UNL     1      33.127  -7.206 -23.852  0.00  0.00    -0.022 C 
ATOM     25  C   UNL     1      32.173  -8.089 -23.349  0.00  0.00    -0.006 C 
ATOM     26  C   UNL     1      34.664  -9.045 -24.160  0.00  0.00    +0.037 C 
ATOM     27  C   UNL     1      34.374  -7.683 -24.257  0.00  0.00    -0.001 C 
ATOM     28  C   UNL     1      31.427 -10.380 -22.712  0.00  0.00    +0.034 C 
ATOM     29  C   UNL     1      32.818  -5.750 -23.956  0.00  0.00    +0.031 C 
ENDBRANCH  21  22
ENDBRANCH   2  21
TORSDOF 3
ENDMDL
MODEL 7
REMARK VINA RESULT:      -9.9      2.805      8.520
REMARK  Name = 159326
REMARK  3 active torsions:
REMARK  status: ('A' for Active; 'I' for Inactive)
REMARK    1  A    between atoms: C_1  and  C_16
REMARK    2  A    between atoms: C_2  and  O_21
REMARK    3  A    between atoms: O_21  and  C_22
REMARK                            x       y       z     vdW  Elec       q    Type
REMARK                         _______ _______ _______ _____ _____    ______ ____
ROOT
ATOM      1  C   UNL     1      33.191 -13.483 -22.226  0.00  0.00    +0.061 C 
ATOM      2  C   UNL     1      33.833 -14.720 -22.315  0.00  0.00    +0.147 C 
ATOM      3  C   UNL     1      32.331 -13.226 -21.155  0.00  0.00    +0.005 C 
ATOM      4  C   UNL     1      33.618 -15.694 -21.339  0.00  0.00    +0.038 C 
ATOM      5  C   UNL     1      32.116 -14.199 -20.180  0.00  0.00    +0.000 C 
ATOM      6  C   UNL     1      32.759 -15.433 -20.271  0.00  0.00    +0.003 C 
ENDROOT
BRANCH   1  16
ATOM      7  S   UNL     1      33.983 -11.307 -25.395  0.00  0.00    -0.059 S 
ATOM      8  N   UNL     1      32.828  -6.892 -23.615  0.00  0.00    -0.306 N 
ATOM      9  N   UNL     1      32.503  -8.593 -21.971  0.00  0.00    -0.243 NA
ATOM     10  N   UNL     1      33.282  -9.082 -24.117  0.00  0.00    -0.257 N 
ATOM     11  N   UNL     1      33.146 -11.137 -22.956  0.00  0.00    -0.384 NA
ATOM     12  C   UNL     1      31.439  -6.350 -21.731  0.00  0.00    +0.048 C 
ATOM     13  C   UNL     1      32.391  -5.798 -22.781  0.00  0.00    +0.091 C 
ATOM     14  C   UNL     1      32.083  -7.543 -21.028  0.00  0.00    +0.130 C 
ATOM     15  C   UNL     1      32.852  -8.197 -23.160  0.00  0.00    +0.183 C 
ATOM     16  C   UNL     1      33.398 -12.470 -23.219  0.00  0.00    +0.125 C 
ATOM     17  C   UNL     1      33.418 -10.427 -24.031  0.00  0.00    +0.213 C 
ATOM     18  C   UNL     1      33.858 -12.757 -24.487  0.00  0.00    +0.125 C 
ATOM     19  H   UNL     1      33.116  -6.704 -24.538  0.00  0.00    +0.149 HD
ATOM     20  H   UNL     1      33.524  -8.685 -24.985  0.00  0.00    +0.158 HD
ENDBRANCH   1  16
BRANCH   2  21
ATOM     21  O   UNL     1      34.678 -15.003 -23.348  0.00  0.00    -0.454 OA
BRANCH  21  22
ATOM     22  C   UNL     1      34.753 -16.318 -23.774  0.00  0.00    +0.141 C 
ATOM     23  C   UNL     1      34.166 -16.692 -24.970  0.00  0.00    +0.012 C 
ATOM     24  C   UNL     1      34.925 -18.956 -24.596  0.00  0.00    -0.022 C 
ATOM     25  C   UNL     1      34.254 -18.021 -25.384  0.00  0.00    -0.006 C 
ATOM     26  C   UNL     1      35.423 -17.231 -22.978  0.00  0.00    +0.037 C 
ATOM     27  C   UNL     1      35.511 -18.561 -23.393  0.00  0.00    -0.001 C 
ATOM     28  C   UNL     1      33.442 -15.707 -25.825  0.00  0.00    +0.034 C 
ATOM     29  C   UNL     1      35.019 -20.377 -25.039  0.00  0.00    +0.031 C 
ENDBRANCH  21  22
ENDBRANCH   2  21
TORSDOF 3
ENDMDL
MODEL 8
REMARK VINA RESULT:      -9.4      2.780      9.027
REMARK  Name = 159326
REMARK  3 active torsions:
REMARK  status: ('A' for Active; 'I' for Inactive)
REMARK    1  A    between atoms: C_1  and  C_16
REMARK    2  A    between atoms: C_2  and  O_21
REMARK    3  A    between atoms: O_21  and  C_22
REMARK                            x       y       z     vdW  Elec       q    Type
REMARK                         _______ _______ _______ _____ _____    ______ ____
ROOT
ATOM      1  C   UNL     1      32.886 -13.760 -23.688  0.00  0.00    +0.061 C 
ATOM      2  C   UNL     1      33.765 -14.825 -23.477  0.00  0.00    +0.147 C 
ATOM      3  C   UNL     1      32.385 -13.521 -24.970  0.00  0.00    +0.005 C 
ATOM      4  C   UNL     1      34.141 -15.645 -24.541  0.00  0.00    +0.038 C 
ATOM      5  C   UNL     1      32.761 -14.340 -26.034  0.00  0.00    +0.000 C 
ATOM      6  C   UNL     1      33.639 -15.402 -25.820  0.00  0.00    +0.003 C 
ENDROOT
BRANCH   1  16
ATOM      7  S   UNL     1      31.747 -12.089 -20.325  0.00  0.00    -0.059 S 
ATOM      8  N   UNL     1      31.689  -7.407 -21.764  0.00  0.00    -0.306 N 
ATOM      9  N   UNL     1      32.336  -8.847 -23.555  0.00  0.00    -0.243 NA
ATOM     10  N   UNL     1      31.813  -9.671 -21.434  0.00  0.00    -0.257 N 
ATOM     11  N   UNL     1      32.390 -11.537 -22.766  0.00  0.00    -0.384 NA
ATOM     12  C   UNL     1      32.802  -6.399 -23.640  0.00  0.00    +0.048 C 
ATOM     13  C   UNL     1      31.799  -6.180 -22.517  0.00  0.00    +0.091 C 
ATOM     14  C   UNL     1      32.436  -7.660 -24.419  0.00  0.00    +0.130 C 
ATOM     15  C   UNL     1      31.962  -8.639 -22.326  0.00  0.00    +0.183 C 
ATOM     16  C   UNL     1      32.487 -12.906 -22.608  0.00  0.00    +0.125 C 
ATOM     17  C   UNL     1      32.008 -10.998 -21.627  0.00  0.00    +0.213 C 
ATOM     18  C   UNL     1      32.178 -13.391 -21.354  0.00  0.00    +0.125 C 
ATOM     19  H   UNL     1      31.411  -7.365 -20.820  0.00  0.00    +0.149 HD
ATOM     20  H   UNL     1      31.526  -9.412 -20.528  0.00  0.00    +0.158 HD
ENDBRANCH   1  16
BRANCH   2  21
ATOM     21  O   UNL     1      34.272 -15.085 -22.238  0.00  0.00    -0.454 OA
BRANCH  21  22
ATOM     22  C   UNL     1      34.489 -16.410 -21.899  0.00  0.00    +0.141 C 
ATOM     23  C   UNL     1      33.530 -17.106 -21.184  0.00  0.00    +0.012 C 
ATOM     24  C   UNL     1      34.952 -19.059 -21.242  0.00  0.00    -0.022 C 
ATOM     25  C   UNL     1      33.764 -18.441 -20.853  0.00  0.00    -0.006 C 
ATOM     26  C   UNL     1      35.674 -17.006 -22.294  0.00  0.00    +0.037 C 
ATOM     27  C   UNL     1      35.907 -18.342 -21.964  0.00  0.00    -0.001 C 
ATOM     28  C   UNL     1      32.254 -16.461 -20.756  0.00  0.00    +0.034 C 
ATOM     29  C   UNL     1      35.203 -20.486 -20.891  0.00  0.00    +0.031 C 
ENDBRANCH  21  22
ENDBRANCH   2  21
TORSDOF 3
ENDMDL
MODEL 9
REMARK VINA RESULT:      -9.2      1.881      3.271
REMARK  Name = 159326
REMARK  3 active torsions:
REMARK  status: ('A' for Active; 'I' for Inactive)
REMARK    1  A    between atoms: C_1  and  C_16
REMARK    2  A    between atoms: C_2  and  O_21
REMARK    3  A    between atoms: O_21  and  C_22
REMARK                            x       y       z     vdW  Elec       q    Type
REMARK                         _______ _______ _______ _____ _____    ______ ____
ROOT
ATOM      1  C   UNL     1      33.940 -10.878 -24.075  0.00  0.00    +0.061 C 
ATOM      2  C   UNL     1      34.243  -9.539 -23.818  0.00  0.00    +0.147 C 
ATOM      3  C   UNL     1      34.391 -11.476 -25.255  0.00  0.00    +0.005 C 
ATOM      4  C   UNL     1      34.993  -8.802 -24.735  0.00  0.00    +0.038 C 
ATOM      5  C   UNL     1      35.139 -10.738 -26.171  0.00  0.00    +0.000 C 
ATOM      6  C   UNL     1      35.441  -9.402 -25.912  0.00  0.00    +0.003 C 
ENDROOT
BRANCH   1  16
ATOM      7  S   UNL     1      31.408 -12.347 -21.461  0.00  0.00    -0.059 S 
ATOM      8  N   UNL     1      33.231 -16.877 -21.072  0.00  0.00    -0.306 N 
ATOM      9  N   UNL     1      34.509 -15.566 -22.605  0.00  0.00    -0.243 NA
ATOM     10  N   UNL     1      32.653 -14.698 -21.485  0.00  0.00    -0.257 N 
ATOM     11  N   UNL     1      33.490 -12.967 -22.861  0.00  0.00    -0.384 NA
ATOM     12  C   UNL     1      34.664 -18.054 -22.600  0.00  0.00    +0.048 C 
ATOM     13  C   UNL     1      34.011 -18.082 -21.226  0.00  0.00    +0.091 C 
ATOM     14  C   UNL     1      35.392 -16.727 -22.798  0.00  0.00    +0.130 C 
ATOM     15  C   UNL     1      33.529 -15.717 -21.763  0.00  0.00    +0.183 C 
ATOM     16  C   UNL     1      33.171 -11.653 -23.146  0.00  0.00    +0.125 C 
ATOM     17  C   UNL     1      32.628 -13.438 -21.983  0.00  0.00    +0.213 C 
ATOM     18  C   UNL     1      32.073 -11.143 -22.484  0.00  0.00    +0.125 C 
ATOM     19  H   UNL     1      32.463 -16.880 -20.456  0.00  0.00    +0.149 HD
ATOM     20  H   UNL     1      31.944 -14.911 -20.835  0.00  0.00    +0.158 HD
ENDBRANCH   1  16
BRANCH   2  21
ATOM     21  O   UNL     1      33.817  -8.926 -22.676  0.00  0.00    -0.454 OA
BRANCH  21  22
ATOM     22  C   UNL     1      33.145  -7.724 -22.806  0.00  0.00    +0.141 C 
ATOM     23  C   UNL     1      32.564  -7.132 -21.698  0.00  0.00    +0.012 C 
ATOM     24  C   UNL     1      31.813  -5.315 -23.101  0.00  0.00    -0.022 C 
ATOM     25  C   UNL     1      31.893  -5.919 -21.847  0.00  0.00    -0.006 C 
ATOM     26  C   UNL     1      33.077  -7.139 -24.059  0.00  0.00    +0.037 C 
ATOM     27  C   UNL     1      32.405  -5.924 -24.208  0.00  0.00    -0.001 C 
ATOM     28  C   UNL     1      32.637  -7.765 -20.347  0.00  0.00    +0.034 C 
ATOM     29  C   UNL     1      31.097  -4.017 -23.262  0.00  0.00    +0.031 C 
ENDBRANCH  21  22
ENDBRANCH   2  21
TORSDOF 3
ENDMDL
