MODEL 1
REMARK VINA RESULT:      -6.6      0.000      0.000
REMARK  Name = 6318
REMARK  2 active torsions:
REMARK  status: ('A' for Active; 'I' for Inactive)
REMARK    1  A    between atoms: C_2  and  C_9
REMARK    2  A    between atoms: C_9  and  O_10
REMARK                            x       y       z     vdW  Elec       q    Type
REMARK                         _______ _______ _______ _____ _____    ______ ____
ROOT
ATOM      1 CL   UNL     1      36.121 -18.338 -21.863  0.00  0.00    -0.082 Cl
ATOM      2  C   UNL     1      33.988 -21.535 -19.500  0.00  0.00    +0.076 C 
ATOM      3  C   UNL     1      33.254 -20.583 -20.207  0.00  0.00    +0.007 C 
ATOM      4  C   UNL     1      35.383 -21.498 -19.523  0.00  0.00    +0.007 C 
ATOM      5  C   UNL     1      33.914 -19.594 -20.938  0.00  0.00    +0.012 C 
ATOM      6  C   UNL     1      36.043 -20.510 -20.254  0.00  0.00    +0.012 C 
ATOM      7  C   UNL     1      35.309 -19.559 -20.962  0.00  0.00    +0.058 C 
ENDROOT
BRANCH   2   9
ATOM      8  O   UNL     1      32.285 -22.393 -18.057  0.00  0.00    -0.245 OA
ATOM      9  C   UNL     1      33.300 -22.566 -18.740  0.00  0.00    +0.338 C 
BRANCH   9  10
ATOM     10  O   UNL     1      33.897 -23.783 -18.854  0.00  0.00    -0.477 OA
ATOM     11  H   UNL     1      34.071 -24.141 -19.702  0.00  0.00    +0.295 HD
ENDBRANCH   9  10
ENDBRANCH   2   9
TORSDOF 2
ENDMDL
MODEL 2
REMARK VINA RESULT:      -6.6      0.064      1.529
REMARK  Name = 6318
REMARK  2 active torsions:
REMARK  status: ('A' for Active; 'I' for Inactive)
REMARK    1  A    between atoms: C_2  and  C_9
REMARK    2  A    between atoms: C_9  and  O_10
REMARK                            x       y       z     vdW  Elec       q    Type
REMARK                         _______ _______ _______ _____ _____    ______ ____
ROOT
ATOM      1 CL   UNL     1      36.100 -18.363 -21.884  0.00  0.00    -0.082 Cl
ATOM      2  C   UNL     1      34.010 -21.585 -19.517  0.00  0.00    +0.076 C 
ATOM      3  C   UNL     1      35.403 -21.518 -19.526  0.00  0.00    +0.007 C 
ATOM      4  C   UNL     1      33.262 -20.655 -20.241  0.00  0.00    +0.007 C 
ATOM      5  C   UNL     1      36.049 -20.521 -20.258  0.00  0.00    +0.012 C 
ATOM      6  C   UNL     1      33.908 -19.658 -20.973  0.00  0.00    +0.012 C 
ATOM      7  C   UNL     1      35.301 -19.591 -20.981  0.00  0.00    +0.058 C 
ENDROOT
BRANCH   2   9
ATOM      8  O   UNL     1      32.353 -22.450 -18.025  0.00  0.00    -0.245 OA
ATOM      9  C   UNL     1      33.336 -22.622 -18.752  0.00  0.00    +0.338 C 
BRANCH   9  10
ATOM     10  O   UNL     1      33.909 -23.846 -18.919  0.00  0.00    -0.477 OA
ATOM     11  H   UNL     1      34.285 -24.291 -18.185  0.00  0.00    +0.295 HD
ENDBRANCH   9  10
ENDBRANCH   2   9
TORSDOF 2
ENDMDL
MODEL 3
REMARK VINA RESULT:      -6.3      3.809      4.480
REMARK  Name = 6318
REMARK  2 active torsions:
REMARK  status: ('A' for Active; 'I' for Inactive)
REMARK    1  A    between atoms: C_2  and  C_9
REMARK    2  A    between atoms: C_9  and  O_10
REMARK                            x       y       z     vdW  Elec       q    Type
REMARK                         _______ _______ _______ _____ _____    ______ ____
ROOT
ATOM      1 CL   UNL     1      33.766 -22.720 -18.792  0.00  0.00    -0.082 Cl
ATOM      2  C   UNL     1      35.076 -19.088 -21.126  0.00  0.00    +0.076 C 
ATOM      3  C   UNL     1      33.718 -19.375 -20.984  0.00  0.00    +0.007 C 
ATOM      4  C   UNL     1      36.029 -19.926 -20.546  0.00  0.00    +0.007 C 
ATOM      5  C   UNL     1      33.313 -20.497 -20.262  0.00  0.00    +0.012 C 
ATOM      6  C   UNL     1      35.625 -21.049 -19.824  0.00  0.00    +0.012 C 
ATOM      7  C   UNL     1      34.267 -21.334 -19.682  0.00  0.00    +0.058 C 
ENDROOT
BRANCH   2   9
ATOM      8  O   UNL     1      35.129 -16.758 -21.660  0.00  0.00    -0.245 OA
ATOM      9  C   UNL     1      35.497 -17.917 -21.877  0.00  0.00    +0.338 C 
BRANCH   9  10
ATOM     10  O   UNL     1      36.367 -18.225 -22.877  0.00  0.00    -0.477 OA
ATOM     11  H   UNL     1      37.232 -17.864 -22.874  0.00  0.00    +0.295 HD
ENDBRANCH   9  10
ENDBRANCH   2   9
TORSDOF 2
ENDMDL
MODEL 4
REMARK VINA RESULT:      -6.3      3.804      4.723
REMARK  Name = 6318
REMARK  2 active torsions:
REMARK  status: ('A' for Active; 'I' for Inactive)
REMARK    1  A    between atoms: C_2  and  C_9
REMARK    2  A    between atoms: C_9  and  O_10
REMARK                            x       y       z     vdW  Elec       q    Type
REMARK                         _______ _______ _______ _____ _____    ______ ____
ROOT
ATOM      1 CL   UNL     1      33.815 -22.749 -18.788  0.00  0.00    -0.082 Cl
ATOM      2  C   UNL     1      35.102 -19.099 -21.108  0.00  0.00    +0.076 C 
ATOM      3  C   UNL     1      36.060 -19.946 -20.551  0.00  0.00    +0.007 C 
ATOM      4  C   UNL     1      33.745 -19.381 -20.946  0.00  0.00    +0.007 C 
ATOM      5  C   UNL     1      35.662 -21.075 -19.834  0.00  0.00    +0.012 C 
ATOM      6  C   UNL     1      33.347 -20.509 -20.230  0.00  0.00    +0.012 C 
ATOM      7  C   UNL     1      34.305 -21.357 -19.674  0.00  0.00    +0.058 C 
ENDROOT
BRANCH   2   9
ATOM      8  O   UNL     1      35.091 -16.778 -21.682  0.00  0.00    -0.245 OA
ATOM      9  C   UNL     1      35.517 -17.924 -21.857  0.00  0.00    +0.338 C 
BRANCH   9  10
ATOM     10  O   UNL     1      36.453 -18.212 -22.801  0.00  0.00    -0.477 OA
ATOM     11  H   UNL     1      37.293 -17.798 -22.771  0.00  0.00    +0.295 HD
ENDBRANCH   9  10
ENDBRANCH   2   9
TORSDOF 2
ENDMDL
MODEL 5
REMARK VINA RESULT:      -6.2      6.581      7.552
REMARK  Name = 6318
REMARK  2 active torsions:
REMARK  status: ('A' for Active; 'I' for Inactive)
REMARK    1  A    between atoms: C_2  and  C_9
REMARK    2  A    between atoms: C_9  and  O_10
REMARK                            x       y       z     vdW  Elec       q    Type
REMARK                         _______ _______ _______ _____ _____    ______ ____
ROOT
ATOM      1 CL   UNL     1      32.640 -24.912 -13.746  0.00  0.00    -0.082 Cl
ATOM      2  C   UNL     1      29.178 -23.425 -16.227  0.00  0.00    +0.076 C 
ATOM      3  C   UNL     1      30.451 -22.889 -16.415  0.00  0.00    +0.007 C 
ATOM      4  C   UNL     1      28.974 -24.422 -15.272  0.00  0.00    +0.007 C 
ATOM      5  C   UNL     1      31.522 -23.349 -15.647  0.00  0.00    +0.012 C 
ATOM      6  C   UNL     1      30.044 -24.882 -14.505  0.00  0.00    +0.012 C 
ATOM      7  C   UNL     1      31.318 -24.346 -14.693  0.00  0.00    +0.058 C 
ENDROOT
BRANCH   2   9
ATOM      8  O   UNL     1      27.465 -23.605 -17.887  0.00  0.00    -0.245 OA
ATOM      9  C   UNL     1      28.062 -22.947 -17.029  0.00  0.00    +0.338 C 
BRANCH   9  10
ATOM     10  O   UNL     1      27.724 -21.662 -16.735  0.00  0.00    -0.477 OA
ATOM     11  H   UNL     1      26.823 -21.406 -16.725  0.00  0.00    +0.295 HD
ENDBRANCH   9  10
ENDBRANCH   2   9
TORSDOF 2
ENDMDL
MODEL 6
REMARK VINA RESULT:      -6.0      7.973      9.037
REMARK  Name = 6318
REMARK  2 active torsions:
REMARK  status: ('A' for Active; 'I' for Inactive)
REMARK    1  A    between atoms: C_2  and  C_9
REMARK    2  A    between atoms: C_9  and  O_10
REMARK                            x       y       z     vdW  Elec       q    Type
REMARK                         _______ _______ _______ _____ _____    ______ ____
ROOT
ATOM      1 CL   UNL     1      35.053 -24.006 -12.565  0.00  0.00    -0.082 Cl
ATOM      2  C   UNL     1      38.984 -25.493 -14.203  0.00  0.00    +0.076 C 
ATOM      3  C   UNL     1      38.127 -24.750 -15.014  0.00  0.00    +0.007 C 
ATOM      4  C   UNL     1      38.626 -25.778 -12.885  0.00  0.00    +0.007 C 
ATOM      5  C   UNL     1      36.911 -24.290 -14.507  0.00  0.00    +0.012 C 
ATOM      6  C   UNL     1      37.410 -25.317 -12.378  0.00  0.00    +0.012 C 
ATOM      7  C   UNL     1      36.553 -24.573 -13.188  0.00  0.00    +0.058 C 
ENDROOT
BRANCH   2   9
ATOM      8  O   UNL     1      41.162 -26.471 -14.062  0.00  0.00    -0.245 OA
ATOM      9  C   UNL     1      40.252 -25.971 -14.731  0.00  0.00    +0.338 C 
BRANCH   9  10
ATOM     10  O   UNL     1      40.348 -25.813 -16.079  0.00  0.00    -0.477 OA
ATOM     11  H   UNL     1      40.550 -26.547 -16.624  0.00  0.00    +0.295 HD
ENDBRANCH   9  10
ENDBRANCH   2   9
TORSDOF 2
ENDMDL
MODEL 7
REMARK VINA RESULT:      -5.9      5.189      6.180
REMARK  Name = 6318
REMARK  2 active torsions:
REMARK  status: ('A' for Active; 'I' for Inactive)
REMARK    1  A    between atoms: C_2  and  C_9
REMARK    2  A    between atoms: C_9  and  O_10
REMARK                            x       y       z     vdW  Elec       q    Type
REMARK                         _______ _______ _______ _____ _____    ______ ____
ROOT
ATOM      1 CL   UNL     1      35.691 -20.214 -20.430  0.00  0.00    -0.082 Cl
ATOM      2  C   UNL     1      34.682 -17.196 -23.628  0.00  0.00    +0.076 C 
ATOM      3  C   UNL     1      34.684 -18.558 -23.929  0.00  0.00    +0.007 C 
ATOM      4  C   UNL     1      34.994 -16.767 -22.337  0.00  0.00    +0.007 C 
ATOM      5  C   UNL     1      34.995 -19.491 -22.940  0.00  0.00    +0.012 C 
ATOM      6  C   UNL     1      35.305 -17.700 -21.348  0.00  0.00    +0.012 C 
ATOM      7  C   UNL     1      35.306 -19.062 -21.649  0.00  0.00    +0.058 C 
ENDROOT
BRANCH   2   9
ATOM      8  O   UNL     1      33.791 -15.142 -24.467  0.00  0.00    -0.245 OA
ATOM      9  C   UNL     1      34.355 -16.224 -24.658  0.00  0.00    +0.338 C 
BRANCH   9  10
ATOM     10  O   UNL     1      34.744 -16.629 -25.898  0.00  0.00    -0.477 OA
ATOM     11  H   UNL     1      35.441 -17.247 -25.992  0.00  0.00    +0.295 HD
ENDBRANCH   9  10
ENDBRANCH   2   9
TORSDOF 2
ENDMDL
MODEL 8
REMARK VINA RESULT:      -5.8      3.438      4.295
REMARK  Name = 6318
REMARK  2 active torsions:
REMARK  status: ('A' for Active; 'I' for Inactive)
REMARK    1  A    between atoms: C_2  and  C_9
REMARK    2  A    between atoms: C_9  and  O_10
REMARK                            x       y       z     vdW  Elec       q    Type
REMARK                         _______ _______ _______ _____ _____    ______ ____
ROOT
ATOM      1 CL   UNL     1      34.295 -16.146 -25.517  0.00  0.00    -0.082 Cl
ATOM      2  C   UNL     1      35.147 -18.788 -21.961  0.00  0.00    +0.076 C 
ATOM      3  C   UNL     1      35.161 -17.401 -21.819  0.00  0.00    +0.007 C 
ATOM      4  C   UNL     1      34.869 -19.359 -23.204  0.00  0.00    +0.007 C 
ATOM      5  C   UNL     1      34.897 -16.584 -22.919  0.00  0.00    +0.012 C 
ATOM      6  C   UNL     1      34.605 -18.542 -24.304  0.00  0.00    +0.012 C 
ATOM      7  C   UNL     1      34.619 -17.155 -24.161  0.00  0.00    +0.058 C 
ENDROOT
BRANCH   2   9
ATOM      8  O   UNL     1      34.641 -20.475 -20.343  0.00  0.00    -0.245 OA
ATOM      9  C   UNL     1      35.420 -19.640 -20.815  0.00  0.00    +0.338 C 
BRANCH   9  10
ATOM     10  O   UNL     1      36.657 -19.426 -20.290  0.00  0.00    -0.477 OA
ATOM     11  H   UNL     1      36.747 -19.154 -19.398  0.00  0.00    +0.295 HD
ENDBRANCH   9  10
ENDBRANCH   2   9
TORSDOF 2
ENDMDL
MODEL 9
REMARK VINA RESULT:      -5.8      5.108      6.148
REMARK  Name = 6318
REMARK  2 active torsions:
REMARK  status: ('A' for Active; 'I' for Inactive)
REMARK    1  A    between atoms: C_2  and  C_9
REMARK    2  A    between atoms: C_9  and  O_10
REMARK                            x       y       z     vdW  Elec       q    Type
REMARK                         _______ _______ _______ _____ _____    ______ ____
ROOT
ATOM      1 CL   UNL     1      33.139 -14.907 -26.440  0.00  0.00    -0.082 Cl
ATOM      2  C   UNL     1      34.895 -16.896 -22.791  0.00  0.00    +0.076 C 
ATOM      3  C   UNL     1      34.307 -15.636 -22.684  0.00  0.00    +0.007 C 
ATOM      4  C   UNL     1      34.941 -17.542 -24.028  0.00  0.00    +0.007 C 
ATOM      5  C   UNL     1      33.764 -15.021 -23.812  0.00  0.00    +0.012 C 
ATOM      6  C   UNL     1      34.398 -16.927 -25.156  0.00  0.00    +0.012 C 
ATOM      7  C   UNL     1      33.809 -15.667 -25.048  0.00  0.00    +0.058 C 
ENDROOT
BRANCH   2   9
ATOM      8  O   UNL     1      36.014 -18.641 -21.599  0.00  0.00    -0.245 OA
ATOM      9  C   UNL     1      35.460 -17.538 -21.615  0.00  0.00    +0.338 C 
BRANCH   9  10
ATOM     10  O   UNL     1      35.318 -16.783 -20.491  0.00  0.00    -0.477 OA
ATOM     11  H   UNL     1      36.016 -16.223 -20.212  0.00  0.00    +0.295 HD
ENDBRANCH   9  10
ENDBRANCH   2   9
TORSDOF 2
ENDMDL
