MODEL 1
REMARK VINA RESULT:      -9.6      0.000      0.000
REMARK  Name = 13099
REMARK  5 active torsions:
REMARK  status: ('A' for Active; 'I' for Inactive)
REMARK    1  A    between atoms: C_1  and  C_7
REMARK    2  A    between atoms: C_4  and  C_18
REMARK    3  A    between atoms: C_10  and  C_14
REMARK    4  A    between atoms: C_14  and  O_15
REMARK    5  A    between atoms: C_18  and  O_19
REMARK                            x       y       z     vdW  Elec       q    Type
REMARK                         _______ _______ _______ _____ _____    ______ ____
ROOT
ATOM      1  C   UNL     1      34.604 -20.089 -20.677  0.00  0.00    +0.000 C 
ATOM      2  C   UNL     1      35.817 -20.539 -20.156  0.00  0.00    +0.000 C 
ATOM      3  C   UNL     1      33.402 -20.603 -20.190  0.00  0.00    +0.000 C 
ATOM      4  C   UNL     1      34.626 -22.017 -18.661  0.00  0.00    +0.076 C 
ATOM      5  C   UNL     1      35.828 -21.503 -19.148  0.00  0.00    +0.006 C 
ATOM      6  C   UNL     1      33.413 -21.567 -19.182  0.00  0.00    +0.006 C 
ENDROOT
BRANCH   1   7
ATOM      7  C   UNL     1      34.592 -19.090 -21.723  0.00  0.00    +0.000 C 
ATOM      8  C   UNL     1      34.436 -17.742 -21.399  0.00  0.00    +0.000 C 
ATOM      9  C   UNL     1      34.736 -19.474 -23.057  0.00  0.00    +0.000 C 
ATOM     10  C   UNL     1      34.568 -17.164 -23.741  0.00  0.00    +0.076 C 
ATOM     11  C   UNL     1      34.424 -16.779 -22.409  0.00  0.00    +0.006 C 
ATOM     12  C   UNL     1      34.724 -18.512 -24.065  0.00  0.00    +0.006 C 
BRANCH  10  14
ATOM     13  O   UNL     1      34.855 -16.379 -25.974  0.00  0.00    -0.245 OA
ATOM     14  C   UNL     1      34.554 -16.159 -24.794  0.00  0.00    +0.341 C 
BRANCH  14  15
ATOM     15  O   UNL     1      34.165 -14.938 -24.317  0.00  0.00    -0.441 OA
ATOM     16  C   UNL     1      33.083 -14.293 -24.998  0.00  0.00    +0.256 C 
ENDBRANCH  14  15
ENDBRANCH  10  14
ENDBRANCH   1   7
BRANCH   4  18
ATOM     17  O   UNL     1      33.739 -23.854 -17.427  0.00  0.00    -0.245 OA
ATOM     18  C   UNL     1      34.637 -23.022 -17.609  0.00  0.00    +0.341 C 
BRANCH  18  19
ATOM     19  O   UNL     1      35.766 -22.935 -16.842  0.00  0.00    -0.441 OA
ATOM     20  C   UNL     1      35.579 -22.780 -15.431  0.00  0.00    +0.256 C 
ENDBRANCH  18  19
ENDBRANCH   4  18
TORSDOF 5
ENDMDL
MODEL 2
REMARK VINA RESULT:      -9.6      0.044      8.144
REMARK  Name = 13099
REMARK  5 active torsions:
REMARK  status: ('A' for Active; 'I' for Inactive)
REMARK    1  A    between atoms: C_1  and  C_7
REMARK    2  A    between atoms: C_4  and  C_18
REMARK    3  A    between atoms: C_10  and  C_14
REMARK    4  A    between atoms: C_14  and  O_15
REMARK    5  A    between atoms: C_18  and  O_19
REMARK                            x       y       z     vdW  Elec       q    Type
REMARK                         _______ _______ _______ _____ _____    ______ ____
ROOT
ATOM      1  C   UNL     1      34.598 -19.088 -21.756  0.00  0.00    +0.000 C 
ATOM      2  C   UNL     1      34.493 -17.736 -21.431  0.00  0.00    +0.000 C 
ATOM      3  C   UNL     1      34.695 -19.479 -23.092  0.00  0.00    +0.000 C 
ATOM      4  C   UNL     1      34.582 -17.165 -23.776  0.00  0.00    +0.076 C 
ATOM      5  C   UNL     1      34.485 -16.774 -22.441  0.00  0.00    +0.006 C 
ATOM      6  C   UNL     1      34.688 -18.517 -24.102  0.00  0.00    +0.006 C 
ENDROOT
BRANCH   1   7
ATOM      7  C   UNL     1      34.605 -20.086 -20.708  0.00  0.00    +0.000 C 
ATOM      8  C   UNL     1      33.401 -20.591 -20.218  0.00  0.00    +0.000 C 
ATOM      9  C   UNL     1      35.816 -20.542 -20.188  0.00  0.00    +0.000 C 
ATOM     10  C   UNL     1      34.619 -22.008 -18.687  0.00  0.00    +0.076 C 
ATOM     11  C   UNL     1      33.408 -21.553 -19.207  0.00  0.00    +0.006 C 
ATOM     12  C   UNL     1      35.823 -21.503 -19.178  0.00  0.00    +0.006 C 
BRANCH  10  14
ATOM     13  O   UNL     1      33.741 -23.861 -17.469  0.00  0.00    -0.245 OA
ATOM     14  C   UNL     1      34.626 -23.010 -17.632  0.00  0.00    +0.341 C 
BRANCH  14  15
ATOM     15  O   UNL     1      35.735 -22.898 -16.839  0.00  0.00    -0.441 OA
ATOM     16  C   UNL     1      35.513 -22.791 -15.429  0.00  0.00    +0.256 C 
ENDBRANCH  14  15
ENDBRANCH  10  14
ENDBRANCH   1   7
BRANCH   4  18
ATOM     17  O   UNL     1      34.871 -16.386 -26.011  0.00  0.00    -0.245 OA
ATOM     18  C   UNL     1      34.574 -16.162 -24.830  0.00  0.00    +0.341 C 
BRANCH  18  19
ATOM     19  O   UNL     1      34.198 -14.935 -24.355  0.00  0.00    -0.441 OA
ATOM     20  C   UNL     1      33.083 -14.307 -24.997  0.00  0.00    +0.256 C 
ENDBRANCH  18  19
ENDBRANCH   4  18
TORSDOF 5
ENDMDL
MODEL 3
REMARK VINA RESULT:      -9.3      1.064      8.210
REMARK  Name = 13099
REMARK  5 active torsions:
REMARK  status: ('A' for Active; 'I' for Inactive)
REMARK    1  A    between atoms: C_1  and  C_7
REMARK    2  A    between atoms: C_4  and  C_18
REMARK    3  A    between atoms: C_10  and  C_14
REMARK    4  A    between atoms: C_14  and  O_15
REMARK    5  A    between atoms: C_18  and  O_19
REMARK                            x       y       z     vdW  Elec       q    Type
REMARK                         _______ _______ _______ _____ _____    ______ ____
ROOT
ATOM      1  C   UNL     1      34.255 -18.121 -21.784  0.00  0.00    +0.000 C 
ATOM      2  C   UNL     1      33.834 -16.921 -21.211  0.00  0.00    +0.000 C 
ATOM      3  C   UNL     1      34.626 -18.160 -23.128  0.00  0.00    +0.000 C 
ATOM      4  C   UNL     1      34.156 -15.798 -23.325  0.00  0.00    +0.076 C 
ATOM      5  C   UNL     1      33.785 -15.759 -21.981  0.00  0.00    +0.006 C 
ATOM      6  C   UNL     1      34.577 -16.998 -23.899  0.00  0.00    +0.006 C 
ENDROOT
BRANCH   1   7
ATOM      7  C   UNL     1      34.305 -19.326 -20.985  0.00  0.00    +0.000 C 
ATOM      8  C   UNL     1      35.534 -19.914 -20.685  0.00  0.00    +0.000 C 
ATOM      9  C   UNL     1      33.124 -19.901 -20.514  0.00  0.00    +0.000 C 
ATOM     10  C   UNL     1      34.401 -21.650 -19.446  0.00  0.00    +0.076 C 
ATOM     11  C   UNL     1      35.582 -21.076 -19.916  0.00  0.00    +0.006 C 
ATOM     12  C   UNL     1      33.172 -21.063 -19.745  0.00  0.00    +0.006 C 
BRANCH  10  14
ATOM     13  O   UNL     1      33.856 -23.913 -18.923  0.00  0.00    -0.245 OA
ATOM     14  C   UNL     1      34.451 -22.864 -18.644  0.00  0.00    +0.341 C 
BRANCH  14  15
ATOM     15  O   UNL     1      35.241 -22.703 -17.538  0.00  0.00    -0.441 OA
ATOM     16  C   UNL     1      34.682 -23.102 -16.282  0.00  0.00    +0.256 C 
ENDBRANCH  14  15
ENDBRANCH  10  14
ENDBRANCH   1   7
BRANCH   4  18
ATOM     17  O   UNL     1      34.174 -13.439 -23.671  0.00  0.00    -0.245 OA
ATOM     18  C   UNL     1      34.105 -14.587 -24.130  0.00  0.00    +0.341 C 
BRANCH  18  19
ATOM     19  O   UNL     1      33.970 -14.872 -25.461  0.00  0.00    -0.441 OA
ATOM     20  C   UNL     1      32.779 -14.406 -26.104  0.00  0.00    +0.256 C 
ENDBRANCH  18  19
ENDBRANCH   4  18
TORSDOF 5
ENDMDL
MODEL 4
REMARK VINA RESULT:      -9.3      1.426      2.351
REMARK  Name = 13099
REMARK  5 active torsions:
REMARK  status: ('A' for Active; 'I' for Inactive)
REMARK    1  A    between atoms: C_1  and  C_7
REMARK    2  A    between atoms: C_4  and  C_18
REMARK    3  A    between atoms: C_10  and  C_14
REMARK    4  A    between atoms: C_14  and  O_15
REMARK    5  A    between atoms: C_18  and  O_19
REMARK                            x       y       z     vdW  Elec       q    Type
REMARK                         _______ _______ _______ _____ _____    ______ ____
ROOT
ATOM      1  C   UNL     1      34.705 -18.603 -21.454  0.00  0.00    +0.000 C 
ATOM      2  C   UNL     1      33.650 -19.392 -20.997  0.00  0.00    +0.000 C 
ATOM      3  C   UNL     1      36.019 -18.935 -21.125  0.00  0.00    +0.000 C 
ATOM      4  C   UNL     1      35.224 -20.847 -19.882  0.00  0.00    +0.076 C 
ATOM      5  C   UNL     1      33.909 -20.515 -20.211  0.00  0.00    +0.006 C 
ATOM      6  C   UNL     1      36.279 -20.057 -20.339  0.00  0.00    +0.006 C 
ENDROOT
BRANCH   1   7
ATOM      7  C   UNL     1      34.436 -17.437 -22.269  0.00  0.00    +0.000 C 
ATOM      8  C   UNL     1      33.931 -16.277 -21.682  0.00  0.00    +0.000 C 
ATOM      9  C   UNL     1      34.680 -17.475 -23.642  0.00  0.00    +0.000 C 
ATOM     10  C   UNL     1      33.916 -15.193 -23.840  0.00  0.00    +0.076 C 
ATOM     11  C   UNL     1      33.671 -15.155 -22.468  0.00  0.00    +0.006 C 
ATOM     12  C   UNL     1      34.421 -16.353 -24.428  0.00  0.00    +0.006 C 
BRANCH  10  14
ATOM     13  O   UNL     1      33.865 -12.855 -24.310  0.00  0.00    -0.245 OA
ATOM     14  C   UNL     1      33.643 -14.022 -24.660  0.00  0.00    +0.341 C 
BRANCH  14  15
ATOM     15  O   UNL     1      33.109 -14.368 -25.871  0.00  0.00    -0.441 OA
ATOM     16  C   UNL     1      33.229 -13.411 -26.929  0.00  0.00    +0.256 C 
ENDBRANCH  14  15
ENDBRANCH  10  14
ENDBRANCH   1   7
BRANCH   4  18
ATOM     17  O   UNL     1      34.694 -22.945 -18.879  0.00  0.00    -0.245 OA
ATOM     18  C   UNL     1      35.495 -22.018 -19.062  0.00  0.00    +0.341 C 
BRANCH  18  19
ATOM     19  O   UNL     1      36.747 -21.969 -18.513  0.00  0.00    -0.441 OA
ATOM     20  C   UNL     1      36.827 -21.937 -17.084  0.00  0.00    +0.256 C 
ENDBRANCH  18  19
ENDBRANCH   4  18
TORSDOF 5
ENDMDL
MODEL 5
REMARK VINA RESULT:      -9.3      1.451      2.369
REMARK  Name = 13099
REMARK  5 active torsions:
REMARK  status: ('A' for Active; 'I' for Inactive)
REMARK    1  A    between atoms: C_1  and  C_7
REMARK    2  A    between atoms: C_4  and  C_18
REMARK    3  A    between atoms: C_10  and  C_14
REMARK    4  A    between atoms: C_14  and  O_15
REMARK    5  A    between atoms: C_18  and  O_19
REMARK                            x       y       z     vdW  Elec       q    Type
REMARK                         _______ _______ _______ _____ _____    ______ ____
ROOT
ATOM      1  C   UNL     1      34.681 -18.567 -21.439  0.00  0.00    +0.000 C 
ATOM      2  C   UNL     1      35.996 -18.903 -21.120  0.00  0.00    +0.000 C 
ATOM      3  C   UNL     1      33.628 -19.365 -20.990  0.00  0.00    +0.000 C 
ATOM      4  C   UNL     1      35.207 -20.836 -19.904  0.00  0.00    +0.076 C 
ATOM      5  C   UNL     1      36.259 -20.038 -20.352  0.00  0.00    +0.006 C 
ATOM      6  C   UNL     1      33.891 -20.499 -20.223  0.00  0.00    +0.006 C 
ENDROOT
BRANCH   1   7
ATOM      7  C   UNL     1      34.408 -17.390 -22.236  0.00  0.00    +0.000 C 
ATOM      8  C   UNL     1      34.653 -17.406 -23.608  0.00  0.00    +0.000 C 
ATOM      9  C   UNL     1      33.901 -16.240 -21.631  0.00  0.00    +0.000 C 
ATOM     10  C   UNL     1      33.883 -15.122 -23.771  0.00  0.00    +0.076 C 
ATOM     11  C   UNL     1      34.391 -16.271 -24.376  0.00  0.00    +0.006 C 
ATOM     12  C   UNL     1      33.638 -15.106 -22.398  0.00  0.00    +0.006 C 
BRANCH  10  14
ATOM     13  O   UNL     1      33.927 -12.785 -24.247  0.00  0.00    -0.245 OA
ATOM     14  C   UNL     1      33.611 -13.938 -24.572  0.00  0.00    +0.341 C 
BRANCH  14  15
ATOM     15  O   UNL     1      32.960 -14.255 -25.732  0.00  0.00    -0.441 OA
ATOM     16  C   UNL     1      33.243 -13.441 -26.876  0.00  0.00    +0.256 C 
ENDBRANCH  14  15
ENDBRANCH  10  14
ENDBRANCH   1   7
BRANCH   4  18
ATOM     17  O   UNL     1      34.699 -22.970 -18.970  0.00  0.00    -0.245 OA
ATOM     18  C   UNL     1      35.481 -22.020 -19.103  0.00  0.00    +0.341 C 
BRANCH  18  19
ATOM     19  O   UNL     1      36.712 -21.953 -18.512  0.00  0.00    -0.441 OA
ATOM     20  C   UNL     1      36.746 -21.996 -17.081  0.00  0.00    +0.256 C 
ENDBRANCH  18  19
ENDBRANCH   4  18
TORSDOF 5
ENDMDL
MODEL 6
REMARK VINA RESULT:      -9.3      1.411      8.340
REMARK  Name = 13099
REMARK  5 active torsions:
REMARK  status: ('A' for Active; 'I' for Inactive)
REMARK    1  A    between atoms: C_1  and  C_7
REMARK    2  A    between atoms: C_4  and  C_18
REMARK    3  A    between atoms: C_10  and  C_14
REMARK    4  A    between atoms: C_14  and  O_15
REMARK    5  A    between atoms: C_18  and  O_19
REMARK                            x       y       z     vdW  Elec       q    Type
REMARK                         _______ _______ _______ _____ _____    ______ ____
ROOT
ATOM      1  C   UNL     1      34.400 -17.461 -22.253  0.00  0.00    +0.000 C 
ATOM      2  C   UNL     1      33.858 -16.314 -21.673  0.00  0.00    +0.000 C 
ATOM      3  C   UNL     1      34.685 -17.484 -23.618  0.00  0.00    +0.000 C 
ATOM      4  C   UNL     1      33.885 -15.214 -23.824  0.00  0.00    +0.076 C 
ATOM      5  C   UNL     1      33.600 -15.190 -22.459  0.00  0.00    +0.006 C 
ATOM      6  C   UNL     1      34.428 -16.361 -24.404  0.00  0.00    +0.006 C 
ENDROOT
BRANCH   1   7
ATOM      7  C   UNL     1      34.666 -18.627 -21.438  0.00  0.00    +0.000 C 
ATOM      8  C   UNL     1      33.608 -19.396 -20.954  0.00  0.00    +0.000 C 
ATOM      9  C   UNL     1      35.981 -18.981 -21.136  0.00  0.00    +0.000 C 
ATOM     10  C   UNL     1      35.180 -20.873 -19.866  0.00  0.00    +0.076 C 
ATOM     11  C   UNL     1      33.865 -20.519 -20.168  0.00  0.00    +0.006 C 
ATOM     12  C   UNL     1      36.238 -20.104 -20.350  0.00  0.00    +0.006 C 
BRANCH  10  14
ATOM     13  O   UNL     1      34.646 -22.971 -18.867  0.00  0.00    -0.245 OA
ATOM     14  C   UNL     1      35.447 -22.044 -19.045  0.00  0.00    +0.341 C 
BRANCH  14  15
ATOM     15  O   UNL     1      36.697 -21.995 -18.493  0.00  0.00    -0.441 OA
ATOM     16  C   UNL     1      36.772 -21.992 -17.063  0.00  0.00    +0.256 C 
ENDBRANCH  14  15
ENDBRANCH  10  14
ENDBRANCH   1   7
BRANCH   4  18
ATOM     17  O   UNL     1      33.867 -12.878 -24.304  0.00  0.00    -0.245 OA
ATOM     18  C   UNL     1      33.617 -14.042 -24.644  0.00  0.00    +0.341 C 
BRANCH  18  19
ATOM     19  O   UNL     1      33.050 -14.385 -25.841  0.00  0.00    -0.441 OA
ATOM     20  C   UNL     1      33.201 -13.454 -26.918  0.00  0.00    +0.256 C 
ENDBRANCH  18  19
ENDBRANCH   4  18
TORSDOF 5
ENDMDL
MODEL 7
REMARK VINA RESULT:      -8.9      1.617      8.280
REMARK  Name = 13099
REMARK  5 active torsions:
REMARK  status: ('A' for Active; 'I' for Inactive)
REMARK    1  A    between atoms: C_1  and  C_7
REMARK    2  A    between atoms: C_4  and  C_18
REMARK    3  A    between atoms: C_10  and  C_14
REMARK    4  A    between atoms: C_14  and  O_15
REMARK    5  A    between atoms: C_18  and  O_19
REMARK                            x       y       z     vdW  Elec       q    Type
REMARK                         _______ _______ _______ _____ _____    ______ ____
ROOT
ATOM      1  C   UNL     1      34.476 -17.101 -22.121  0.00  0.00    +0.000 C 
ATOM      2  C   UNL     1      34.398 -17.132 -23.513  0.00  0.00    +0.000 C 
ATOM      3  C   UNL     1      34.323 -15.893 -21.440  0.00  0.00    +0.000 C 
ATOM      4  C   UNL     1      34.013 -14.748 -23.545  0.00  0.00    +0.076 C 
ATOM      5  C   UNL     1      34.166 -15.955 -24.225  0.00  0.00    +0.006 C 
ATOM      6  C   UNL     1      34.091 -14.716 -22.152  0.00  0.00    +0.006 C 
ENDROOT
BRANCH   1   7
ATOM      7  C   UNL     1      34.718 -18.321 -21.382  0.00  0.00    +0.000 C 
ATOM      8  C   UNL     1      36.022 -18.692 -21.054  0.00  0.00    +0.000 C 
ATOM      9  C   UNL     1      33.647 -19.128 -20.998  0.00  0.00    +0.000 C 
ATOM     10  C   UNL     1      35.183 -20.675 -19.960  0.00  0.00    +0.076 C 
ATOM     11  C   UNL     1      36.254 -19.869 -20.343  0.00  0.00    +0.006 C 
ATOM     12  C   UNL     1      33.879 -20.305 -20.287  0.00  0.00    +0.006 C 
BRANCH  10  14
ATOM     13  O   UNL     1      36.458 -22.141 -18.576  0.00  0.00    -0.245 OA
ATOM     14  C   UNL     1      35.426 -21.903 -19.218  0.00  0.00    +0.341 C 
BRANCH  14  15
ATOM     15  O   UNL     1      34.371 -22.768 -19.318  0.00  0.00    -0.441 OA
ATOM     16  C   UNL     1      33.676 -23.083 -18.107  0.00  0.00    +0.256 C 
ENDBRANCH  14  15
ENDBRANCH  10  14
ENDBRANCH   1   7
BRANCH   4  18
ATOM     17  O   UNL     1      33.316 -13.476 -25.438  0.00  0.00    -0.245 OA
ATOM     18  C   UNL     1      33.771 -13.520 -24.287  0.00  0.00    +0.341 C 
BRANCH  18  19
ATOM     19  O   UNL     1      34.109 -12.414 -23.555  0.00  0.00    -0.441 OA
ATOM     20  C   UNL     1      33.611 -11.155 -24.019  0.00  0.00    +0.256 C 
ENDBRANCH  18  19
ENDBRANCH   4  18
TORSDOF 5
ENDMDL
MODEL 8
REMARK VINA RESULT:      -8.7      7.732      8.910
REMARK  Name = 13099
REMARK  5 active torsions:
REMARK  status: ('A' for Active; 'I' for Inactive)
REMARK    1  A    between atoms: C_1  and  C_7
REMARK    2  A    between atoms: C_4  and  C_18
REMARK    3  A    between atoms: C_10  and  C_14
REMARK    4  A    between atoms: C_14  and  O_15
REMARK    5  A    between atoms: C_18  and  O_19
REMARK                            x       y       z     vdW  Elec       q    Type
REMARK                         _______ _______ _______ _____ _____    ______ ____
ROOT
ATOM      1  C   UNL     1      34.002 -23.513 -14.352  0.00  0.00    +0.000 C 
ATOM      2  C   UNL     1      35.121 -23.057 -15.048  0.00  0.00    +0.000 C 
ATOM      3  C   UNL     1      34.158 -24.153 -13.123  0.00  0.00    +0.000 C 
ATOM      4  C   UNL     1      36.553 -23.882 -13.285  0.00  0.00    +0.076 C 
ATOM      5  C   UNL     1      36.397 -23.241 -14.514  0.00  0.00    +0.006 C 
ATOM      6  C   UNL     1      35.433 -24.338 -12.589  0.00  0.00    +0.006 C 
ENDROOT
BRANCH   1   7
ATOM      7  C   UNL     1      32.679 -23.322 -14.906  0.00  0.00    +0.000 C 
ATOM      8  C   UNL     1      31.574 -23.241 -14.059  0.00  0.00    +0.000 C 
ATOM      9  C   UNL     1      32.508 -23.220 -16.287  0.00  0.00    +0.000 C 
ATOM     10  C   UNL     1      30.128 -22.956 -15.974  0.00  0.00    +0.076 C 
ATOM     11  C   UNL     1      30.298 -23.058 -14.594  0.00  0.00    +0.006 C 
ATOM     12  C   UNL     1      31.234 -23.037 -16.821  0.00  0.00    +0.006 C 
BRANCH  10  14
ATOM     13  O   UNL     1      28.414 -23.246 -17.606  0.00  0.00    -0.245 OA
ATOM     14  C   UNL     1      28.798 -22.767 -16.531  0.00  0.00    +0.341 C 
BRANCH  14  15
ATOM     15  O   UNL     1      28.018 -21.990 -15.719  0.00  0.00    -0.441 OA
ATOM     16  C   UNL     1      26.608 -22.013 -15.961  0.00  0.00    +0.256 C 
ENDBRANCH  14  15
ENDBRANCH  10  14
ENDBRANCH   1   7
BRANCH   4  18
ATOM     17  O   UNL     1      38.150 -24.023 -11.520  0.00  0.00    -0.245 OA
ATOM     18  C   UNL     1      37.883 -24.075 -12.728  0.00  0.00    +0.341 C 
BRANCH  18  19
ATOM     19  O   UNL     1      38.807 -24.320 -13.706  0.00  0.00    -0.441 OA
ATOM     20  C   UNL     1      39.103 -25.692 -13.988  0.00  0.00    +0.256 C 
ENDBRANCH  18  19
ENDBRANCH   4  18
TORSDOF 5
ENDMDL
MODEL 9
REMARK VINA RESULT:      -8.7      1.911      8.534
REMARK  Name = 13099
REMARK  5 active torsions:
REMARK  status: ('A' for Active; 'I' for Inactive)
REMARK    1  A    between atoms: C_1  and  C_7
REMARK    2  A    between atoms: C_4  and  C_18
REMARK    3  A    between atoms: C_10  and  C_14
REMARK    4  A    between atoms: C_14  and  O_15
REMARK    5  A    between atoms: C_18  and  O_19
REMARK                            x       y       z     vdW  Elec       q    Type
REMARK                         _______ _______ _______ _____ _____    ______ ____
ROOT
ATOM      1  C   UNL     1      35.199 -20.844 -19.699  0.00  0.00    +0.000 C 
ATOM      2  C   UNL     1      36.364 -20.297 -20.237  0.00  0.00    +0.000 C 
ATOM      3  C   UNL     1      33.964 -20.567 -20.284  0.00  0.00    +0.000 C 
ATOM      4  C   UNL     1      35.057 -19.195 -21.945  0.00  0.00    +0.076 C 
ATOM      5  C   UNL     1      36.293 -19.472 -21.360  0.00  0.00    +0.006 C 
ATOM      6  C   UNL     1      33.892 -19.742 -21.407  0.00  0.00    +0.006 C 
ENDROOT
BRANCH   1   7
ATOM      7  C   UNL     1      35.273 -21.698 -18.534  0.00  0.00    +0.000 C 
ATOM      8  C   UNL     1      34.181 -22.492 -18.181  0.00  0.00    +0.000 C 
ATOM      9  C   UNL     1      36.435 -21.728 -17.762  0.00  0.00    +0.000 C 
ATOM     10  C   UNL     1      35.414 -23.344 -16.286  0.00  0.00    +0.076 C 
ATOM     11  C   UNL     1      34.253 -23.315 -17.057  0.00  0.00    +0.006 C 
ATOM     12  C   UNL     1      36.506 -22.551 -16.639  0.00  0.00    +0.006 C 
BRANCH  10  14
ATOM     13  O   UNL     1      35.365 -23.804 -13.947  0.00  0.00    -0.245 OA
ATOM     14  C   UNL     1      35.487 -24.202 -15.113  0.00  0.00    +0.341 C 
BRANCH  14  15
ATOM     15  O   UNL     1      35.710 -25.507 -15.457  0.00  0.00    -0.441 OA
ATOM     16  C   UNL     1      36.943 -26.089 -15.022  0.00  0.00    +0.256 C 
ENDBRANCH  14  15
ENDBRANCH  10  14
ENDBRANCH   1   7
BRANCH   4  18
ATOM     17  O   UNL     1      34.476 -18.667 -24.196  0.00  0.00    -0.245 OA
ATOM     18  C   UNL     1      34.983 -18.335 -23.116  0.00  0.00    +0.341 C 
BRANCH  18  19
ATOM     19  O   UNL     1      35.545 -17.111 -22.878  0.00  0.00    -0.441 OA
ATOM     20  C   UNL     1      34.772 -16.184 -22.108  0.00  0.00    +0.256 C 
ENDBRANCH  18  19
ENDBRANCH   4  18
TORSDOF 5
ENDMDL
