MODEL 1
REMARK VINA RESULT:      -9.8      0.000      0.000
REMARK  Name = 220535
REMARK  6 active torsions:
REMARK  status: ('A' for Active; 'I' for Inactive)
REMARK    1  A    between atoms: C_2  and  C_6
REMARK    2  A    between atoms: C_3  and  C_12
REMARK    3  A    between atoms: C_4  and  C_19
REMARK    4  A    between atoms: C_5  and  C_23
REMARK    5  A    between atoms: C_19  and  O_20
REMARK    6  A    between atoms: C_23  and  O_24
REMARK                            x       y       z     vdW  Elec       q    Type
REMARK                         _______ _______ _______ _____ _____    ______ ____
ROOT
ATOM      1  O   UNL     1      33.556 -15.710 -21.776  0.00  0.00    -0.453 OA
ATOM      2  C   UNL     1      33.182 -14.702 -22.603  0.00  0.00    +0.152 A 
ATOM      3  C   UNL     1      34.096 -16.674 -22.565  0.00  0.00    +0.152 A 
ATOM      4  C   UNL     1      33.473 -15.005 -23.908  0.00  0.00    +0.119 A 
ATOM      5  C   UNL     1      34.069 -16.288 -23.885  0.00  0.00    +0.119 A 
ENDROOT
BRANCH   2   6
ATOM      6  C   UNL     1      32.579 -13.570 -21.942  0.00  0.00    +0.035 C 
ATOM      7  C   UNL     1      32.524 -13.524 -20.549  0.00  0.00    +0.003 C 
ATOM      8  C   UNL     1      32.050 -12.522 -22.696  0.00  0.00    +0.003 C 
ATOM      9  C   UNL     1      31.939 -12.430 -19.910  0.00  0.00    +0.000 C 
ATOM     10  C   UNL     1      31.466 -11.429 -22.057  0.00  0.00    +0.000 C 
ATOM     11  C   UNL     1      31.410 -11.383 -20.664  0.00  0.00    +0.000 C 
ENDBRANCH   2   6
BRANCH   3  12
ATOM     12  C   UNL     1      34.560 -17.842 -21.868  0.00  0.00    +0.035 C 
ATOM     13  C   UNL     1      33.645 -18.770 -21.366  0.00  0.00    +0.003 C 
ATOM     14  C   UNL     1      35.930 -18.056 -21.688  0.00  0.00    +0.003 C 
ATOM     15  C   UNL     1      34.095 -19.904 -20.689  0.00  0.00    +0.000 C 
ATOM     16  C   UNL     1      36.380 -19.189 -21.010  0.00  0.00    +0.000 C 
ATOM     17  C   UNL     1      35.462 -20.113 -20.511  0.00  0.00    +0.000 C 
ENDBRANCH   3  12
BRANCH   4  19
ATOM     18  O   UNL     1      33.743 -13.061 -25.247  0.00  0.00    -0.245 OA
ATOM     19  C   UNL     1      33.210 -14.162 -25.039  0.00  0.00    +0.341 C 
BRANCH  19  20
ATOM     20  O   UNL     1      32.292 -14.656 -25.930  0.00  0.00    -0.477 OA
ATOM     21  H   UNL     1      31.559 -14.132 -26.186  0.00  0.00    +0.295 HD
ENDBRANCH  19  20
ENDBRANCH   4  19
BRANCH   5  23
ATOM     22  O   UNL     1      35.266 -16.631 -25.909  0.00  0.00    -0.245 OA
ATOM     23  C   UNL     1      34.558 -17.067 -24.987  0.00  0.00    +0.341 C 
BRANCH  23  24
ATOM     24  O   UNL     1      34.185 -18.387 -24.977  0.00  0.00    -0.477 OA
ATOM     25  H   UNL     1      33.639 -18.725 -25.660  0.00  0.00    +0.295 HD
ENDBRANCH  23  24
ENDBRANCH   5  23
TORSDOF 6
ENDMDL
MODEL 2
REMARK VINA RESULT:      -9.8      0.005      5.817
REMARK  Name = 220535
REMARK  6 active torsions:
REMARK  status: ('A' for Active; 'I' for Inactive)
REMARK    1  A    between atoms: C_2  and  C_6
REMARK    2  A    between atoms: C_3  and  C_12
REMARK    3  A    between atoms: C_4  and  C_19
REMARK    4  A    between atoms: C_5  and  C_23
REMARK    5  A    between atoms: C_19  and  O_20
REMARK    6  A    between atoms: C_23  and  O_24
REMARK                            x       y       z     vdW  Elec       q    Type
REMARK                         _______ _______ _______ _____ _____    ______ ____
ROOT
ATOM      1  O   UNL     1      33.556 -15.709 -21.777  0.00  0.00    -0.453 OA
ATOM      2  C   UNL     1      34.094 -16.669 -22.569  0.00  0.00    +0.152 A 
ATOM      3  C   UNL     1      33.179 -14.697 -22.601  0.00  0.00    +0.152 A 
ATOM      4  C   UNL     1      34.068 -16.289 -23.887  0.00  0.00    +0.119 A 
ATOM      5  C   UNL     1      33.473 -15.006 -23.909  0.00  0.00    +0.119 A 
ENDROOT
BRANCH   2   6
ATOM      6  C   UNL     1      34.559 -17.840 -21.868  0.00  0.00    +0.035 C 
ATOM      7  C   UNL     1      35.928 -18.049 -21.691  0.00  0.00    +0.003 C 
ATOM      8  C   UNL     1      33.643 -18.765 -21.367  0.00  0.00    +0.003 C 
ATOM      9  C   UNL     1      36.378 -19.182 -21.013  0.00  0.00    +0.000 C 
ATOM     10  C   UNL     1      34.094 -19.898 -20.689  0.00  0.00    +0.000 C 
ATOM     11  C   UNL     1      35.462 -20.106 -20.513  0.00  0.00    +0.000 C 
ENDBRANCH   2   6
BRANCH   3  12
ATOM     12  C   UNL     1      32.577 -13.569 -21.945  0.00  0.00    +0.035 C 
ATOM     13  C   UNL     1      32.519 -13.518 -20.549  0.00  0.00    +0.003 C 
ATOM     14  C   UNL     1      32.048 -12.517 -22.697  0.00  0.00    +0.003 C 
ATOM     15  C   UNL     1      31.935 -12.423 -19.912  0.00  0.00    +0.000 C 
ATOM     16  C   UNL     1      31.463 -11.423 -22.060  0.00  0.00    +0.000 C 
ATOM     17  C   UNL     1      31.408 -11.376 -20.666  0.00  0.00    +0.000 C 
ENDBRANCH   3  12
BRANCH   4  19
ATOM     18  O   UNL     1      35.266 -16.632 -25.910  0.00  0.00    -0.245 OA
ATOM     19  C   UNL     1      34.557 -17.067 -24.988  0.00  0.00    +0.341 C 
BRANCH  19  20
ATOM     20  O   UNL     1      34.186 -18.387 -24.978  0.00  0.00    -0.477 OA
ATOM     21  H   UNL     1      34.763 -19.039 -25.325  0.00  0.00    +0.295 HD
ENDBRANCH  19  20
ENDBRANCH   4  19
BRANCH   5  23
ATOM     22  O   UNL     1      33.745 -13.062 -25.248  0.00  0.00    -0.245 OA
ATOM     23  C   UNL     1      33.210 -14.162 -25.040  0.00  0.00    +0.341 C 
BRANCH  23  24
ATOM     24  O   UNL     1      32.288 -14.654 -25.930  0.00  0.00    -0.477 OA
ATOM     25  H   UNL     1      32.250 -14.309 -26.801  0.00  0.00    +0.295 HD
ENDBRANCH  23  24
ENDBRANCH   5  23
TORSDOF 6
ENDMDL
MODEL 3
REMARK VINA RESULT:      -9.7      7.564     10.970
REMARK  Name = 220535
REMARK  6 active torsions:
REMARK  status: ('A' for Active; 'I' for Inactive)
REMARK    1  A    between atoms: C_2  and  C_6
REMARK    2  A    between atoms: C_3  and  C_12
REMARK    3  A    between atoms: C_4  and  C_19
REMARK    4  A    between atoms: C_5  and  C_23
REMARK    5  A    between atoms: C_19  and  O_20
REMARK    6  A    between atoms: C_23  and  O_24
REMARK                            x       y       z     vdW  Elec       q    Type
REMARK                         _______ _______ _______ _____ _____    ______ ____
ROOT
ATOM      1  O   UNL     1      33.050 -22.899 -17.107  0.00  0.00    -0.453 OA
ATOM      2  C   UNL     1      34.377 -22.632 -17.191  0.00  0.00    +0.152 A 
ATOM      3  C   UNL     1      32.858 -23.524 -15.917  0.00  0.00    +0.152 A 
ATOM      4  C   UNL     1      35.038 -23.077 -16.075  0.00  0.00    +0.119 A 
ATOM      5  C   UNL     1      34.050 -23.658 -15.245  0.00  0.00    +0.119 A 
ENDROOT
BRANCH   2   6
ATOM      6  C   UNL     1      34.783 -21.960 -18.401  0.00  0.00    +0.035 C 
ATOM      7  C   UNL     1      33.821 -21.436 -19.265  0.00  0.00    +0.003 C 
ATOM      8  C   UNL     1      36.138 -21.835 -18.709  0.00  0.00    +0.003 C 
ATOM      9  C   UNL     1      34.214 -20.787 -20.436  0.00  0.00    +0.000 C 
ATOM     10  C   UNL     1      36.531 -21.186 -19.879  0.00  0.00    +0.000 C 
ATOM     11  C   UNL     1      35.569 -20.663 -20.743  0.00  0.00    +0.000 C 
ENDBRANCH   2   6
BRANCH   3  12
ATOM     12  C   UNL     1      31.498 -23.894 -15.636  0.00  0.00    +0.035 C 
ATOM     13  C   UNL     1      31.215 -25.118 -15.025  0.00  0.00    +0.003 C 
ATOM     14  C   UNL     1      30.451 -23.031 -15.972  0.00  0.00    +0.003 C 
ATOM     15  C   UNL     1      29.895 -25.477 -14.753  0.00  0.00    +0.000 C 
ATOM     16  C   UNL     1      29.130 -23.390 -15.700  0.00  0.00    +0.000 C 
ATOM     17  C   UNL     1      28.853 -24.614 -15.089  0.00  0.00    +0.000 C 
ENDBRANCH   3  12
BRANCH   4  19
ATOM     18  O   UNL     1      37.050 -21.891 -15.637  0.00  0.00    -0.245 OA
ATOM     19  C   UNL     1      36.448 -22.957 -15.837  0.00  0.00    +0.341 C 
BRANCH  19  20
ATOM     20  O   UNL     1      37.140 -24.142 -15.842  0.00  0.00    -0.477 OA
ATOM     21  H   UNL     1      37.919 -24.227 -16.356  0.00  0.00    +0.295 HD
ENDBRANCH  19  20
ENDBRANCH   4  19
BRANCH   5  23
ATOM     22  O   UNL     1      33.642 -23.909 -12.917  0.00  0.00    -0.245 OA
ATOM     23  C   UNL     1      34.213 -24.272 -13.958  0.00  0.00    +0.341 C 
BRANCH  23  24
ATOM     24  O   UNL     1      35.077 -25.338 -13.928  0.00  0.00    -0.477 OA
ATOM     25  H   UNL     1      34.859 -26.129 -14.380  0.00  0.00    +0.295 HD
ENDBRANCH  23  24
ENDBRANCH   5  23
TORSDOF 6
ENDMDL
MODEL 4
REMARK VINA RESULT:      -9.6      7.601     11.151
REMARK  Name = 220535
REMARK  6 active torsions:
REMARK  status: ('A' for Active; 'I' for Inactive)
REMARK    1  A    between atoms: C_2  and  C_6
REMARK    2  A    between atoms: C_3  and  C_12
REMARK    3  A    between atoms: C_4  and  C_19
REMARK    4  A    between atoms: C_5  and  C_23
REMARK    5  A    between atoms: C_19  and  O_20
REMARK    6  A    between atoms: C_23  and  O_24
REMARK                            x       y       z     vdW  Elec       q    Type
REMARK                         _______ _______ _______ _____ _____    ______ ____
ROOT
ATOM      1  O   UNL     1      33.093 -22.892 -17.036  0.00  0.00    -0.453 OA
ATOM      2  C   UNL     1      32.922 -23.514 -15.844  0.00  0.00    +0.152 A 
ATOM      3  C   UNL     1      34.422 -22.633 -17.148  0.00  0.00    +0.152 A 
ATOM      4  C   UNL     1      34.119 -23.657 -15.189  0.00  0.00    +0.119 A 
ATOM      5  C   UNL     1      35.096 -23.084 -16.037  0.00  0.00    +0.119 A 
ENDROOT
BRANCH   2   6
ATOM      6  C   UNL     1      31.559 -23.874 -15.539  0.00  0.00    +0.035 C 
ATOM      7  C   UNL     1      30.521 -22.991 -15.838  0.00  0.00    +0.003 C 
ATOM      8  C   UNL     1      31.277 -25.106 -14.947  0.00  0.00    +0.003 C 
ATOM      9  C   UNL     1      29.202 -23.339 -15.543  0.00  0.00    +0.000 C 
ATOM     10  C   UNL     1      29.959 -25.453 -14.653  0.00  0.00    +0.000 C 
ATOM     11  C   UNL     1      28.922 -24.569 -14.950  0.00  0.00    +0.000 C 
ENDBRANCH   2   6
BRANCH   3  12
ATOM     12  C   UNL     1      34.812 -21.969 -18.361  0.00  0.00    +0.035 C 
ATOM     13  C   UNL     1      36.166 -21.810 -18.670  0.00  0.00    +0.003 C 
ATOM     14  C   UNL     1      33.841 -21.477 -19.238  0.00  0.00    +0.003 C 
ATOM     15  C   UNL     1      36.546 -21.165 -19.847  0.00  0.00    +0.000 C 
ATOM     16  C   UNL     1      34.221 -20.831 -20.415  0.00  0.00    +0.000 C 
ATOM     17  C   UNL     1      35.574 -20.676 -20.719  0.00  0.00    +0.000 C 
ENDBRANCH   3  12
BRANCH   4  19
ATOM     18  O   UNL     1      33.737 -23.912 -12.858  0.00  0.00    -0.245 OA
ATOM     19  C   UNL     1      34.299 -24.270 -13.905  0.00  0.00    +0.341 C 
BRANCH  19  20
ATOM     20  O   UNL     1      35.169 -25.331 -13.884  0.00  0.00    -0.477 OA
ATOM     21  H   UNL     1      34.872 -26.175 -13.604  0.00  0.00    +0.295 HD
ENDBRANCH  19  20
ENDBRANCH   4  19
BRANCH   5  23
ATOM     22  O   UNL     1      37.122 -21.910 -15.635  0.00  0.00    -0.245 OA
ATOM     23  C   UNL     1      36.511 -22.974 -15.823  0.00  0.00    +0.341 C 
BRANCH  23  24
ATOM     24  O   UNL     1      37.196 -24.163 -15.838  0.00  0.00    -0.477 OA
ATOM     25  H   UNL     1      37.010 -24.802 -16.499  0.00  0.00    +0.295 HD
ENDBRANCH  23  24
ENDBRANCH   5  23
TORSDOF 6
ENDMDL
MODEL 5
REMARK VINA RESULT:      -9.5      8.356     11.207
REMARK  Name = 220535
REMARK  6 active torsions:
REMARK  status: ('A' for Active; 'I' for Inactive)
REMARK    1  A    between atoms: C_2  and  C_6
REMARK    2  A    between atoms: C_3  and  C_12
REMARK    3  A    between atoms: C_4  and  C_19
REMARK    4  A    between atoms: C_5  and  C_23
REMARK    5  A    between atoms: C_19  and  O_20
REMARK    6  A    between atoms: C_23  and  O_24
REMARK                            x       y       z     vdW  Elec       q    Type
REMARK                         _______ _______ _______ _____ _____    ______ ____
ROOT
ATOM      1  O   UNL     1      32.460 -22.773 -16.874  0.00  0.00    -0.453 OA
ATOM      2  C   UNL     1      31.774 -23.402 -15.889  0.00  0.00    +0.152 A 
ATOM      3  C   UNL     1      33.770 -23.081 -16.689  0.00  0.00    +0.152 A 
ATOM      4  C   UNL     1      32.622 -24.108 -15.074  0.00  0.00    +0.119 A 
ATOM      5  C   UNL     1      33.921 -23.900 -15.594  0.00  0.00    +0.119 A 
ENDROOT
BRANCH   2   6
ATOM      6  C   UNL     1      30.347 -23.193 -15.917  0.00  0.00    +0.035 C 
ATOM      7  C   UNL     1      29.756 -22.295 -15.028  0.00  0.00    +0.003 C 
ATOM      8  C   UNL     1      29.557 -23.889 -16.833  0.00  0.00    +0.003 C 
ATOM      9  C   UNL     1      28.376 -22.093 -15.055  0.00  0.00    +0.000 C 
ATOM     10  C   UNL     1      28.177 -23.687 -16.860  0.00  0.00    +0.000 C 
ATOM     11  C   UNL     1      27.587 -22.789 -15.970  0.00  0.00    +0.000 C 
ENDBRANCH   2   6
BRANCH   3  12
ATOM     12  C   UNL     1      34.673 -22.503 -17.645  0.00  0.00    +0.035 C 
ATOM     13  C   UNL     1      35.968 -22.146 -17.261  0.00  0.00    +0.003 C 
ATOM     14  C   UNL     1      34.262 -22.295 -18.965  0.00  0.00    +0.003 C 
ATOM     15  C   UNL     1      36.845 -21.584 -18.189  0.00  0.00    +0.000 C 
ATOM     16  C   UNL     1      35.138 -21.732 -19.892  0.00  0.00    +0.000 C 
ATOM     17  C   UNL     1      36.431 -21.378 -19.504  0.00  0.00    +0.000 C 
ENDBRANCH   3  12
BRANCH   4  19
ATOM     18  O   UNL     1      31.198 -25.574 -13.862  0.00  0.00    -0.245 OA
ATOM     19  C   UNL     1      32.229 -24.887 -13.936  0.00  0.00    +0.341 C 
BRANCH  19  20
ATOM     20  O   UNL     1      33.092 -24.835 -12.870  0.00  0.00    -0.477 OA
ATOM     21  H   UNL     1      32.967 -24.196 -12.197  0.00  0.00    +0.295 HD
ENDBRANCH  19  20
ENDBRANCH   4  19
BRANCH   5  23
ATOM     22  O   UNL     1      35.790 -25.368 -15.613  0.00  0.00    -0.245 OA
ATOM     23  C   UNL     1      35.170 -24.417 -15.111  0.00  0.00    +0.341 C 
BRANCH  23  24
ATOM     24  O   UNL     1      35.676 -23.778 -14.007  0.00  0.00    -0.477 OA
ATOM     25  H   UNL     1      35.862 -24.265 -13.228  0.00  0.00    +0.295 HD
ENDBRANCH  23  24
ENDBRANCH   5  23
TORSDOF 6
ENDMDL
MODEL 6
REMARK VINA RESULT:      -9.4      8.085     11.308
REMARK  Name = 220535
REMARK  6 active torsions:
REMARK  status: ('A' for Active; 'I' for Inactive)
REMARK    1  A    between atoms: C_2  and  C_6
REMARK    2  A    between atoms: C_3  and  C_12
REMARK    3  A    between atoms: C_4  and  C_19
REMARK    4  A    between atoms: C_5  and  C_23
REMARK    5  A    between atoms: C_19  and  O_20
REMARK    6  A    between atoms: C_23  and  O_24
REMARK                            x       y       z     vdW  Elec       q    Type
REMARK                         _______ _______ _______ _____ _____    ______ ____
ROOT
ATOM      1  O   UNL     1      32.733 -22.794 -17.004  0.00  0.00    -0.453 OA
ATOM      2  C   UNL     1      34.082 -22.878 -16.893  0.00  0.00    +0.152 A 
ATOM      3  C   UNL     1      32.219 -23.374 -15.889  0.00  0.00    +0.152 A 
ATOM      4  C   UNL     1      34.440 -23.503 -15.726  0.00  0.00    +0.119 A 
ATOM      5  C   UNL     1      33.228 -23.827 -15.071  0.00  0.00    +0.119 A 
ENDROOT
BRANCH   2   6
ATOM      6  C   UNL     1      34.816 -22.308 -17.996  0.00  0.00    +0.035 C 
ATOM      7  C   UNL     1      34.173 -22.064 -19.210  0.00  0.00    +0.003 C 
ATOM      8  C   UNL     1      36.169 -22.000 -17.850  0.00  0.00    +0.003 C 
ATOM      9  C   UNL     1      34.883 -21.513 -20.277  0.00  0.00    +0.000 C 
ATOM     10  C   UNL     1      36.879 -21.450 -18.917  0.00  0.00    +0.000 C 
ATOM     11  C   UNL     1      36.236 -21.207 -20.130  0.00  0.00    +0.000 C 
ENDBRANCH   2   6
BRANCH   3  12
ATOM     12  C   UNL     1      30.784 -23.385 -15.815  0.00  0.00    +0.035 C 
ATOM     13  C   UNL     1      30.061 -24.454 -16.353  0.00  0.00    +0.003 C 
ATOM     14  C   UNL     1      30.102 -22.328 -15.205  0.00  0.00    +0.003 C 
ATOM     15  C   UNL     1      28.668 -24.465 -16.282  0.00  0.00    +0.000 C 
ATOM     16  C   UNL     1      28.709 -22.339 -15.135  0.00  0.00    +0.000 C 
ATOM     17  C   UNL     1      27.992 -23.408 -15.673  0.00  0.00    +0.000 C 
ENDBRANCH   3  12
BRANCH   4  19
ATOM     18  O   UNL     1      36.459 -23.003 -14.578  0.00  0.00    -0.245 OA
ATOM     19  C   UNL     1      35.784 -23.758 -15.295  0.00  0.00    +0.341 C 
BRANCH  19  20
ATOM     20  O   UNL     1      36.321 -24.942 -15.735  0.00  0.00    -0.477 OA
ATOM     21  H   UNL     1      37.019 -25.346 -15.257  0.00  0.00    +0.295 HD
ENDBRANCH  19  20
ENDBRANCH   4  19
BRANCH   5  23
ATOM     22  O   UNL     1      33.564 -24.146 -12.741  0.00  0.00    -0.245 OA
ATOM     23  C   UNL     1      33.042 -24.491 -13.813  0.00  0.00    +0.341 C 
BRANCH  23  24
ATOM     24  O   UNL     1      32.215 -25.585 -13.849  0.00  0.00    -0.477 OA
ATOM     25  H   UNL     1      31.673 -25.787 -13.112  0.00  0.00    +0.295 HD
ENDBRANCH  23  24
ENDBRANCH   5  23
TORSDOF 6
ENDMDL
MODEL 7
REMARK VINA RESULT:      -9.3      7.778     12.144
REMARK  Name = 220535
REMARK  6 active torsions:
REMARK  status: ('A' for Active; 'I' for Inactive)
REMARK    1  A    between atoms: C_2  and  C_6
REMARK    2  A    between atoms: C_3  and  C_12
REMARK    3  A    between atoms: C_4  and  C_19
REMARK    4  A    between atoms: C_5  and  C_23
REMARK    5  A    between atoms: C_19  and  O_20
REMARK    6  A    between atoms: C_23  and  O_24
REMARK                            x       y       z     vdW  Elec       q    Type
REMARK                         _______ _______ _______ _____ _____    ______ ____
ROOT
ATOM      1  O   UNL     1      35.627 -23.459 -16.362  0.00  0.00    -0.453 OA
ATOM      2  C   UNL     1      35.372 -24.110 -15.200  0.00  0.00    +0.152 A 
ATOM      3  C   UNL     1      34.433 -22.991 -16.811  0.00  0.00    +0.152 A 
ATOM      4  C   UNL     1      34.036 -24.067 -14.897  0.00  0.00    +0.119 A 
ATOM      5  C   UNL     1      33.423 -23.339 -15.944  0.00  0.00    +0.119 A 
ENDROOT
BRANCH   2   6
ATOM      6  C   UNL     1      36.531 -24.685 -14.562  0.00  0.00    +0.035 C 
ATOM      7  C   UNL     1      37.048 -25.898 -15.018  0.00  0.00    +0.003 C 
ATOM      8  C   UNL     1      37.136 -24.029 -13.490  0.00  0.00    +0.003 C 
ATOM      9  C   UNL     1      38.168 -26.455 -14.401  0.00  0.00    +0.000 C 
ATOM     10  C   UNL     1      38.257 -24.585 -12.873  0.00  0.00    +0.000 C 
ATOM     11  C   UNL     1      38.772 -25.799 -13.329  0.00  0.00    +0.000 C 
ENDBRANCH   2   6
BRANCH   3  12
ATOM     12  C   UNL     1      34.491 -22.263 -18.048  0.00  0.00    +0.035 C 
ATOM     13  C   UNL     1      35.722 -21.834 -18.554  0.00  0.00    +0.003 C 
ATOM     14  C   UNL     1      33.318 -21.978 -18.752  0.00  0.00    +0.003 C 
ATOM     15  C   UNL     1      35.778 -21.127 -19.755  0.00  0.00    +0.000 C 
ATOM     16  C   UNL     1      33.374 -21.269 -19.952  0.00  0.00    +0.000 C 
ATOM     17  C   UNL     1      34.605 -20.845 -20.454  0.00  0.00    +0.000 C 
ENDBRANCH   3  12
BRANCH   4  19
ATOM     18  O   UNL     1      33.774 -24.454 -12.567  0.00  0.00    -0.245 OA
ATOM     19  C   UNL     1      33.423 -24.655 -13.741  0.00  0.00    +0.341 C 
BRANCH  19  20
ATOM     20  O   UNL     1      32.373 -25.497 -14.004  0.00  0.00    -0.477 OA
ATOM     21  H   UNL     1      32.068 -25.604 -14.884  0.00  0.00    +0.295 HD
ENDBRANCH  19  20
ENDBRANCH   4  19
BRANCH   5  23
ATOM     22  O   UNL     1      31.392 -23.145 -17.163  0.00  0.00    -0.245 OA
ATOM     23  C   UNL     1      32.037 -23.008 -16.111  0.00  0.00    +0.341 C 
BRANCH  23  24
ATOM     24  O   UNL     1      31.421 -22.505 -14.993  0.00  0.00    -0.477 OA
ATOM     25  H   UNL     1      30.716 -22.978 -14.593  0.00  0.00    +0.295 HD
ENDBRANCH  23  24
ENDBRANCH   5  23
TORSDOF 6
ENDMDL
MODEL 8
REMARK VINA RESULT:      -9.2      4.955      7.908
REMARK  Name = 220535
REMARK  6 active torsions:
REMARK  status: ('A' for Active; 'I' for Inactive)
REMARK    1  A    between atoms: C_2  and  C_6
REMARK    2  A    between atoms: C_3  and  C_12
REMARK    3  A    between atoms: C_4  and  C_19
REMARK    4  A    between atoms: C_5  and  C_23
REMARK    5  A    between atoms: C_19  and  O_20
REMARK    6  A    between atoms: C_23  and  O_24
REMARK                            x       y       z     vdW  Elec       q    Type
REMARK                         _______ _______ _______ _____ _____    ______ ____
ROOT
ATOM      1  O   UNL     1      32.806  -9.330 -23.445  0.00  0.00    -0.453 OA
ATOM      2  C   UNL     1      32.629  -8.052 -23.025  0.00  0.00    +0.152 A 
ATOM      3  C   UNL     1      32.524 -10.127 -22.382  0.00  0.00    +0.152 A 
ATOM      4  C   UNL     1      32.239  -8.018 -21.711  0.00  0.00    +0.119 A 
ATOM      5  C   UNL     1      32.169  -9.368 -21.291  0.00  0.00    +0.119 A 
ENDROOT
BRANCH   2   6
ATOM      6  C   UNL     1      32.885  -7.046 -24.026  0.00  0.00    +0.035 C 
ATOM      7  C   UNL     1      31.859  -6.193 -24.434  0.00  0.00    +0.003 C 
ATOM      8  C   UNL     1      34.157  -6.925 -24.586  0.00  0.00    +0.003 C 
ATOM      9  C   UNL     1      32.106  -5.219 -25.403  0.00  0.00    +0.000 C 
ATOM     10  C   UNL     1      34.404  -5.951 -25.554  0.00  0.00    +0.000 C 
ATOM     11  C   UNL     1      33.378  -5.099 -25.963  0.00  0.00    +0.000 C 
ENDBRANCH   2   6
BRANCH   3  12
ATOM     12  C   UNL     1      32.654 -11.536 -22.627  0.00  0.00    +0.035 C 
ATOM     13  C   UNL     1      33.395 -11.994 -23.720  0.00  0.00    +0.003 C 
ATOM     14  C   UNL     1      32.041 -12.458 -21.773  0.00  0.00    +0.003 C 
ATOM     15  C   UNL     1      33.521 -13.363 -23.958  0.00  0.00    +0.000 C 
ATOM     16  C   UNL     1      32.167 -13.827 -22.012  0.00  0.00    +0.000 C 
ATOM     17  C   UNL     1      32.908 -14.279 -23.105  0.00  0.00    +0.000 C 
ENDBRANCH   3  12
BRANCH   4  19
ATOM     18  O   UNL     1      31.143  -5.957 -21.267  0.00  0.00    -0.245 OA
ATOM     19  C   UNL     1      31.966  -6.831 -20.953  0.00  0.00    +0.341 C 
BRANCH  19  20
ATOM     20  O   UNL     1      32.696  -6.699 -19.799  0.00  0.00    -0.477 OA
ATOM     21  H   UNL     1      32.500  -6.006 -19.198  0.00  0.00    +0.295 HD
ENDBRANCH  19  20
ENDBRANCH   4  19
BRANCH   5  23
ATOM     22  O   UNL     1      30.764 -10.505 -19.749  0.00  0.00    -0.245 OA
ATOM     23  C   UNL     1      31.809  -9.885 -20.002  0.00  0.00    +0.341 C 
BRANCH  23  24
ATOM     24  O   UNL     1      32.722  -9.650 -19.005  0.00  0.00    -0.477 OA
ATOM     25  H   UNL     1      33.581  -9.340 -19.220  0.00  0.00    +0.295 HD
ENDBRANCH  23  24
ENDBRANCH   5  23
TORSDOF 6
ENDMDL
MODEL 9
REMARK VINA RESULT:      -9.2      4.960      9.517
REMARK  Name = 220535
REMARK  6 active torsions:
REMARK  status: ('A' for Active; 'I' for Inactive)
REMARK    1  A    between atoms: C_2  and  C_6
REMARK    2  A    between atoms: C_3  and  C_12
REMARK    3  A    between atoms: C_4  and  C_19
REMARK    4  A    between atoms: C_5  and  C_23
REMARK    5  A    between atoms: C_19  and  O_20
REMARK    6  A    between atoms: C_23  and  O_24
REMARK                            x       y       z     vdW  Elec       q    Type
REMARK                         _______ _______ _______ _____ _____    ______ ____
ROOT
ATOM      1  O   UNL     1      32.804  -9.324 -23.450  0.00  0.00    -0.453 OA
ATOM      2  C   UNL     1      32.521 -10.116 -22.387  0.00  0.00    +0.152 A 
ATOM      3  C   UNL     1      32.630  -8.043 -23.033  0.00  0.00    +0.152 A 
ATOM      4  C   UNL     1      32.169  -9.364 -21.295  0.00  0.00    +0.119 A 
ATOM      5  C   UNL     1      32.239  -8.015 -21.714  0.00  0.00    +0.119 A 
ENDROOT
BRANCH   2   6
ATOM      6  C   UNL     1      32.650 -11.531 -22.635  0.00  0.00    +0.035 C 
ATOM      7  C   UNL     1      33.387 -11.982 -23.731  0.00  0.00    +0.003 C 
ATOM      8  C   UNL     1      32.038 -12.449 -21.781  0.00  0.00    +0.003 C 
ATOM      9  C   UNL     1      33.511 -13.351 -23.972  0.00  0.00    +0.000 C 
ATOM     10  C   UNL     1      32.162 -13.817 -22.022  0.00  0.00    +0.000 C 
ATOM     11  C   UNL     1      32.898 -14.268 -23.118  0.00  0.00    +0.000 C 
ENDBRANCH   2   6
BRANCH   3  12
ATOM     12  C   UNL     1      32.885  -7.039 -24.028  0.00  0.00    +0.035 C 
ATOM     13  C   UNL     1      34.158  -6.916 -24.593  0.00  0.00    +0.003 C 
ATOM     14  C   UNL     1      31.862  -6.179 -24.439  0.00  0.00    +0.003 C 
ATOM     15  C   UNL     1      34.406  -5.942 -25.559  0.00  0.00    +0.000 C 
ATOM     16  C   UNL     1      32.111  -5.203 -25.405  0.00  0.00    +0.000 C 
ATOM     17  C   UNL     1      33.383  -5.086 -25.965  0.00  0.00    +0.000 C 
ENDBRANCH   3  12
BRANCH   4  19
ATOM     18  O   UNL     1      30.762 -10.501 -19.754  0.00  0.00    -0.245 OA
ATOM     19  C   UNL     1      31.808  -9.882 -20.007  0.00  0.00    +0.341 C 
BRANCH  19  20
ATOM     20  O   UNL     1      32.722  -9.650 -19.011  0.00  0.00    -0.477 OA
ATOM     21  H   UNL     1      33.329 -10.320 -18.767  0.00  0.00    +0.295 HD
ENDBRANCH  19  20
ENDBRANCH   4  19
BRANCH   5  23
ATOM     22  O   UNL     1      31.145  -5.953 -21.270  0.00  0.00    -0.245 OA
ATOM     23  C   UNL     1      31.968  -6.828 -20.955  0.00  0.00    +0.341 C 
BRANCH  23  24
ATOM     24  O   UNL     1      32.699  -6.695 -19.802  0.00  0.00    -0.477 OA
ATOM     25  H   UNL     1      32.957  -7.458 -19.321  0.00  0.00    +0.295 HD
ENDBRANCH  23  24
ENDBRANCH   5  23
TORSDOF 6
ENDMDL
