MODEL 1
REMARK VINA RESULT:      -7.9      0.000      0.000
REMARK  Name = 9817381
REMARK  13 active torsions:
REMARK  status: ('A' for Active; 'I' for Inactive)
REMARK    1  A    between atoms: C_1  and  N_7
REMARK    2  A    between atoms: C_2  and  O_18
REMARK    3  A    between atoms: C_3  and  O_20
REMARK    4  A    between atoms: C_4  and  O_22
REMARK    5  A    between atoms: C_5  and  C_24
REMARK    6  A    between atoms: N_7  and  C_10
REMARK    7  A    between atoms: C_10  and  C_11
REMARK    8  A    between atoms: C_11  and  C_12
REMARK    9  A    between atoms: C_12  and  C_13
REMARK   10  A    between atoms: C_13  and  C_14
REMARK   11  A    between atoms: C_14  and  C_15
REMARK   12  A    between atoms: C_15  and  C_16
REMARK   13  A    between atoms: C_24  and  O_25
REMARK                            x       y       z     vdW  Elec       q    Type
REMARK                         _______ _______ _______ _____ _____    ______ ____
ROOT
ATOM      1  C   UNL     1      36.800 -24.359 -15.108  0.00  0.00    -0.009 C 
ATOM      2  C   UNL     1      37.471 -25.728 -14.875  0.00  0.00    +0.125 C 
ATOM      3  C   UNL     1      38.345 -25.762 -13.613  0.00  0.00    +0.166 C 
ATOM      4  C   UNL     1      37.581 -25.311 -12.357  0.00  0.00    +0.160 C 
ATOM      5  C   UNL     1      36.655 -24.139 -12.593  0.00  0.00    +0.007 C 
ATOM      6  C   UNL     1      36.335 -23.712 -13.828  0.00  0.00    -0.049 C 
ENDROOT
BRANCH   1   7
ATOM      7  N   UNL     1      37.709 -23.448 -15.811  0.00  0.00    +0.389 N 
ATOM      8  H   UNL     1      37.922 -23.833 -16.731  0.00  0.00    -0.084 HD
ATOM      9  H   UNL     1      38.562 -23.349 -15.260  0.00  0.00    -0.084 HD
BRANCH   7  10
ATOM     10  C   UNL     1      37.105 -22.130 -15.973  0.00  0.00    -0.081 C 
BRANCH  10  11
ATOM     11  C   UNL     1      36.821 -21.855 -17.449  0.00  0.00    -0.023 C 
BRANCH  11  12
ATOM     12  C   UNL     1      35.396 -22.271 -17.825  0.00  0.00    -0.002 C 
BRANCH  12  13
ATOM     13  C   UNL     1      35.046 -21.825 -19.247  0.00  0.00    -0.000 C 
BRANCH  13  14
ATOM     14  C   UNL     1      33.559 -21.508 -19.436  0.00  0.00    -0.000 C 
BRANCH  14  15
ATOM     15  C   UNL     1      33.305 -20.347 -20.400  0.00  0.00    -0.000 C 
BRANCH  15  16
ATOM     16  C   UNL     1      34.592 -19.713 -20.934  0.00  0.00    +0.000 C 
ATOM     17  C   UNL     1      34.469 -19.204 -22.362  0.00  0.00    +0.000 C 
ENDBRANCH  15  16
ENDBRANCH  14  15
ENDBRANCH  13  14
ENDBRANCH  12  13
ENDBRANCH  11  12
ENDBRANCH  10  11
ENDBRANCH   7  10
ENDBRANCH   1   7
BRANCH   2  18
ATOM     18  O   UNL     1      36.468 -26.742 -14.798  0.00  0.00    -0.384 OA
ATOM     19  H   UNL     1      35.606 -26.363 -15.032  0.00  0.00    +0.210 HD
ENDBRANCH   2  18
BRANCH   3  20
ATOM     20  O   UNL     1      39.478 -24.911 -13.782  0.00  0.00    -0.379 OA
ATOM     21  H   UNL     1      39.739 -24.546 -12.922  0.00  0.00    +0.211 HD
ENDBRANCH   3  20
BRANCH   4  22
ATOM     22  O   UNL     1      36.816 -26.416 -11.875  0.00  0.00    -0.378 OA
ATOM     23  H   UNL     1      36.975 -26.530 -10.926  0.00  0.00    +0.211 HD
ENDBRANCH   4  22
BRANCH   5  24
ATOM     24  C   UNL     1      36.124 -23.446 -11.369  0.00  0.00    +0.161 C 
BRANCH  24  25
ATOM     25  O   UNL     1      36.561 -24.129 -10.210  0.00  0.00    -0.377 OA
ATOM     26  H   UNL     1      37.529 -24.186 -10.215  0.00  0.00    +0.211 HD
ENDBRANCH  24  25
ENDBRANCH   5  24
TORSDOF 13
ENDMDL
MODEL 2
REMARK VINA RESULT:      -7.7      1.169      1.406
REMARK  Name = 9817381
REMARK  13 active torsions:
REMARK  status: ('A' for Active; 'I' for Inactive)
REMARK    1  A    between atoms: C_1  and  N_7
REMARK    2  A    between atoms: C_2  and  O_18
REMARK    3  A    between atoms: C_3  and  O_20
REMARK    4  A    between atoms: C_4  and  O_22
REMARK    5  A    between atoms: C_5  and  C_24
REMARK    6  A    between atoms: N_7  and  C_10
REMARK    7  A    between atoms: C_10  and  C_11
REMARK    8  A    between atoms: C_11  and  C_12
REMARK    9  A    between atoms: C_12  and  C_13
REMARK   10  A    between atoms: C_13  and  C_14
REMARK   11  A    between atoms: C_14  and  C_15
REMARK   12  A    between atoms: C_15  and  C_16
REMARK   13  A    between atoms: C_24  and  O_25
REMARK                            x       y       z     vdW  Elec       q    Type
REMARK                         _______ _______ _______ _____ _____    ______ ____
ROOT
ATOM      1  C   UNL     1      35.804 -24.572 -14.942  0.00  0.00    -0.009 C 
ATOM      2  C   UNL     1      36.772 -25.772 -14.997  0.00  0.00    +0.125 C 
ATOM      3  C   UNL     1      37.893 -25.689 -13.952  0.00  0.00    +0.166 C 
ATOM      4  C   UNL     1      37.353 -25.493 -12.525  0.00  0.00    +0.160 C 
ATOM      5  C   UNL     1      36.181 -24.540 -12.442  0.00  0.00    +0.007 C 
ATOM      6  C   UNL     1      35.516 -24.120 -13.533  0.00  0.00    -0.049 C 
ENDROOT
BRANCH   1   7
ATOM      7  N   UNL     1      36.332 -23.444 -15.716  0.00  0.00    +0.389 N 
ATOM      8  H   UNL     1      36.923 -23.801 -16.467  0.00  0.00    -0.084 HD
ATOM      9  H   UNL     1      36.873 -22.845 -15.092  0.00  0.00    -0.084 HD
BRANCH   7  10
ATOM     10  C   UNL     1      35.249 -22.656 -16.294  0.00  0.00    -0.081 C 
BRANCH  10  11
ATOM     11  C   UNL     1      34.047 -23.549 -16.597  0.00  0.00    -0.023 C 
BRANCH  11  12
ATOM     12  C   UNL     1      33.141 -22.916 -17.656  0.00  0.00    -0.002 C 
BRANCH  12  13
ATOM     13  C   UNL     1      33.855 -22.814 -19.006  0.00  0.00    -0.000 C 
BRANCH  13  14
ATOM     14  C   UNL     1      33.864 -21.395 -19.583  0.00  0.00    -0.000 C 
BRANCH  14  15
ATOM     15  C   UNL     1      35.266 -20.893 -19.937  0.00  0.00    -0.000 C 
BRANCH  15  16
ATOM     16  C   UNL     1      35.263 -19.789 -20.997  0.00  0.00    +0.000 C 
ATOM     17  C   UNL     1      33.913 -19.107 -21.157  0.00  0.00    +0.000 C 
ENDBRANCH  15  16
ENDBRANCH  14  15
ENDBRANCH  13  14
ENDBRANCH  12  13
ENDBRANCH  11  12
ENDBRANCH  10  11
ENDBRANCH   7  10
ENDBRANCH   1   7
BRANCH   2  18
ATOM     18  O   UNL     1      36.035 -26.984 -14.824  0.00  0.00    -0.384 OA
ATOM     19  H   UNL     1      35.591 -26.973 -13.962  0.00  0.00    +0.210 HD
ENDBRANCH   2  18
BRANCH   3  20
ATOM     20  O   UNL     1      38.765 -24.602 -14.258  0.00  0.00    -0.379 OA
ATOM     21  H   UNL     1      39.241 -24.334 -13.457  0.00  0.00    +0.211 HD
ENDBRANCH   3  20
BRANCH   4  22
ATOM     22  O   UNL     1      36.952 -26.765 -12.018  0.00  0.00    -0.378 OA
ATOM     23  H   UNL     1      36.339 -26.639 -11.277  0.00  0.00    +0.211 HD
ENDBRANCH   4  22
BRANCH   5  24
ATOM     24  C   UNL     1      35.809 -24.055 -11.069  0.00  0.00    +0.161 C 
BRANCH  24  25
ATOM     25  O   UNL     1      35.269 -25.125 -10.317  0.00  0.00    -0.377 OA
ATOM     26  H   UNL     1      35.990 -25.682  -9.985  0.00  0.00    +0.211 HD
ENDBRANCH  24  25
ENDBRANCH   5  24
TORSDOF 13
ENDMDL
MODEL 3
REMARK VINA RESULT:      -7.5      2.917      3.920
REMARK  Name = 9817381
REMARK  13 active torsions:
REMARK  status: ('A' for Active; 'I' for Inactive)
REMARK    1  A    between atoms: C_1  and  N_7
REMARK    2  A    between atoms: C_2  and  O_18
REMARK    3  A    between atoms: C_3  and  O_20
REMARK    4  A    between atoms: C_4  and  O_22
REMARK    5  A    between atoms: C_5  and  C_24
REMARK    6  A    between atoms: N_7  and  C_10
REMARK    7  A    between atoms: C_10  and  C_11
REMARK    8  A    between atoms: C_11  and  C_12
REMARK    9  A    between atoms: C_12  and  C_13
REMARK   10  A    between atoms: C_13  and  C_14
REMARK   11  A    between atoms: C_14  and  C_15
REMARK   12  A    between atoms: C_15  and  C_16
REMARK   13  A    between atoms: C_24  and  O_25
REMARK                            x       y       z     vdW  Elec       q    Type
REMARK                         _______ _______ _______ _____ _____    ______ ____
ROOT
ATOM      1  C   UNL     1      35.883 -24.328 -14.852  0.00  0.00    -0.009 C 
ATOM      2  C   UNL     1      36.775 -25.581 -14.967  0.00  0.00    +0.125 C 
ATOM      3  C   UNL     1      37.903 -25.613 -13.926  0.00  0.00    +0.166 C 
ATOM      4  C   UNL     1      37.381 -25.448 -12.488  0.00  0.00    +0.160 C 
ATOM      5  C   UNL     1      36.270 -24.431 -12.356  0.00  0.00    +0.007 C 
ATOM      6  C   UNL     1      35.628 -23.923 -13.423  0.00  0.00    -0.049 C 
ENDROOT
BRANCH   1   7
ATOM      7  N   UNL     1      36.476 -23.201 -15.579  0.00  0.00    +0.389 N 
ATOM      8  H   UNL     1      37.321 -23.518 -16.054  0.00  0.00    -0.084 HD
ATOM      9  H   UNL     1      36.698 -22.463 -14.911  0.00  0.00    -0.084 HD
BRANCH   7  10
ATOM     10  C   UNL     1      35.543 -22.669 -16.566  0.00  0.00    -0.081 C 
BRANCH  10  11
ATOM     11  C   UNL     1      34.235 -23.458 -16.539  0.00  0.00    -0.023 C 
BRANCH  11  12
ATOM     12  C   UNL     1      33.228 -22.894 -17.545  0.00  0.00    -0.002 C 
BRANCH  12  13
ATOM     13  C   UNL     1      31.802 -22.955 -16.993  0.00  0.00    -0.000 C 
BRANCH  13  14
ATOM     14  C   UNL     1      31.744 -23.179 -15.479  0.00  0.00    -0.000 C 
BRANCH  14  15
ATOM     15  C   UNL     1      30.354 -22.941 -14.883  0.00  0.00    -0.000 C 
BRANCH  15  16
ATOM     16  C   UNL     1      29.405 -24.127 -15.075  0.00  0.00    +0.000 C 
ATOM     17  C   UNL     1      30.066 -25.476 -14.840  0.00  0.00    +0.000 C 
ENDBRANCH  15  16
ENDBRANCH  14  15
ENDBRANCH  13  14
ENDBRANCH  12  13
ENDBRANCH  11  12
ENDBRANCH  10  11
ENDBRANCH   7  10
ENDBRANCH   1   7
BRANCH   2  18
ATOM     18  O   UNL     1      35.967 -26.753 -14.842  0.00  0.00    -0.384 OA
ATOM     19  H   UNL     1      35.978 -27.245 -15.679  0.00  0.00    +0.210 HD
ENDBRANCH   2  18
BRANCH   3  20
ATOM     20  O   UNL     1      38.839 -24.569 -14.189  0.00  0.00    -0.379 OA
ATOM     21  H   UNL     1      39.294 -24.746 -15.027  0.00  0.00    +0.211 HD
ENDBRANCH   3  20
BRANCH   4  22
ATOM     22  O   UNL     1      36.905 -26.715 -12.035  0.00  0.00    -0.378 OA
ATOM     23  H   UNL     1      37.627 -27.194 -11.598  0.00  0.00    +0.211 HD
ENDBRANCH   4  22
BRANCH   5  24
ATOM     24  C   UNL     1      35.933 -23.985 -10.960  0.00  0.00    +0.161 C 
BRANCH  24  25
ATOM     25  O   UNL     1      35.307 -25.044 -10.262  0.00  0.00    -0.377 OA
ATOM     26  H   UNL     1      34.358 -25.047 -10.463  0.00  0.00    +0.211 HD
ENDBRANCH  24  25
ENDBRANCH   5  24
TORSDOF 13
ENDMDL
MODEL 4
REMARK VINA RESULT:      -7.4      1.296      2.779
REMARK  Name = 9817381
REMARK  13 active torsions:
REMARK  status: ('A' for Active; 'I' for Inactive)
REMARK    1  A    between atoms: C_1  and  N_7
REMARK    2  A    between atoms: C_2  and  O_18
REMARK    3  A    between atoms: C_3  and  O_20
REMARK    4  A    between atoms: C_4  and  O_22
REMARK    5  A    between atoms: C_5  and  C_24
REMARK    6  A    between atoms: N_7  and  C_10
REMARK    7  A    between atoms: C_10  and  C_11
REMARK    8  A    between atoms: C_11  and  C_12
REMARK    9  A    between atoms: C_12  and  C_13
REMARK   10  A    between atoms: C_13  and  C_14
REMARK   11  A    between atoms: C_14  and  C_15
REMARK   12  A    between atoms: C_15  and  C_16
REMARK   13  A    between atoms: C_24  and  O_25
REMARK                            x       y       z     vdW  Elec       q    Type
REMARK                         _______ _______ _______ _____ _____    ______ ____
ROOT
ATOM      1  C   UNL     1      37.224 -23.310 -14.731  0.00  0.00    -0.009 C 
ATOM      2  C   UNL     1      36.271 -24.087 -13.800  0.00  0.00    +0.125 C 
ATOM      3  C   UNL     1      36.339 -25.607 -14.002  0.00  0.00    +0.166 C 
ATOM      4  C   UNL     1      37.772 -26.153 -13.889  0.00  0.00    +0.160 C 
ATOM      5  C   UNL     1      38.815 -25.266 -14.532  0.00  0.00    +0.007 C 
ATOM      6  C   UNL     1      38.547 -24.007 -14.924  0.00  0.00    -0.049 C 
ENDROOT
BRANCH   1   7
ATOM      7  N   UNL     1      36.599 -23.083 -16.039  0.00  0.00    +0.389 N 
ATOM      8  H   UNL     1      35.586 -23.134 -15.938  0.00  0.00    -0.084 HD
ATOM      9  H   UNL     1      36.930 -23.797 -16.687  0.00  0.00    -0.084 HD
BRANCH   7  10
ATOM     10  C   UNL     1      36.961 -21.772 -16.567  0.00  0.00    -0.081 C 
BRANCH  10  11
ATOM     11  C   UNL     1      36.640 -21.695 -18.059  0.00  0.00    -0.023 C 
BRANCH  11  12
ATOM     12  C   UNL     1      35.185 -22.085 -18.332  0.00  0.00    -0.002 C 
BRANCH  12  13
ATOM     13  C   UNL     1      34.756 -21.670 -19.742  0.00  0.00    -0.000 C 
BRANCH  13  14
ATOM     14  C   UNL     1      33.367 -21.027 -19.791  0.00  0.00    -0.000 C 
BRANCH  14  15
ATOM     15  C   UNL     1      33.260 -19.892 -20.812  0.00  0.00    -0.000 C 
BRANCH  15  16
ATOM     16  C   UNL     1      34.619 -19.423 -21.338  0.00  0.00    +0.000 C 
ATOM     17  C   UNL     1      34.619 -19.118 -22.828  0.00  0.00    +0.000 C 
ENDBRANCH  15  16
ENDBRANCH  14  15
ENDBRANCH  13  14
ENDBRANCH  12  13
ENDBRANCH  11  12
ENDBRANCH  10  11
ENDBRANCH   7  10
ENDBRANCH   1   7
BRANCH   2  18
ATOM     18  O   UNL     1      36.570 -23.765 -12.440  0.00  0.00    -0.384 OA
ATOM     19  H   UNL     1      37.424 -24.155 -12.195  0.00  0.00    +0.210 HD
ENDBRANCH   2  18
BRANCH   3  20
ATOM     20  O   UNL     1      35.826 -25.950 -15.289  0.00  0.00    -0.379 OA
ATOM     21  H   UNL     1      34.922 -25.610 -15.377  0.00  0.00    +0.211 HD
ENDBRANCH   3  20
BRANCH   4  22
ATOM     22  O   UNL     1      38.086 -26.308 -12.505  0.00  0.00    -0.378 OA
ATOM     23  H   UNL     1      38.604 -25.545 -12.204  0.00  0.00    +0.211 HD
ENDBRANCH   4  22
BRANCH   5  24
ATOM     24  C   UNL     1      40.174 -25.874 -14.742  0.00  0.00    +0.161 C 
BRANCH  24  25
ATOM     25  O   UNL     1      40.453 -25.945 -16.127  0.00  0.00    -0.377 OA
ATOM     26  H   UNL     1      40.073 -26.760 -16.491  0.00  0.00    +0.211 HD
ENDBRANCH  24  25
ENDBRANCH   5  24
TORSDOF 13
ENDMDL
MODEL 5
REMARK VINA RESULT:      -7.3      1.766      2.914
REMARK  Name = 9817381
REMARK  13 active torsions:
REMARK  status: ('A' for Active; 'I' for Inactive)
REMARK    1  A    between atoms: C_1  and  N_7
REMARK    2  A    between atoms: C_2  and  O_18
REMARK    3  A    between atoms: C_3  and  O_20
REMARK    4  A    between atoms: C_4  and  O_22
REMARK    5  A    between atoms: C_5  and  C_24
REMARK    6  A    between atoms: N_7  and  C_10
REMARK    7  A    between atoms: C_10  and  C_11
REMARK    8  A    between atoms: C_11  and  C_12
REMARK    9  A    between atoms: C_12  and  C_13
REMARK   10  A    between atoms: C_13  and  C_14
REMARK   11  A    between atoms: C_14  and  C_15
REMARK   12  A    between atoms: C_15  and  C_16
REMARK   13  A    between atoms: C_24  and  O_25
REMARK                            x       y       z     vdW  Elec       q    Type
REMARK                         _______ _______ _______ _____ _____    ______ ____
ROOT
ATOM      1  C   UNL     1      37.006 -24.449 -15.124  0.00  0.00    -0.009 C 
ATOM      2  C   UNL     1      37.866 -25.694 -14.824  0.00  0.00    +0.125 C 
ATOM      3  C   UNL     1      38.613 -25.602 -13.486  0.00  0.00    +0.166 C 
ATOM      4  C   UNL     1      37.672 -25.296 -12.308  0.00  0.00    +0.160 C 
ATOM      5  C   UNL     1      36.594 -24.287 -12.634  0.00  0.00    +0.007 C 
ATOM      6  C   UNL     1      36.326 -23.901 -13.895  0.00  0.00    -0.049 C 
ENDROOT
BRANCH   1   7
ATOM      7  N   UNL     1      37.818 -23.394 -15.741  0.00  0.00    +0.389 N 
ATOM      8  H   UNL     1      38.230 -23.750 -16.602  0.00  0.00    -0.084 HD
ATOM      9  H   UNL     1      38.548 -23.118 -15.084  0.00  0.00    -0.084 HD
BRANCH   7  10
ATOM     10  C   UNL     1      37.004 -22.223 -16.048  0.00  0.00    -0.081 C 
BRANCH  10  11
ATOM     11  C   UNL     1      36.974 -21.980 -17.557  0.00  0.00    -0.023 C 
BRANCH  11  12
ATOM     12  C   UNL     1      35.537 -21.971 -18.086  0.00  0.00    -0.002 C 
BRANCH  12  13
ATOM     13  C   UNL     1      34.610 -22.789 -17.184  0.00  0.00    -0.000 C 
BRANCH  13  14
ATOM     14  C   UNL     1      33.230 -23.043 -17.800  0.00  0.00    -0.000 C 
BRANCH  14  15
ATOM     15  C   UNL     1      32.110 -23.135 -16.761  0.00  0.00    -0.000 C 
BRANCH  15  16
ATOM     16  C   UNL     1      32.626 -23.341 -15.334  0.00  0.00    +0.000 C 
ATOM     17  C   UNL     1      31.650 -22.877 -14.265  0.00  0.00    +0.000 C 
ENDBRANCH  15  16
ENDBRANCH  14  15
ENDBRANCH  13  14
ENDBRANCH  12  13
ENDBRANCH  11  12
ENDBRANCH  10  11
ENDBRANCH   7  10
ENDBRANCH   1   7
BRANCH   2  18
ATOM     18  O   UNL     1      37.038 -26.858 -14.839  0.00  0.00    -0.384 OA
ATOM     19  H   UNL     1      37.134 -27.334 -14.000  0.00  0.00    +0.210 HD
ENDBRANCH   2  18
BRANCH   3  20
ATOM     20  O   UNL     1      39.603 -24.577 -13.550  0.00  0.00    -0.379 OA
ATOM     21  H   UNL     1      39.720 -24.185 -12.670  0.00  0.00    +0.211 HD
ENDBRANCH   3  20
BRANCH   4  22
ATOM     22  O   UNL     1      37.054 -26.516 -11.898  0.00  0.00    -0.378 OA
ATOM     23  H   UNL     1      37.141 -26.615 -10.938  0.00  0.00    +0.211 HD
ENDBRANCH   4  22
BRANCH   5  24
ATOM     24  C   UNL     1      35.846 -23.704 -11.467  0.00  0.00    +0.161 C 
BRANCH  24  25
ATOM     25  O   UNL     1      36.365 -24.230 -10.261  0.00  0.00    -0.377 OA
ATOM     26  H   UNL     1      37.318 -24.055 -10.216  0.00  0.00    +0.211 HD
ENDBRANCH  24  25
ENDBRANCH   5  24
TORSDOF 13
ENDMDL
MODEL 6
REMARK VINA RESULT:      -7.1      3.773      5.271
REMARK  Name = 9817381
REMARK  13 active torsions:
REMARK  status: ('A' for Active; 'I' for Inactive)
REMARK    1  A    between atoms: C_1  and  N_7
REMARK    2  A    between atoms: C_2  and  O_18
REMARK    3  A    between atoms: C_3  and  O_20
REMARK    4  A    between atoms: C_4  and  O_22
REMARK    5  A    between atoms: C_5  and  C_24
REMARK    6  A    between atoms: N_7  and  C_10
REMARK    7  A    between atoms: C_10  and  C_11
REMARK    8  A    between atoms: C_11  and  C_12
REMARK    9  A    between atoms: C_12  and  C_13
REMARK   10  A    between atoms: C_13  and  C_14
REMARK   11  A    between atoms: C_14  and  C_15
REMARK   12  A    between atoms: C_15  and  C_16
REMARK   13  A    between atoms: C_24  and  O_25
REMARK                            x       y       z     vdW  Elec       q    Type
REMARK                         _______ _______ _______ _____ _____    ______ ____
ROOT
ATOM      1  C   UNL     1      35.677 -24.122 -12.497  0.00  0.00    -0.009 C 
ATOM      2  C   UNL     1      36.726 -25.114 -11.955  0.00  0.00    +0.125 C 
ATOM      3  C   UNL     1      37.459 -25.881 -13.065  0.00  0.00    +0.166 C 
ATOM      4  C   UNL     1      38.087 -24.944 -14.111  0.00  0.00    +0.160 C 
ATOM      5  C   UNL     1      37.218 -23.759 -14.469  0.00  0.00    +0.007 C 
ATOM      6  C   UNL     1      36.132 -23.420 -13.751  0.00  0.00    -0.049 C 
ENDROOT
BRANCH   1   7
ATOM      7  N   UNL     1      34.404 -24.803 -12.756  0.00  0.00    +0.389 N 
ATOM      8  H   UNL     1      33.775 -24.644 -11.969  0.00  0.00    -0.084 HD
ATOM      9  H   UNL     1      34.585 -25.800 -12.871  0.00  0.00    -0.084 HD
BRANCH   7  10
ATOM     10  C   UNL     1      33.782 -24.299 -13.975  0.00  0.00    -0.081 C 
BRANCH  10  11
ATOM     11  C   UNL     1      32.358 -23.826 -13.688  0.00  0.00    -0.023 C 
BRANCH  11  12
ATOM     12  C   UNL     1      31.357 -24.977 -13.816  0.00  0.00    -0.002 C 
BRANCH  12  13
ATOM     13  C   UNL     1      30.094 -24.532 -14.557  0.00  0.00    -0.000 C 
BRANCH  13  14
ATOM     14  C   UNL     1      30.167 -23.091 -15.072  0.00  0.00    -0.000 C 
BRANCH  14  15
ATOM     15  C   UNL     1      29.555 -22.913 -16.464  0.00  0.00    -0.000 C 
BRANCH  15  16
ATOM     16  C   UNL     1      28.071 -23.286 -16.524  0.00  0.00    +0.000 C 
ATOM     17  C   UNL     1      27.161 -22.252 -15.879  0.00  0.00    +0.000 C 
ENDBRANCH  15  16
ENDBRANCH  14  15
ENDBRANCH  13  14
ENDBRANCH  12  13
ENDBRANCH  11  12
ENDBRANCH  10  11
ENDBRANCH   7  10
ENDBRANCH   1   7
BRANCH   2  18
ATOM     18  O   UNL     1      37.671 -24.411 -11.146  0.00  0.00    -0.384 OA
ATOM     19  H   UNL     1      37.443 -24.524 -10.210  0.00  0.00    +0.210 HD
ENDBRANCH   2  18
BRANCH   3  20
ATOM     20  O   UNL     1      36.552 -26.757 -13.732  0.00  0.00    -0.379 OA
ATOM     21  H   UNL     1      35.650 -26.409 -13.653  0.00  0.00    +0.211 HD
ENDBRANCH   3  20
BRANCH   4  22
ATOM     22  O   UNL     1      39.331 -24.467 -13.597  0.00  0.00    -0.378 OA
ATOM     23  H   UNL     1      39.896 -25.221 -13.369  0.00  0.00    +0.211 HD
ENDBRANCH   4  22
BRANCH   5  24
ATOM     24  C   UNL     1      37.613 -22.985 -15.696  0.00  0.00    +0.161 C 
BRANCH  24  25
ATOM     25  O   UNL     1      38.901 -23.388 -16.118  0.00  0.00    -0.377 OA
ATOM     26  H   UNL     1      39.531 -23.273 -15.388  0.00  0.00    +0.211 HD
ENDBRANCH  24  25
ENDBRANCH   5  24
TORSDOF 13
ENDMDL
MODEL 7
REMARK VINA RESULT:      -7.0      9.747     13.241
REMARK  Name = 9817381
REMARK  13 active torsions:
REMARK  status: ('A' for Active; 'I' for Inactive)
REMARK    1  A    between atoms: C_1  and  N_7
REMARK    2  A    between atoms: C_2  and  O_18
REMARK    3  A    between atoms: C_3  and  O_20
REMARK    4  A    between atoms: C_4  and  O_22
REMARK    5  A    between atoms: C_5  and  C_24
REMARK    6  A    between atoms: N_7  and  C_10
REMARK    7  A    between atoms: C_10  and  C_11
REMARK    8  A    between atoms: C_11  and  C_12
REMARK    9  A    between atoms: C_12  and  C_13
REMARK   10  A    between atoms: C_13  and  C_14
REMARK   11  A    between atoms: C_14  and  C_15
REMARK   12  A    between atoms: C_15  and  C_16
REMARK   13  A    between atoms: C_24  and  O_25
REMARK                            x       y       z     vdW  Elec       q    Type
REMARK                         _______ _______ _______ _____ _____    ______ ____
ROOT
ATOM      1  C   UNL     1      34.219 -14.228 -22.530  0.00  0.00    -0.009 C 
ATOM      2  C   UNL     1      33.988 -14.523 -21.033  0.00  0.00    +0.125 C 
ATOM      3  C   UNL     1      33.342 -15.893 -20.783  0.00  0.00    +0.166 C 
ATOM      4  C   UNL     1      34.120 -17.040 -21.449  0.00  0.00    +0.160 C 
ATOM      5  C   UNL     1      34.647 -16.703 -22.825  0.00  0.00    +0.007 C 
ATOM      6  C   UNL     1      34.662 -15.445 -23.302  0.00  0.00    -0.049 C 
ENDROOT
BRANCH   1   7
ATOM      7  N   UNL     1      33.006 -13.678 -23.143  0.00  0.00    +0.389 N 
ATOM      8  H   UNL     1      32.593 -12.993 -22.510  0.00  0.00    -0.084 HD
ATOM      9  H   UNL     1      32.353 -14.442 -23.317  0.00  0.00    -0.084 HD
BRANCH   7  10
ATOM     10  C   UNL     1      33.312 -13.030 -24.414  0.00  0.00    -0.081 C 
BRANCH  10  11
ATOM     11  C   UNL     1      33.662 -11.560 -24.189  0.00  0.00    -0.023 C 
BRANCH  11  12
ATOM     12  C   UNL     1      34.622 -11.049 -25.267  0.00  0.00    -0.002 C 
BRANCH  12  13
ATOM     13  C   UNL     1      35.132  -9.645 -24.933  0.00  0.00    -0.000 C 
BRANCH  13  14
ATOM     14  C   UNL     1      34.432  -9.014 -23.726  0.00  0.00    -0.000 C 
BRANCH  14  15
ATOM     15  C   UNL     1      34.718  -7.518 -23.572  0.00  0.00    -0.000 C 
BRANCH  15  16
ATOM     16  C   UNL     1      34.405  -6.712 -24.835  0.00  0.00    +0.000 C 
ATOM     17  C   UNL     1      33.071  -5.986 -24.776  0.00  0.00    +0.000 C 
ENDBRANCH  15  16
ENDBRANCH  14  15
ENDBRANCH  13  14
ENDBRANCH  12  13
ENDBRANCH  11  12
ENDBRANCH  10  11
ENDBRANCH   7  10
ENDBRANCH   1   7
BRANCH   2  18
ATOM     18  O   UNL     1      35.232 -14.439 -20.335  0.00  0.00    -0.384 OA
ATOM     19  H   UNL     1      35.082 -14.579 -19.387  0.00  0.00    +0.210 HD
ENDBRANCH   2  18
BRANCH   3  20
ATOM     20  O   UNL     1      32.007 -15.901 -21.287  0.00  0.00    -0.379 OA
ATOM     21  H   UNL     1      31.398 -16.177 -20.585  0.00  0.00    +0.211 HD
ENDBRANCH   3  20
BRANCH   4  22
ATOM     22  O   UNL     1      35.218 -17.387 -20.605  0.00  0.00    -0.378 OA
ATOM     23  H   UNL     1      35.523 -16.598 -20.131  0.00  0.00    +0.211 HD
ENDBRANCH   4  22
BRANCH   5  24
ATOM     24  C   UNL     1      35.132 -17.856 -23.659  0.00  0.00    +0.161 C 
BRANCH  24  25
ATOM     25  O   UNL     1      36.382 -18.303 -23.170  0.00  0.00    -0.377 OA
ATOM     26  H   UNL     1      36.596 -19.161 -23.567  0.00  0.00    +0.211 HD
ENDBRANCH  24  25
ENDBRANCH   5  24
TORSDOF 13
ENDMDL
MODEL 8
REMARK VINA RESULT:      -6.9      3.966      5.229
REMARK  Name = 9817381
REMARK  13 active torsions:
REMARK  status: ('A' for Active; 'I' for Inactive)
REMARK    1  A    between atoms: C_1  and  N_7
REMARK    2  A    between atoms: C_2  and  O_18
REMARK    3  A    between atoms: C_3  and  O_20
REMARK    4  A    between atoms: C_4  and  O_22
REMARK    5  A    between atoms: C_5  and  C_24
REMARK    6  A    between atoms: N_7  and  C_10
REMARK    7  A    between atoms: C_10  and  C_11
REMARK    8  A    between atoms: C_11  and  C_12
REMARK    9  A    between atoms: C_12  and  C_13
REMARK   10  A    between atoms: C_13  and  C_14
REMARK   11  A    between atoms: C_14  and  C_15
REMARK   12  A    between atoms: C_15  and  C_16
REMARK   13  A    between atoms: C_24  and  O_25
REMARK                            x       y       z     vdW  Elec       q    Type
REMARK                         _______ _______ _______ _____ _____    ______ ____
ROOT
ATOM      1  C   UNL     1      35.618 -23.491 -13.605  0.00  0.00    -0.009 C 
ATOM      2  C   UNL     1      36.553 -23.364 -12.385  0.00  0.00    +0.125 C 
ATOM      3  C   UNL     1      36.927 -24.720 -11.770  0.00  0.00    +0.166 C 
ATOM      4  C   UNL     1      37.516 -25.692 -12.806  0.00  0.00    +0.160 C 
ATOM      5  C   UNL     1      36.823 -25.646 -14.150  0.00  0.00    +0.007 C 
ATOM      6  C   UNL     1      35.960 -24.669 -14.481  0.00  0.00    -0.049 C 
ENDROOT
BRANCH   1   7
ATOM      7  N   UNL     1      34.218 -23.593 -13.178  0.00  0.00    +0.389 N 
ATOM      8  H   UNL     1      33.737 -22.722 -13.401  0.00  0.00    -0.084 HD
ATOM      9  H   UNL     1      34.196 -23.766 -12.173  0.00  0.00    -0.084 HD
BRANCH   7  10
ATOM     10  C   UNL     1      33.547 -24.697 -13.855  0.00  0.00    -0.081 C 
BRANCH  10  11
ATOM     11  C   UNL     1      32.031 -24.517 -13.786  0.00  0.00    -0.023 C 
BRANCH  11  12
ATOM     12  C   UNL     1      31.648 -23.035 -13.827  0.00  0.00    -0.002 C 
BRANCH  12  13
ATOM     13  C   UNL     1      30.862 -22.702 -15.097  0.00  0.00    -0.000 C 
BRANCH  13  14
ATOM     14  C   UNL     1      30.241 -23.930 -15.769  0.00  0.00    -0.000 C 
BRANCH  14  15
ATOM     15  C   UNL     1      28.761 -24.123 -15.431  0.00  0.00    -0.000 C 
BRANCH  15  16
ATOM     16  C   UNL     1      27.890 -22.930 -15.833  0.00  0.00    +0.000 C 
ATOM     17  C   UNL     1      27.752 -22.760 -17.337  0.00  0.00    +0.000 C 
ENDBRANCH  15  16
ENDBRANCH  14  15
ENDBRANCH  13  14
ENDBRANCH  12  13
ENDBRANCH  11  12
ENDBRANCH  10  11
ENDBRANCH   7  10
ENDBRANCH   1   7
BRANCH   2  18
ATOM     18  O   UNL     1      37.737 -22.660 -12.765  0.00  0.00    -0.384 OA
ATOM     19  H   UNL     1      37.776 -21.814 -12.292  0.00  0.00    +0.210 HD
ENDBRANCH   2  18
BRANCH   3  20
ATOM     20  O   UNL     1      35.775 -25.325 -11.188  0.00  0.00    -0.379 OA
ATOM     21  H   UNL     1      35.258 -25.769 -11.878  0.00  0.00    +0.211 HD
ENDBRANCH   3  20
BRANCH   4  22
ATOM     22  O   UNL     1      38.897 -25.375 -12.986  0.00  0.00    -0.378 OA
ATOM     23  H   UNL     1      38.976 -24.586 -13.544  0.00  0.00    +0.211 HD
ENDBRANCH   4  22
BRANCH   5  24
ATOM     24  C   UNL     1      37.125 -26.773 -15.098  0.00  0.00    +0.161 C 
BRANCH  24  25
ATOM     25  O   UNL     1      38.381 -27.339 -14.779  0.00  0.00    -0.377 OA
ATOM     26  H   UNL     1      39.085 -26.825 -15.207  0.00  0.00    +0.211 HD
ENDBRANCH  24  25
ENDBRANCH   5  24
TORSDOF 13
ENDMDL
MODEL 9
REMARK VINA RESULT:      -6.8      7.528     11.405
REMARK  Name = 9817381
REMARK  13 active torsions:
REMARK  status: ('A' for Active; 'I' for Inactive)
REMARK    1  A    between atoms: C_1  and  N_7
REMARK    2  A    between atoms: C_2  and  O_18
REMARK    3  A    between atoms: C_3  and  O_20
REMARK    4  A    between atoms: C_4  and  O_22
REMARK    5  A    between atoms: C_5  and  C_24
REMARK    6  A    between atoms: N_7  and  C_10
REMARK    7  A    between atoms: C_10  and  C_11
REMARK    8  A    between atoms: C_11  and  C_12
REMARK    9  A    between atoms: C_12  and  C_13
REMARK   10  A    between atoms: C_13  and  C_14
REMARK   11  A    between atoms: C_14  and  C_15
REMARK   12  A    between atoms: C_15  and  C_16
REMARK   13  A    between atoms: C_24  and  O_25
REMARK                            x       y       z     vdW  Elec       q    Type
REMARK                         _______ _______ _______ _____ _____    ______ ____
ROOT
ATOM      1  C   UNL     1      33.975 -16.620 -22.257  0.00  0.00    -0.009 C 
ATOM      2  C   UNL     1      33.313 -16.074 -20.975  0.00  0.00    +0.125 C 
ATOM      3  C   UNL     1      33.648 -14.600 -20.706  0.00  0.00    +0.166 C 
ATOM      4  C   UNL     1      33.328 -13.696 -21.909  0.00  0.00    +0.160 C 
ATOM      5  C   UNL     1      33.681 -14.312 -23.245  0.00  0.00    +0.007 C 
ATOM      6  C   UNL     1      33.990 -15.614 -23.379  0.00  0.00    -0.049 C 
ENDROOT
BRANCH   1   7
ATOM      7  N   UNL     1      35.346 -17.065 -21.984  0.00  0.00    +0.389 N 
ATOM      8  H   UNL     1      35.431 -17.295 -20.994  0.00  0.00    -0.084 HD
ATOM      9  H   UNL     1      35.988 -16.312 -22.231  0.00  0.00    -0.084 HD
BRANCH   7  10
ATOM     10  C   UNL     1      35.680 -18.241 -22.779  0.00  0.00    -0.081 C 
BRANCH  10  11
ATOM     11  C   UNL     1      34.643 -19.342 -22.559  0.00  0.00    -0.023 C 
BRANCH  11  12
ATOM     12  C   UNL     1      34.809 -19.990 -21.182  0.00  0.00    -0.002 C 
BRANCH  12  13
ATOM     13  C   UNL     1      33.473 -20.060 -20.438  0.00  0.00    -0.000 C 
BRANCH  13  14
ATOM     14  C   UNL     1      33.329 -21.309 -19.562  0.00  0.00    -0.000 C 
BRANCH  14  15
ATOM     15  C   UNL     1      34.591 -22.175 -19.529  0.00  0.00    -0.000 C 
BRANCH  15  16
ATOM     16  C   UNL     1      35.279 -22.188 -18.162  0.00  0.00    +0.000 C 
ATOM     17  C   UNL     1      36.656 -21.543 -18.171  0.00  0.00    +0.000 C 
ENDBRANCH  15  16
ENDBRANCH  14  15
ENDBRANCH  13  14
ENDBRANCH  12  13
ENDBRANCH  11  12
ENDBRANCH  10  11
ENDBRANCH   7  10
ENDBRANCH   1   7
BRANCH   2  18
ATOM     18  O   UNL     1      31.897 -16.242 -21.063  0.00  0.00    -0.384 OA
ATOM     19  H   UNL     1      31.454 -15.496 -20.630  0.00  0.00    +0.210 HD
ENDBRANCH   2  18
BRANCH   3  20
ATOM     20  O   UNL     1      35.033 -14.464 -20.395  0.00  0.00    -0.379 OA
ATOM     21  H   UNL     1      35.560 -14.956 -21.044  0.00  0.00    +0.211 HD
ENDBRANCH   3  20
BRANCH   4  22
ATOM     22  O   UNL     1      31.932 -13.400 -21.890  0.00  0.00    -0.378 OA
ATOM     23  H   UNL     1      31.427 -14.216 -22.026  0.00  0.00    +0.211 HD
ENDBRANCH   4  22
BRANCH   5  24
ATOM     24  C   UNL     1      33.697 -13.382 -24.427  0.00  0.00    +0.161 C 
BRANCH  24  25
ATOM     25  O   UNL     1      34.080 -12.087 -24.007  0.00  0.00    -0.377 OA
ATOM     26  H   UNL     1      33.289 -11.577 -23.771  0.00  0.00    +0.211 HD
ENDBRANCH  24  25
ENDBRANCH   5  24
TORSDOF 13
ENDMDL
