MODEL 1
REMARK VINA RESULT:      -9.9      0.000      0.000
REMARK  Name = 23652731
REMARK  12 active torsions:
REMARK  status: ('A' for Active; 'I' for Inactive)
REMARK    1  A    between atoms: C_1  and  N_3
REMARK    2  A    between atoms: C_1  and  C_13
REMARK    3  A    between atoms: C_1  and  C_20
REMARK    4  A    between atoms: C_4  and  C_6
REMARK    5  A    between atoms: C_6  and  C_7
REMARK    6  A    between atoms: C_7  and  C_8
REMARK    7  A    between atoms: C_8  and  C_9
REMARK    8  A    between atoms: C_9  and  C_10
REMARK    9  A    between atoms: C_10  and  C_11
REMARK   10  A    between atoms: C_13  and  N_14
REMARK   11  A    between atoms: C_20  and  C_23
REMARK   12  A    between atoms: C_20  and  O_31
REMARK                            x       y       z     vdW  Elec       q    Type
REMARK                         _______ _______ _______ _____ _____    ______ ____
ROOT
ATOM      1  C   UNL     1      34.498 -23.817 -15.039  0.00  0.00    +0.082 C 
ENDROOT
BRANCH   1   3
ATOM      2  O   UNL     1      35.889 -22.436 -17.159  0.00  0.00    -0.275 OA
ATOM      3  N   UNL     1      34.032 -23.601 -16.389  0.00  0.00    -0.305 N 
ATOM      4  C   UNL     1      34.777 -22.921 -17.343  0.00  0.00    +0.222 C 
ATOM      5  H   UNL     1      33.149 -23.950 -16.644  0.00  0.00    +0.149 HD
BRANCH   4   6
ATOM      6  C   UNL     1      34.044 -22.842 -18.670  0.00  0.00    +0.085 C 
BRANCH   6   7
ATOM      7  C   UNL     1      34.379 -21.572 -19.448  0.00  0.00    +0.010 C 
BRANCH   7   8
ATOM      8  C   UNL     1      33.116 -20.785 -19.800  0.00  0.00    +0.001 C 
BRANCH   8   9
ATOM      9  C   UNL     1      33.370 -19.811 -20.954  0.00  0.00    +0.000 C 
BRANCH   9  10
ATOM     10  C   UNL     1      34.866 -19.551 -21.139  0.00  0.00    +0.000 C 
BRANCH  10  11
ATOM     11  C   UNL     1      35.177 -18.597 -22.293  0.00  0.00    +0.000 C 
ATOM     12  C   UNL     1      34.843 -19.169 -23.662  0.00  0.00    +0.000 C 
ENDBRANCH  10  11
ENDBRANCH   9  10
ENDBRANCH   8   9
ENDBRANCH   7   8
ENDBRANCH   6   7
ENDBRANCH   4   6
ENDBRANCH   1   3
BRANCH   1  13
ATOM     13  C   UNL     1      35.317 -25.115 -14.979  0.00  0.00    -0.055 C 
BRANCH  13  14
ATOM     14  N   UNL     1      36.196 -25.154 -13.819  0.00  0.00    +0.388 N 
ATOM     15  C   UNL     1      37.007 -23.944 -13.694  0.00  0.00    -0.077 C 
ATOM     16  C   UNL     1      37.161 -26.251 -13.888  0.00  0.00    -0.077 C 
ATOM     17  C   UNL     1      38.082 -24.356 -12.698  0.00  0.00    -0.025 C 
ATOM     18  C   UNL     1      38.185 -25.872 -12.828  0.00  0.00    -0.025 C 
ATOM     19  H   UNL     1      35.560 -25.264 -13.030  0.00  0.00    -0.080 HD
ENDBRANCH  13  14
ENDBRANCH   1  13
BRANCH   1  20
ATOM     20  C   UNL     1      33.337 -23.738 -14.016  0.00  0.00    +0.148 C 
BRANCH  20  23
ATOM     21  O   UNL     1      29.595 -22.203 -16.721  0.00  0.00    -0.468 OA
ATOM     22  O   UNL     1      28.186 -24.655 -16.166  0.00  0.00    -0.468 OA
ATOM     23  C   UNL     1      31.965 -23.955 -14.580  0.00  0.00    +0.009 C 
ATOM     24  C   UNL     1      31.391 -22.990 -15.407  0.00  0.00    +0.038 C 
ATOM     25  C   UNL     1      31.266 -25.126 -14.281  0.00  0.00    +0.001 C 
ATOM     26  C   UNL     1      30.114 -23.196 -15.932  0.00  0.00    +0.172 C 
ATOM     27  C   UNL     1      29.996 -25.339 -14.817  0.00  0.00    +0.040 C 
ATOM     28  C   UNL     1      29.426 -24.380 -15.655  0.00  0.00    +0.172 C 
ATOM     29  C   UNL     1      28.187 -22.355 -16.912  0.00  0.00    +0.253 C 
ATOM     30  C   UNL     1      27.856 -23.793 -17.259  0.00  0.00    +0.253 C 
ENDBRANCH  20  23
BRANCH  20  31
ATOM     31  O   UNL     1      33.571 -24.688 -12.970  0.00  0.00    -0.378 OA
ATOM     32  H   UNL     1      32.739 -25.131 -12.744  0.00  0.00    +0.211 HD
ENDBRANCH  20  31
ENDBRANCH   1  20
TORSDOF 12
ENDMDL
MODEL 2
REMARK VINA RESULT:      -9.6      2.053      7.669
REMARK  Name = 23652731
REMARK  12 active torsions:
REMARK  status: ('A' for Active; 'I' for Inactive)
REMARK    1  A    between atoms: C_1  and  N_3
REMARK    2  A    between atoms: C_1  and  C_13
REMARK    3  A    between atoms: C_1  and  C_20
REMARK    4  A    between atoms: C_4  and  C_6
REMARK    5  A    between atoms: C_6  and  C_7
REMARK    6  A    between atoms: C_7  and  C_8
REMARK    7  A    between atoms: C_8  and  C_9
REMARK    8  A    between atoms: C_9  and  C_10
REMARK    9  A    between atoms: C_10  and  C_11
REMARK   10  A    between atoms: C_13  and  N_14
REMARK   11  A    between atoms: C_20  and  C_23
REMARK   12  A    between atoms: C_20  and  O_31
REMARK                            x       y       z     vdW  Elec       q    Type
REMARK                         _______ _______ _______ _____ _____    ______ ____
ROOT
ATOM      1  C   UNL     1      33.742 -22.966 -16.308  0.00  0.00    +0.082 C 
ENDROOT
BRANCH   1   3
ATOM      2  O   UNL     1      36.354 -22.799 -15.088  0.00  0.00    -0.275 OA
ATOM      3  N   UNL     1      34.587 -24.066 -15.907  0.00  0.00    -0.305 N 
ATOM      4  C   UNL     1      35.834 -23.885 -15.326  0.00  0.00    +0.222 C 
ATOM      5  H   UNL     1      34.266 -24.985 -16.053  0.00  0.00    +0.149 HD
BRANCH   4   6
ATOM      6  C   UNL     1      36.500 -25.213 -15.009  0.00  0.00    +0.085 C 
BRANCH   6   7
ATOM      7  C   UNL     1      38.012 -25.083 -14.846  0.00  0.00    +0.010 C 
BRANCH   7   8
ATOM      8  C   UNL     1      38.516 -25.903 -13.658  0.00  0.00    +0.001 C 
BRANCH   8   9
ATOM      9  C   UNL     1      37.824 -25.484 -12.358  0.00  0.00    +0.000 C 
BRANCH   9  10
ATOM     10  C   UNL     1      38.171 -24.040 -11.988  0.00  0.00    +0.000 C 
BRANCH  10  11
ATOM     11  C   UNL     1      36.945 -23.188 -11.656  0.00  0.00    +0.000 C 
ATOM     12  C   UNL     1      35.656 -23.989 -11.556  0.00  0.00    +0.000 C 
ENDBRANCH  10  11
ENDBRANCH   9  10
ENDBRANCH   8   9
ENDBRANCH   7   8
ENDBRANCH   6   7
ENDBRANCH   4   6
ENDBRANCH   1   3
BRANCH   1  13
ATOM     13  C   UNL     1      32.518 -22.894 -15.382  0.00  0.00    -0.055 C 
BRANCH  13  14
ATOM     14  N   UNL     1      31.535 -23.921 -15.694  0.00  0.00    +0.388 N 
ATOM     15  C   UNL     1      30.242 -23.356 -16.079  0.00  0.00    -0.077 C 
ATOM     16  C   UNL     1      31.246 -24.783 -14.548  0.00  0.00    -0.077 C 
ATOM     17  C   UNL     1      29.304 -24.551 -15.973  0.00  0.00    -0.025 C 
ATOM     18  C   UNL     1      29.962 -25.487 -14.964  0.00  0.00    -0.025 C 
ATOM     19  H   UNL     1      31.958 -24.445 -16.459  0.00  0.00    -0.080 HD
ENDBRANCH  13  14
ENDBRANCH   1  13
BRANCH   1  20
ATOM     20  C   UNL     1      33.405 -23.027 -17.819  0.00  0.00    +0.148 C 
BRANCH  20  23
ATOM     21  O   UNL     1      33.550 -19.680 -21.347  0.00  0.00    -0.468 OA
ATOM     22  O   UNL     1      36.406 -19.466 -21.030  0.00  0.00    -0.468 OA
ATOM     23  C   UNL     1      34.186 -22.091 -18.692  0.00  0.00    +0.009 C 
ATOM     24  C   UNL     1      33.524 -21.294 -19.625  0.00  0.00    +0.038 C 
ATOM     25  C   UNL     1      35.574 -22.014 -18.564  0.00  0.00    +0.001 C 
ATOM     26  C   UNL     1      34.253 -20.422 -20.435  0.00  0.00    +0.172 C 
ATOM     27  C   UNL     1      36.302 -21.133 -19.363  0.00  0.00    +0.040 C 
ATOM     28  C   UNL     1      35.640 -20.326 -20.288  0.00  0.00    +0.172 C 
ATOM     29  C   UNL     1      34.404 -19.098 -22.335  0.00  0.00    +0.253 C 
ATOM     30  C   UNL     1      35.614 -18.465 -21.675  0.00  0.00    +0.253 C 
ENDBRANCH  20  23
BRANCH  20  31
ATOM     31  O   UNL     1      33.590 -24.368 -18.284  0.00  0.00    -0.378 OA
ATOM     32  H   UNL     1      34.472 -24.454 -18.679  0.00  0.00    +0.211 HD
ENDBRANCH  20  31
ENDBRANCH   1  20
TORSDOF 12
ENDMDL
MODEL 3
REMARK VINA RESULT:      -9.5      2.509      6.216
REMARK  Name = 23652731
REMARK  12 active torsions:
REMARK  status: ('A' for Active; 'I' for Inactive)
REMARK    1  A    between atoms: C_1  and  N_3
REMARK    2  A    between atoms: C_1  and  C_13
REMARK    3  A    between atoms: C_1  and  C_20
REMARK    4  A    between atoms: C_4  and  C_6
REMARK    5  A    between atoms: C_6  and  C_7
REMARK    6  A    between atoms: C_7  and  C_8
REMARK    7  A    between atoms: C_8  and  C_9
REMARK    8  A    between atoms: C_9  and  C_10
REMARK    9  A    between atoms: C_10  and  C_11
REMARK   10  A    between atoms: C_13  and  N_14
REMARK   11  A    between atoms: C_20  and  C_23
REMARK   12  A    between atoms: C_20  and  O_31
REMARK                            x       y       z     vdW  Elec       q    Type
REMARK                         _______ _______ _______ _____ _____    ______ ____
ROOT
ATOM      1  C   UNL     1      33.911 -23.550 -16.639  0.00  0.00    +0.082 C 
ENDROOT
BRANCH   1   3
ATOM      2  O   UNL     1      33.932 -23.695 -19.523  0.00  0.00    -0.275 OA
ATOM      3  N   UNL     1      34.201 -22.477 -17.562  0.00  0.00    -0.305 N 
ATOM      4  C   UNL     1      34.186 -22.645 -18.940  0.00  0.00    +0.222 C 
ATOM      5  H   UNL     1      34.419 -21.589 -17.199  0.00  0.00    +0.149 HD
BRANCH   4   6
ATOM      6  C   UNL     1      34.529 -21.354 -19.662  0.00  0.00    +0.085 C 
BRANCH   6   7
ATOM      7  C   UNL     1      33.288 -20.614 -20.155  0.00  0.00    +0.010 C 
BRANCH   7   8
ATOM      8  C   UNL     1      33.664 -19.423 -21.037  0.00  0.00    +0.001 C 
BRANCH   8   9
ATOM      9  C   UNL     1      35.183 -19.240 -21.107  0.00  0.00    +0.000 C 
BRANCH   9  10
ATOM     10  C   UNL     1      35.604 -18.623 -22.442  0.00  0.00    +0.000 C 
BRANCH  10  11
ATOM     11  C   UNL     1      34.851 -19.200 -23.642  0.00  0.00    +0.000 C 
ATOM     12  C   UNL     1      34.574 -18.179 -24.735  0.00  0.00    +0.000 C 
ENDBRANCH  10  11
ENDBRANCH   9  10
ENDBRANCH   8   9
ENDBRANCH   7   8
ENDBRANCH   6   7
ENDBRANCH   4   6
ENDBRANCH   1   3
BRANCH   1  13
ATOM     13  C   UNL     1      32.391 -23.664 -16.444  0.00  0.00    -0.055 C 
BRANCH  13  14
ATOM     14  N   UNL     1      32.034 -23.903 -15.053  0.00  0.00    +0.388 N 
ATOM     15  C   UNL     1      31.092 -25.011 -14.902  0.00  0.00    -0.077 C 
ATOM     16  C   UNL     1      31.367 -22.753 -14.443  0.00  0.00    -0.077 C 
ATOM     17  C   UNL     1      30.576 -24.828 -13.482  0.00  0.00    -0.025 C 
ATOM     18  C   UNL     1      30.753 -23.343 -13.182  0.00  0.00    -0.025 C 
ATOM     19  H   UNL     1      32.925 -24.103 -14.600  0.00  0.00    -0.080 HD
ENDBRANCH  13  14
ENDBRANCH   1  13
BRANCH   1  20
ATOM     20  C   UNL     1      34.721 -23.406 -15.326  0.00  0.00    +0.148 C 
BRANCH  20  23
ATOM     21  O   UNL     1      39.504 -24.214 -14.961  0.00  0.00    -0.468 OA
ATOM     22  O   UNL     1      39.007 -27.037 -14.665  0.00  0.00    -0.468 OA
ATOM     23  C   UNL     1      35.871 -24.355 -15.170  0.00  0.00    +0.009 C 
ATOM     24  C   UNL     1      37.176 -23.866 -15.125  0.00  0.00    +0.038 C 
ATOM     25  C   UNL     1      35.633 -25.726 -15.065  0.00  0.00    +0.001 C 
ATOM     26  C   UNL     1      38.244 -24.752 -14.978  0.00  0.00    +0.172 C 
ATOM     27  C   UNL     1      36.699 -26.611 -14.904  0.00  0.00    +0.040 C 
ATOM     28  C   UNL     1      38.004 -26.122 -14.845  0.00  0.00    +0.172 C 
ATOM     29  C   UNL     1      40.512 -25.209 -15.154  0.00  0.00    +0.253 C 
ATOM     30  C   UNL     1      40.235 -26.415 -14.277  0.00  0.00    +0.253 C 
ENDBRANCH  20  23
BRANCH  20  31
ATOM     31  O   UNL     1      35.203 -22.062 -15.220  0.00  0.00    -0.378 OA
ATOM     32  H   UNL     1      36.098 -22.010 -15.589  0.00  0.00    +0.211 HD
ENDBRANCH  20  31
ENDBRANCH   1  20
TORSDOF 12
ENDMDL
MODEL 4
REMARK VINA RESULT:      -9.4      1.933      5.938
REMARK  Name = 23652731
REMARK  12 active torsions:
REMARK  status: ('A' for Active; 'I' for Inactive)
REMARK    1  A    between atoms: C_1  and  N_3
REMARK    2  A    between atoms: C_1  and  C_13
REMARK    3  A    between atoms: C_1  and  C_20
REMARK    4  A    between atoms: C_4  and  C_6
REMARK    5  A    between atoms: C_6  and  C_7
REMARK    6  A    between atoms: C_7  and  C_8
REMARK    7  A    between atoms: C_8  and  C_9
REMARK    8  A    between atoms: C_9  and  C_10
REMARK    9  A    between atoms: C_10  and  C_11
REMARK   10  A    between atoms: C_13  and  N_14
REMARK   11  A    between atoms: C_20  and  C_23
REMARK   12  A    between atoms: C_20  and  O_31
REMARK                            x       y       z     vdW  Elec       q    Type
REMARK                         _______ _______ _______ _____ _____    ______ ____
ROOT
ATOM      1  C   UNL     1      34.537 -24.141 -14.978  0.00  0.00    +0.082 C 
ENDROOT
BRANCH   1   3
ATOM      2  O   UNL     1      35.817 -26.503 -16.039  0.00  0.00    -0.275 OA
ATOM      3  N   UNL     1      35.612 -24.894 -14.374  0.00  0.00    -0.305 N 
ATOM      4  C   UNL     1      36.164 -26.023 -14.964  0.00  0.00    +0.222 C 
ATOM      5  H   UNL     1      35.968 -24.595 -13.507  0.00  0.00    +0.149 HD
BRANCH   4   6
ATOM      6  C   UNL     1      37.273 -26.612 -14.110  0.00  0.00    +0.085 C 
BRANCH   6   7
ATOM      7  C   UNL     1      38.657 -26.128 -14.535  0.00  0.00    +0.010 C 
BRANCH   7   8
ATOM      8  C   UNL     1      39.335 -25.331 -13.420  0.00  0.00    +0.001 C 
BRANCH   8   9
ATOM      9  C   UNL     1      38.373 -25.071 -12.258  0.00  0.00    +0.000 C 
BRANCH   9  10
ATOM     10  C   UNL     1      38.274 -23.577 -11.945  0.00  0.00    +0.000 C 
BRANCH  10  11
ATOM     11  C   UNL     1      36.854 -23.123 -11.600  0.00  0.00    +0.000 C 
ATOM     12  C   UNL     1      36.061 -24.154 -10.812  0.00  0.00    +0.000 C 
ENDBRANCH  10  11
ENDBRANCH   9  10
ENDBRANCH   8   9
ENDBRANCH   7   8
ENDBRANCH   6   7
ENDBRANCH   4   6
ENDBRANCH   1   3
BRANCH   1  13
ATOM     13  C   UNL     1      35.101 -22.862 -15.615  0.00  0.00    -0.055 C 
BRANCH  13  14
ATOM     14  N   UNL     1      35.162 -22.956 -17.066  0.00  0.00    +0.388 N 
ATOM     15  C   UNL     1      35.981 -21.898 -17.659  0.00  0.00    -0.077 C 
ATOM     16  C   UNL     1      33.847 -22.812 -17.692  0.00  0.00    -0.077 C 
ATOM     17  C   UNL     1      35.592 -21.951 -19.130  0.00  0.00    -0.025 C 
ATOM     18  C   UNL     1      34.189 -22.548 -19.151  0.00  0.00    -0.025 C 
ATOM     19  H   UNL     1      35.559 -23.879 -17.239  0.00  0.00    -0.080 HD
ENDBRANCH  13  14
ENDBRANCH   1  13
BRANCH   1  20
ATOM     20  C   UNL     1      33.375 -23.908 -13.980  0.00  0.00    +0.148 C 
BRANCH  20  23
ATOM     21  O   UNL     1      29.713 -22.242 -16.716  0.00  0.00    -0.468 OA
ATOM     22  O   UNL     1      28.195 -24.622 -16.137  0.00  0.00    -0.468 OA
ATOM     23  C   UNL     1      31.997 -24.071 -14.546  0.00  0.00    +0.009 C 
ATOM     24  C   UNL     1      31.469 -23.091 -15.386  0.00  0.00    +0.038 C 
ATOM     25  C   UNL     1      31.246 -25.205 -14.235  0.00  0.00    +0.001 C 
ATOM     26  C   UNL     1      30.186 -23.247 -15.913  0.00  0.00    +0.172 C 
ATOM     27  C   UNL     1      29.969 -25.369 -14.773  0.00  0.00    +0.040 C 
ATOM     28  C   UNL     1      29.445 -24.396 -15.624  0.00  0.00    +0.172 C 
ATOM     29  C   UNL     1      28.300 -22.334 -16.910  0.00  0.00    +0.253 C 
ATOM     30  C   UNL     1      27.907 -23.760 -17.241  0.00  0.00    +0.253 C 
ENDBRANCH  20  23
BRANCH  20  31
ATOM     31  O   UNL     1      33.533 -24.791 -12.865  0.00  0.00    -0.378 OA
ATOM     32  H   UNL     1      33.012 -25.595 -13.013  0.00  0.00    +0.211 HD
ENDBRANCH  20  31
ENDBRANCH   1  20
TORSDOF 12
ENDMDL
MODEL 5
REMARK VINA RESULT:      -9.3      5.438     10.077
REMARK  Name = 23652731
REMARK  12 active torsions:
REMARK  status: ('A' for Active; 'I' for Inactive)
REMARK    1  A    between atoms: C_1  and  N_3
REMARK    2  A    between atoms: C_1  and  C_13
REMARK    3  A    between atoms: C_1  and  C_20
REMARK    4  A    between atoms: C_4  and  C_6
REMARK    5  A    between atoms: C_6  and  C_7
REMARK    6  A    between atoms: C_7  and  C_8
REMARK    7  A    between atoms: C_8  and  C_9
REMARK    8  A    between atoms: C_9  and  C_10
REMARK    9  A    between atoms: C_10  and  C_11
REMARK   10  A    between atoms: C_13  and  N_14
REMARK   11  A    between atoms: C_20  and  C_23
REMARK   12  A    between atoms: C_20  and  O_31
REMARK                            x       y       z     vdW  Elec       q    Type
REMARK                         _______ _______ _______ _____ _____    ______ ____
ROOT
ATOM      1  C   UNL     1      35.192 -17.402 -22.150  0.00  0.00    +0.082 C 
ENDROOT
BRANCH   1   3
ATOM      2  O   UNL     1      34.995 -15.130 -20.379  0.00  0.00    -0.275 OA
ATOM      3  N   UNL     1      33.998 -16.897 -21.513  0.00  0.00    -0.305 N 
ATOM      4  C   UNL     1      34.004 -15.792 -20.672  0.00  0.00    +0.222 C 
ATOM      5  H   UNL     1      33.144 -17.356 -21.681  0.00  0.00    +0.149 HD
BRANCH   4   6
ATOM      6  C   UNL     1      32.613 -15.487 -20.144  0.00  0.00    +0.085 C 
BRANCH   6   7
ATOM      7  C   UNL     1      32.389 -13.994 -19.918  0.00  0.00    +0.010 C 
BRANCH   7   8
ATOM      8  C   UNL     1      32.180 -13.256 -21.242  0.00  0.00    +0.001 C 
BRANCH   8   9
ATOM      9  C   UNL     1      31.425 -11.941 -21.033  0.00  0.00    +0.000 C 
BRANCH   9  10
ATOM     10  C   UNL     1      31.646 -11.395 -19.621  0.00  0.00    +0.000 C 
BRANCH  10  11
ATOM     11  C   UNL     1      31.392  -9.890 -19.506  0.00  0.00    +0.000 C 
ATOM     12  C   UNL     1      32.208  -9.060 -20.485  0.00  0.00    +0.000 C 
ENDBRANCH  10  11
ENDBRANCH   9  10
ENDBRANCH   8   9
ENDBRANCH   7   8
ENDBRANCH   6   7
ENDBRANCH   4   6
ENDBRANCH   1   3
BRANCH   1  13
ATOM     13  C   UNL     1      35.539 -16.523 -23.361  0.00  0.00    -0.055 C 
BRANCH  13  14
ATOM     14  N   UNL     1      34.350 -16.029 -24.039  0.00  0.00    +0.388 N 
ATOM     15  C   UNL     1      34.324 -16.392 -25.456  0.00  0.00    -0.077 C 
ATOM     16  C   UNL     1      34.261 -14.569 -24.020  0.00  0.00    -0.077 C 
ATOM     17  C   UNL     1      33.249 -15.475 -26.022  0.00  0.00    -0.025 C 
ATOM     18  C   UNL     1      33.210 -14.276 -25.080  0.00  0.00    -0.025 C 
ATOM     19  H   UNL     1      33.578 -16.458 -23.528  0.00  0.00    -0.080 HD
ENDBRANCH  13  14
ENDBRANCH   1  13
BRANCH   1  20
ATOM     20  C   UNL     1      35.074 -18.914 -22.464  0.00  0.00    +0.148 C 
BRANCH  20  23
ATOM     21  O   UNL     1      32.698 -21.762 -19.314  0.00  0.00    -0.468 OA
ATOM     22  O   UNL     1      35.186 -22.389 -18.001  0.00  0.00    -0.468 OA
ATOM     23  C   UNL     1      35.081 -19.823 -21.271  0.00  0.00    +0.009 C 
ATOM     24  C   UNL     1      33.891 -20.397 -20.826  0.00  0.00    +0.038 C 
ATOM     25  C   UNL     1      36.280 -20.096 -20.612  0.00  0.00    +0.001 C 
ATOM     26  C   UNL     1      33.901 -21.244 -19.717  0.00  0.00    +0.172 C 
ATOM     27  C   UNL     1      36.294 -20.954 -19.512  0.00  0.00    +0.040 C 
ATOM     28  C   UNL     1      35.106 -21.540 -19.073  0.00  0.00    +0.172 C 
ATOM     29  C   UNL     1      32.770 -22.316 -17.998  0.00  0.00    +0.253 C 
ATOM     30  C   UNL     1      34.006 -23.183 -17.860  0.00  0.00    +0.253 C 
ENDBRANCH  20  23
BRANCH  20  31
ATOM     31  O   UNL     1      33.879 -19.142 -23.221  0.00  0.00    -0.378 OA
ATOM     32  H   UNL     1      33.118 -18.780 -22.740  0.00  0.00    +0.211 HD
ENDBRANCH  20  31
ENDBRANCH   1  20
TORSDOF 12
ENDMDL
MODEL 6
REMARK VINA RESULT:      -9.3      1.936      6.395
REMARK  Name = 23652731
REMARK  12 active torsions:
REMARK  status: ('A' for Active; 'I' for Inactive)
REMARK    1  A    between atoms: C_1  and  N_3
REMARK    2  A    between atoms: C_1  and  C_13
REMARK    3  A    between atoms: C_1  and  C_20
REMARK    4  A    between atoms: C_4  and  C_6
REMARK    5  A    between atoms: C_6  and  C_7
REMARK    6  A    between atoms: C_7  and  C_8
REMARK    7  A    between atoms: C_8  and  C_9
REMARK    8  A    between atoms: C_9  and  C_10
REMARK    9  A    between atoms: C_10  and  C_11
REMARK   10  A    between atoms: C_13  and  N_14
REMARK   11  A    between atoms: C_20  and  C_23
REMARK   12  A    between atoms: C_20  and  O_31
REMARK                            x       y       z     vdW  Elec       q    Type
REMARK                         _______ _______ _______ _____ _____    ______ ____
ROOT
ATOM      1  C   UNL     1      33.363 -23.791 -15.253  0.00  0.00    +0.082 C 
ENDROOT
BRANCH   1   3
ATOM      2  O   UNL     1      33.739 -23.589 -18.110  0.00  0.00    -0.275 OA
ATOM      3  N   UNL     1      34.345 -22.991 -15.947  0.00  0.00    -0.305 N 
ATOM      4  C   UNL     1      34.449 -22.959 -17.331  0.00  0.00    +0.222 C 
ATOM      5  H   UNL     1      34.968 -22.445 -15.417  0.00  0.00    +0.149 HD
BRANCH   4   6
ATOM      6  C   UNL     1      35.566 -22.036 -17.785  0.00  0.00    +0.085 C 
BRANCH   6   7
ATOM      7  C   UNL     1      35.742 -22.035 -19.302  0.00  0.00    +0.010 C 
BRANCH   7   8
ATOM      8  C   UNL     1      35.443 -20.657 -19.895  0.00  0.00    +0.001 C 
BRANCH   8   9
ATOM      9  C   UNL     1      33.955 -20.505 -20.224  0.00  0.00    +0.000 C 
BRANCH   9  10
ATOM     10  C   UNL     1      33.742 -19.527 -21.382  0.00  0.00    +0.000 C 
BRANCH  10  11
ATOM     11  C   UNL     1      35.006 -19.281 -22.209  0.00  0.00    +0.000 C 
ATOM     12  C   UNL     1      34.733 -19.078 -23.691  0.00  0.00    +0.000 C 
ENDBRANCH  10  11
ENDBRANCH   9  10
ENDBRANCH   8   9
ENDBRANCH   7   8
ENDBRANCH   6   7
ENDBRANCH   4   6
ENDBRANCH   1   3
BRANCH   1  13
ATOM     13  C   UNL     1      32.025 -23.039 -15.209  0.00  0.00    -0.055 C 
BRANCH  13  14
ATOM     14  N   UNL     1      30.905 -23.892 -15.579  0.00  0.00    +0.388 N 
ATOM     15  C   UNL     1      29.834 -23.148 -16.243  0.00  0.00    -0.077 C 
ATOM     16  C   UNL     1      30.270 -24.515 -14.418  0.00  0.00    -0.077 C 
ATOM     17  C   UNL     1      28.659 -24.114 -16.179  0.00  0.00    -0.025 C 
ATOM     18  C   UNL     1      28.944 -25.010 -14.977  0.00  0.00    -0.025 C 
ATOM     19  H   UNL     1      31.318 -24.588 -16.199  0.00  0.00    -0.080 HD
ENDBRANCH  13  14
ENDBRANCH   1  13
BRANCH   1  20
ATOM     20  C   UNL     1      33.885 -24.263 -13.873  0.00  0.00    +0.148 C 
BRANCH  20  23
ATOM     21  O   UNL     1      38.131 -26.261 -15.156  0.00  0.00    -0.468 OA
ATOM     22  O   UNL     1      39.516 -24.469 -13.374  0.00  0.00    -0.468 OA
ATOM     23  C   UNL     1      35.376 -24.345 -13.741  0.00  0.00    +0.009 C 
ATOM     24  C   UNL     1      36.094 -25.258 -14.511  0.00  0.00    +0.038 C 
ATOM     25  C   UNL     1      36.043 -23.503 -12.850  0.00  0.00    +0.001 C 
ATOM     26  C   UNL     1      37.482 -25.331 -14.388  0.00  0.00    +0.172 C 
ATOM     27  C   UNL     1      37.432 -23.565 -12.735  0.00  0.00    +0.040 C 
ATOM     28  C   UNL     1      38.153 -24.468 -13.516  0.00  0.00    +0.172 C 
ATOM     29  C   UNL     1      39.469 -26.485 -14.707  0.00  0.00    +0.253 C 
ATOM     30  C   UNL     1      40.163 -25.163 -14.443  0.00  0.00    +0.253 C 
ENDBRANCH  20  23
BRANCH  20  31
ATOM     31  O   UNL     1      33.370 -23.394 -12.858  0.00  0.00    -0.378 OA
ATOM     32  H   UNL     1      32.997 -22.599 -13.271  0.00  0.00    +0.211 HD
ENDBRANCH  20  31
ENDBRANCH   1  20
TORSDOF 12
ENDMDL
MODEL 7
REMARK VINA RESULT:      -9.2      6.477     11.306
REMARK  Name = 23652731
REMARK  12 active torsions:
REMARK  status: ('A' for Active; 'I' for Inactive)
REMARK    1  A    between atoms: C_1  and  N_3
REMARK    2  A    between atoms: C_1  and  C_13
REMARK    3  A    between atoms: C_1  and  C_20
REMARK    4  A    between atoms: C_4  and  C_6
REMARK    5  A    between atoms: C_6  and  C_7
REMARK    6  A    between atoms: C_7  and  C_8
REMARK    7  A    between atoms: C_8  and  C_9
REMARK    8  A    between atoms: C_9  and  C_10
REMARK    9  A    between atoms: C_10  and  C_11
REMARK   10  A    between atoms: C_13  and  N_14
REMARK   11  A    between atoms: C_20  and  C_23
REMARK   12  A    between atoms: C_20  and  O_31
REMARK                            x       y       z     vdW  Elec       q    Type
REMARK                         _______ _______ _______ _____ _____    ______ ____
ROOT
ATOM      1  C   UNL     1      34.157 -16.216 -24.246  0.00  0.00    +0.082 C 
ENDROOT
BRANCH   1   3
ATOM      2  O   UNL     1      32.251 -14.203 -25.056  0.00  0.00    -0.275 OA
ATOM      3  N   UNL     1      34.164 -15.454 -25.474  0.00  0.00    -0.305 N 
ATOM      4  C   UNL     1      33.200 -14.503 -25.775  0.00  0.00    +0.222 C 
ATOM      5  H   UNL     1      34.884 -15.617 -26.124  0.00  0.00    +0.149 HD
BRANCH   4   6
ATOM      6  C   UNL     1      33.455 -13.860 -27.127  0.00  0.00    +0.085 C 
BRANCH   6   7
ATOM      7  C   UNL     1      33.363 -12.337 -27.076  0.00  0.00    +0.010 C 
BRANCH   7   8
ATOM      8  C   UNL     1      34.554 -11.733 -26.330  0.00  0.00    +0.001 C 
BRANCH   8   9
ATOM      9  C   UNL     1      34.128 -11.155 -24.978  0.00  0.00    +0.000 C 
BRANCH   9  10
ATOM     10  C   UNL     1      34.926  -9.894 -24.639  0.00  0.00    +0.000 C 
BRANCH  10  11
ATOM     11  C   UNL     1      34.183  -8.939 -23.703  0.00  0.00    +0.000 C 
ATOM     12  C   UNL     1      34.763  -7.533 -23.684  0.00  0.00    +0.000 C 
ENDBRANCH  10  11
ENDBRANCH   9  10
ENDBRANCH   8   9
ENDBRANCH   7   8
ENDBRANCH   6   7
ENDBRANCH   4   6
ENDBRANCH   1   3
BRANCH   1  13
ATOM     13  C   UNL     1      34.541 -15.304 -23.072  0.00  0.00    -0.055 C 
BRANCH  13  14
ATOM     14  N   UNL     1      33.408 -15.026 -22.202  0.00  0.00    +0.388 N 
ATOM     15  C   UNL     1      33.235 -13.595 -21.953  0.00  0.00    -0.077 C 
ATOM     16  C   UNL     1      33.561 -15.625 -20.876  0.00  0.00    -0.077 C 
ATOM     17  C   UNL     1      32.291 -13.569 -20.758  0.00  0.00    -0.025 C 
ATOM     18  C   UNL     1      32.508 -14.902 -20.049  0.00  0.00    -0.025 C 
ATOM     19  H   UNL     1      32.610 -15.419 -22.700  0.00  0.00    -0.080 HD
ENDBRANCH  13  14
ENDBRANCH   1  13
BRANCH   1  20
ATOM     20  C   UNL     1      35.010 -17.503 -24.370  0.00  0.00    +0.148 C 
BRANCH  20  23
ATOM     21  O   UNL     1      33.111 -20.453 -20.998  0.00  0.00    -0.468 OA
ATOM     22  O   UNL     1      35.657 -20.554 -19.650  0.00  0.00    -0.468 OA
ATOM     23  C   UNL     1      35.157 -18.303 -23.110  0.00  0.00    +0.009 C 
ATOM     24  C   UNL     1      34.074 -19.030 -22.617  0.00  0.00    +0.038 C 
ATOM     25  C   UNL     1      36.379 -18.322 -22.436  0.00  0.00    +0.001 C 
ATOM     26  C   UNL     1      34.215 -19.775 -21.445  0.00  0.00    +0.172 C 
ATOM     27  C   UNL     1      36.525 -19.077 -21.273  0.00  0.00    +0.040 C 
ATOM     28  C   UNL     1      35.447 -19.816 -20.785  0.00  0.00    +0.172 C 
ATOM     29  C   UNL     1      33.262 -20.885 -19.644  0.00  0.00    +0.253 C 
ATOM     30  C   UNL     1      34.623 -21.521 -19.443  0.00  0.00    +0.253 C 
ENDBRANCH  20  23
BRANCH  20  31
ATOM     31  O   UNL     1      34.452 -18.336 -25.393  0.00  0.00    -0.378 OA
ATOM     32  H   UNL     1      33.556 -18.605 -25.138  0.00  0.00    +0.211 HD
ENDBRANCH  20  31
ENDBRANCH   1  20
TORSDOF 12
ENDMDL
MODEL 8
REMARK VINA RESULT:      -9.1      6.255     11.549
REMARK  Name = 23652731
REMARK  12 active torsions:
REMARK  status: ('A' for Active; 'I' for Inactive)
REMARK    1  A    between atoms: C_1  and  N_3
REMARK    2  A    between atoms: C_1  and  C_13
REMARK    3  A    between atoms: C_1  and  C_20
REMARK    4  A    between atoms: C_4  and  C_6
REMARK    5  A    between atoms: C_6  and  C_7
REMARK    6  A    between atoms: C_7  and  C_8
REMARK    7  A    between atoms: C_8  and  C_9
REMARK    8  A    between atoms: C_9  and  C_10
REMARK    9  A    between atoms: C_10  and  C_11
REMARK   10  A    between atoms: C_13  and  N_14
REMARK   11  A    between atoms: C_20  and  C_23
REMARK   12  A    between atoms: C_20  and  O_31
REMARK                            x       y       z     vdW  Elec       q    Type
REMARK                         _______ _______ _______ _____ _____    ______ ____
ROOT
ATOM      1  C   UNL     1      34.387 -16.157 -24.052  0.00  0.00    +0.082 C 
ENDROOT
BRANCH   1   3
ATOM      2  O   UNL     1      35.113 -14.419 -21.862  0.00  0.00    -0.275 OA
ATOM      3  N   UNL     1      33.700 -16.014 -22.789  0.00  0.00    -0.305 N 
ATOM      4  C   UNL     1      34.128 -15.148 -21.792  0.00  0.00    +0.222 C 
ATOM      5  H   UNL     1      32.894 -16.555 -22.628  0.00  0.00    +0.149 HD
BRANCH   4   6
ATOM      6  C   UNL     1      33.219 -15.205 -20.577  0.00  0.00    +0.085 C 
BRANCH   6   7
ATOM      7  C   UNL     1      32.626 -13.842 -20.227  0.00  0.00    +0.010 C 
BRANCH   7   8
ATOM      8  C   UNL     1      32.017 -13.168 -21.458  0.00  0.00    +0.001 C 
BRANCH   8   9
ATOM      9  C   UNL     1      31.589 -11.731 -21.151  0.00  0.00    +0.000 C 
BRANCH   9  10
ATOM     10  C   UNL     1      31.483 -11.495 -19.643  0.00  0.00    +0.000 C 
BRANCH  10  11
ATOM     11  C   UNL     1      31.871 -10.076 -19.222  0.00  0.00    +0.000 C 
ATOM     12  C   UNL     1      32.069  -9.127 -20.394  0.00  0.00    +0.000 C 
ENDBRANCH  10  11
ENDBRANCH   9  10
ENDBRANCH   8   9
ENDBRANCH   7   8
ENDBRANCH   6   7
ENDBRANCH   4   6
ENDBRANCH   1   3
BRANCH   1  13
ATOM     13  C   UNL     1      33.468 -15.692 -25.192  0.00  0.00    -0.055 C 
BRANCH  13  14
ATOM     14  N   UNL     1      33.874 -14.403 -25.731  0.00  0.00    +0.388 N 
ATOM     15  C   UNL     1      33.508 -13.292 -24.853  0.00  0.00    -0.077 C 
ATOM     16  C   UNL     1      33.229 -14.104 -27.009  0.00  0.00    -0.077 C 
ATOM     17  C   UNL     1      33.660 -12.078 -25.759  0.00  0.00    -0.025 C 
ATOM     18  C   UNL     1      33.473 -12.611 -27.176  0.00  0.00    -0.025 C 
ATOM     19  H   UNL     1      34.886 -14.484 -25.832  0.00  0.00    -0.080 HD
ENDBRANCH  13  14
ENDBRANCH   1  13
BRANCH   1  20
ATOM     20  C   UNL     1      34.965 -17.583 -24.228  0.00  0.00    +0.148 C 
BRANCH  20  23
ATOM     21  O   UNL     1      33.228 -20.661 -20.885  0.00  0.00    -0.468 OA
ATOM     22  O   UNL     1      35.746 -20.567 -19.486  0.00  0.00    -0.468 OA
ATOM     23  C   UNL     1      35.147 -18.366 -22.963  0.00  0.00    +0.009 C 
ATOM     24  C   UNL     1      34.113 -19.173 -22.489  0.00  0.00    +0.038 C 
ATOM     25  C   UNL     1      36.353 -18.291 -22.265  0.00  0.00    +0.001 C 
ATOM     26  C   UNL     1      34.286 -19.903 -21.312  0.00  0.00    +0.172 C 
ATOM     27  C   UNL     1      36.532 -19.031 -21.096  0.00  0.00    +0.040 C 
ATOM     28  C   UNL     1      35.503 -19.849 -20.628  0.00  0.00    +0.172 C 
ATOM     29  C   UNL     1      33.383 -21.078 -19.526  0.00  0.00    +0.253 C 
ATOM     30  C   UNL     1      34.784 -21.608 -19.296  0.00  0.00    +0.253 C 
ENDBRANCH  20  23
BRANCH  20  31
ATOM     31  O   UNL     1      34.122 -18.321 -25.121  0.00  0.00    -0.378 OA
ATOM     32  H   UNL     1      33.836 -19.141 -24.690  0.00  0.00    +0.211 HD
ENDBRANCH  20  31
ENDBRANCH   1  20
TORSDOF 12
ENDMDL
MODEL 9
REMARK VINA RESULT:      -9.0      8.566     13.440
REMARK  Name = 23652731
REMARK  12 active torsions:
REMARK  status: ('A' for Active; 'I' for Inactive)
REMARK    1  A    between atoms: C_1  and  N_3
REMARK    2  A    between atoms: C_1  and  C_13
REMARK    3  A    between atoms: C_1  and  C_20
REMARK    4  A    between atoms: C_4  and  C_6
REMARK    5  A    between atoms: C_6  and  C_7
REMARK    6  A    between atoms: C_7  and  C_8
REMARK    7  A    between atoms: C_8  and  C_9
REMARK    8  A    between atoms: C_9  and  C_10
REMARK    9  A    between atoms: C_10  and  C_11
REMARK   10  A    between atoms: C_13  and  N_14
REMARK   11  A    between atoms: C_20  and  C_23
REMARK   12  A    between atoms: C_20  and  O_31
REMARK                            x       y       z     vdW  Elec       q    Type
REMARK                         _______ _______ _______ _____ _____    ______ ____
ROOT
ATOM      1  C   UNL     1      33.024 -13.163 -24.014  0.00  0.00    +0.082 C 
ENDROOT
BRANCH   1   3
ATOM      2  O   UNL     1      34.089 -11.487 -26.111  0.00  0.00    -0.275 OA
ATOM      3  N   UNL     1      33.773 -11.938 -23.854  0.00  0.00    -0.305 N 
ATOM      4  C   UNL     1      34.246 -11.198 -24.929  0.00  0.00    +0.222 C 
ATOM      5  H   UNL     1      33.956 -11.614 -22.943  0.00  0.00    +0.149 HD
BRANCH   4   6
ATOM      6  C   UNL     1      34.998  -9.962 -24.467  0.00  0.00    +0.085 C 
BRANCH   6   7
ATOM      7  C   UNL     1      34.161  -9.082 -23.542  0.00  0.00    +0.010 C 
BRANCH   7   8
ATOM      8  C   UNL     1      34.582  -7.614 -23.641  0.00  0.00    +0.001 C 
BRANCH   8   9
ATOM      9  C   UNL     1      33.363  -6.690 -23.712  0.00  0.00    +0.000 C 
BRANCH   9  10
ATOM     10  C   UNL     1      32.227  -7.203 -22.825  0.00  0.00    +0.000 C 
BRANCH  10  11
ATOM     11  C   UNL     1      32.075  -6.419 -21.520  0.00  0.00    +0.000 C 
ATOM     12  C   UNL     1      32.524  -7.194 -20.291  0.00  0.00    +0.000 C 
ENDBRANCH  10  11
ENDBRANCH   9  10
ENDBRANCH   8   9
ENDBRANCH   7   8
ENDBRANCH   6   7
ENDBRANCH   4   6
ENDBRANCH   1   3
BRANCH   1  13
ATOM     13  C   UNL     1      32.228 -13.451 -22.732  0.00  0.00    -0.055 C 
BRANCH  13  14
ATOM     14  N   UNL     1      32.215 -12.310 -21.829  0.00  0.00    +0.388 N 
ATOM     15  C   UNL     1      32.065 -12.708 -20.430  0.00  0.00    -0.077 C 
ATOM     16  C   UNL     1      31.095 -11.405 -22.088  0.00  0.00    -0.077 C 
ATOM     17  C   UNL     1      31.689 -11.403 -19.742  0.00  0.00    -0.025 C 
ATOM     18  C   UNL     1      31.049 -10.548 -20.831  0.00  0.00    -0.025 C 
ATOM     19  H   UNL     1      33.111 -11.852 -21.994  0.00  0.00    -0.080 HD
ENDBRANCH  13  14
ENDBRANCH   1  13
BRANCH   1  20
ATOM     20  C   UNL     1      33.931 -14.327 -24.486  0.00  0.00    +0.148 C 
BRANCH  20  23
ATOM     21  O   UNL     1      34.898 -18.906 -23.157  0.00  0.00    -0.468 OA
ATOM     22  O   UNL     1      35.413 -18.018 -20.464  0.00  0.00    -0.468 OA
ATOM     23  C   UNL     1      34.304 -15.323 -23.429  0.00  0.00    +0.009 C 
ATOM     24  C   UNL     1      34.444 -16.670 -23.761  0.00  0.00    +0.038 C 
ATOM     25  C   UNL     1      34.517 -14.898 -22.117  0.00  0.00    +0.001 C 
ATOM     26  C   UNL     1      34.795 -17.594 -22.775  0.00  0.00    +0.172 C 
ATOM     27  C   UNL     1      34.880 -15.819 -21.134  0.00  0.00    +0.040 C 
ATOM     28  C   UNL     1      35.034 -17.165 -21.467  0.00  0.00    +0.172 C 
ATOM     29  C   UNL     1      34.915 -19.789 -22.033  0.00  0.00    +0.253 C 
ATOM     30  C   UNL     1      35.870 -19.273 -20.974  0.00  0.00    +0.253 C 
ENDBRANCH  20  23
BRANCH  20  31
ATOM     31  O   UNL     1      33.288 -15.009 -25.569  0.00  0.00    -0.378 OA
ATOM     32  H   UNL     1      32.477 -14.537 -25.812  0.00  0.00    +0.211 HD
ENDBRANCH  20  31
ENDBRANCH   1  20
TORSDOF 12
ENDMDL
