MODEL 1
REMARK VINA RESULT:      -9.9      0.000      0.000
REMARK  Name = 11809740
REMARK  2 active torsions:
REMARK  status: ('A' for Active; 'I' for Inactive)
REMARK    1  A    between atoms: C_11  and  O_21
REMARK    2  A    between atoms: O_21  and  C_23
REMARK                            x       y       z     vdW  Elec       q    Type
REMARK                         _______ _______ _______ _____ _____    ______ ____
ROOT
ATOM      1  O   UNL     1      39.904 -26.013 -13.860  0.00  0.00    -0.296 OA
ATOM      2  C   UNL     1      34.274 -23.336 -15.451  0.00  0.00    +0.000 C 
ATOM      3  C   UNL     1      34.613 -24.566 -14.546  0.00  0.00    +0.000 C 
ATOM      4  C   UNL     1      32.900 -23.564 -16.090  0.00  0.00    +0.003 C 
ATOM      5  C   UNL     1      31.778 -23.725 -15.048  0.00  0.00    +0.037 C 
ATOM      6  C   UNL     1      36.036 -24.437 -13.885  0.00  0.00    +0.001 C 
ATOM      7  C   UNL     1      37.074 -24.230 -15.036  0.00  0.00    +0.007 C 
ATOM      8  C   UNL     1      33.467 -24.888 -13.547  0.00  0.00    +0.000 C 
ATOM      9  C   UNL     1      32.081 -24.974 -14.211  0.00  0.00    +0.003 C 
ATOM     10  C   UNL     1      35.358 -23.115 -16.514  0.00  0.00    +0.000 C 
ATOM     11  C   UNL     1      30.572 -23.863 -15.998  0.00  0.00    +0.169 C 
ATOM     12  C   UNL     1      32.346 -22.516 -17.053  0.00  0.00    +0.004 C 
ATOM     13  C   UNL     1      36.753 -23.010 -15.905  0.00  0.00    +0.000 C 
ATOM     14  C   UNL     1      30.834 -22.808 -17.090  0.00  0.00    +0.044 C 
ATOM     15  C   UNL     1      36.417 -25.757 -13.155  0.00  0.00    +0.008 C 
ATOM     16  C   UNL     1      31.587 -22.506 -14.109  0.00  0.00    +0.004 C 
ATOM     17  C   UNL     1      36.066 -23.277 -12.859  0.00  0.00    +0.000 C 
ATOM     18  C   UNL     1      38.522 -24.180 -14.540  0.00  0.00    +0.064 C 
ATOM     19  C   UNL     1      37.855 -25.793 -12.644  0.00  0.00    +0.065 C 
ATOM     20  C   UNL     1      38.840 -25.412 -13.724  0.00  0.00    +0.151 C 
ENDROOT
BRANCH  11  21
ATOM     21  O   UNL     1      29.332 -23.651 -15.351  0.00  0.00    -0.452 OA
BRANCH  21  23
ATOM     22  O   UNL     1      27.961 -24.312 -17.089  0.00  0.00    -0.250 OA
ATOM     23  C   UNL     1      28.235 -23.555 -16.169  0.00  0.00    +0.317 C 
ATOM     24  C   UNL     1      27.399 -22.375 -15.775  0.00  0.00    +0.121 C 
ENDBRANCH  21  23
ENDBRANCH  11  21
TORSDOF 2
ENDMDL
MODEL 2
REMARK VINA RESULT:      -8.8      3.378      7.104
REMARK  Name = 11809740
REMARK  2 active torsions:
REMARK  status: ('A' for Active; 'I' for Inactive)
REMARK    1  A    between atoms: C_11  and  O_21
REMARK    2  A    between atoms: O_21  and  C_23
REMARK                            x       y       z     vdW  Elec       q    Type
REMARK                         _______ _______ _______ _____ _____    ______ ____
ROOT
ATOM      1  O   UNL     1      33.613 -18.861 -21.886  0.00  0.00    -0.296 OA
ATOM      2  C   UNL     1      36.061 -22.562 -17.226  0.00  0.00    +0.000 C 
ATOM      3  C   UNL     1      34.601 -22.071 -17.494  0.00  0.00    +0.000 C 
ATOM      4  C   UNL     1      36.249 -22.736 -15.716  0.00  0.00    +0.003 C 
ATOM      5  C   UNL     1      35.273 -23.761 -15.109  0.00  0.00    +0.037 C 
ATOM      6  C   UNL     1      34.336 -21.819 -19.026  0.00  0.00    +0.001 C 
ATOM      7  C   UNL     1      35.414 -20.805 -19.531  0.00  0.00    +0.007 C 
ATOM      8  C   UNL     1      33.546 -22.977 -16.801  0.00  0.00    +0.000 C 
ATOM      9  C   UNL     1      33.846 -23.238 -15.314  0.00  0.00    +0.003 C 
ATOM     10  C   UNL     1      37.090 -21.584 -17.810  0.00  0.00    +0.000 C 
ATOM     11  C   UNL     1      35.764 -23.740 -13.649  0.00  0.00    +0.169 C 
ATOM     12  C   UNL     1      37.609 -23.178 -15.182  0.00  0.00    +0.004 C 
ATOM     13  C   UNL     1      36.844 -21.300 -19.289  0.00  0.00    +0.000 C 
ATOM     14  C   UNL     1      37.300 -23.712 -13.771  0.00  0.00    +0.044 C 
ATOM     15  C   UNL     1      32.946 -21.151 -19.233  0.00  0.00    +0.008 C 
ATOM     16  C   UNL     1      35.390 -25.191 -15.697  0.00  0.00    +0.004 C 
ATOM     17  C   UNL     1      34.370 -23.149 -19.820  0.00  0.00    +0.000 C 
ATOM     18  C   UNL     1      35.219 -20.396 -20.994  0.00  0.00    +0.064 C 
ATOM     19  C   UNL     1      32.681 -20.697 -20.666  0.00  0.00    +0.065 C 
ATOM     20  C   UNL     1      33.820 -19.866 -21.207  0.00  0.00    +0.151 C 
ENDROOT
BRANCH  11  21
ATOM     21  O   UNL     1      35.318 -24.855 -12.900  0.00  0.00    -0.452 OA
BRANCH  21  23
ATOM     22  O   UNL     1      36.810 -26.117 -11.666  0.00  0.00    -0.250 OA
ATOM     23  C   UNL     1      36.053 -25.163 -11.784  0.00  0.00    +0.317 C 
ATOM     24  C   UNL     1      35.803 -24.153 -10.706  0.00  0.00    +0.121 C 
ENDBRANCH  21  23
ENDBRANCH  11  21
TORSDOF 2
ENDMDL
MODEL 3
REMARK VINA RESULT:      -8.7      1.543      7.306
REMARK  Name = 11809740
REMARK  2 active torsions:
REMARK  status: ('A' for Active; 'I' for Inactive)
REMARK    1  A    between atoms: C_11  and  O_21
REMARK    2  A    between atoms: O_21  and  C_23
REMARK                            x       y       z     vdW  Elec       q    Type
REMARK                         _______ _______ _______ _____ _____    ______ ____
ROOT
ATOM      1  O   UNL     1      27.483 -22.175 -15.622  0.00  0.00    -0.296 OA
ATOM      2  C   UNL     1      33.794 -23.345 -16.069  0.00  0.00    +0.000 C 
ATOM      3  C   UNL     1      32.828 -23.351 -14.839  0.00  0.00    +0.000 C 
ATOM      4  C   UNL     1      35.192 -22.942 -15.590  0.00  0.00    +0.003 C 
ATOM      5  C   UNL     1      35.759 -23.907 -14.531  0.00  0.00    +0.037 C 
ATOM      6  C   UNL     1      31.351 -23.708 -15.252  0.00  0.00    +0.001 C 
ATOM      7  C   UNL     1      30.912 -22.695 -16.359  0.00  0.00    +0.007 C 
ATOM      8  C   UNL     1      33.389 -24.196 -13.663  0.00  0.00    +0.000 C 
ATOM      9  C   UNL     1      34.845 -23.853 -13.301  0.00  0.00    +0.003 C 
ATOM     10  C   UNL     1      33.285 -22.403 -17.169  0.00  0.00    +0.000 C 
ATOM     11  C   UNL     1      37.148 -23.269 -14.331  0.00  0.00    +0.169 C 
ATOM     12  C   UNL     1      36.323 -22.828 -16.610  0.00  0.00    +0.004 C 
ATOM     13  C   UNL     1      31.846 -22.709 -17.573  0.00  0.00    +0.000 C 
ATOM     14  C   UNL     1      37.603 -22.907 -15.758  0.00  0.00    +0.044 C 
ATOM     15  C   UNL     1      30.389 -23.515 -14.044  0.00  0.00    +0.008 C 
ATOM     16  C   UNL     1      35.904 -25.376 -15.006  0.00  0.00    +0.004 C 
ATOM     17  C   UNL     1      31.252 -25.177 -15.734  0.00  0.00    +0.000 C 
ATOM     18  C   UNL     1      29.453 -22.870 -16.791  0.00  0.00    +0.064 C 
ATOM     19  C   UNL     1      28.911 -23.656 -14.398  0.00  0.00    +0.065 C 
ATOM     20  C   UNL     1      28.539 -22.806 -15.590  0.00  0.00    +0.151 C 
ENDROOT
BRANCH  11  21
ATOM     21  O   UNL     1      38.066 -24.136 -13.692  0.00  0.00    -0.452 OA
BRANCH  21  23
ATOM     22  O   UNL     1      38.440 -23.065 -11.678  0.00  0.00    -0.250 OA
ATOM     23  C   UNL     1      38.119 -24.053 -12.324  0.00  0.00    +0.317 C 
ATOM     24  C   UNL     1      37.723 -25.362 -11.711  0.00  0.00    +0.121 C 
ENDBRANCH  21  23
ENDBRANCH  11  21
TORSDOF 2
ENDMDL
MODEL 4
REMARK VINA RESULT:      -8.6      9.856     12.691
REMARK  Name = 11809740
REMARK  2 active torsions:
REMARK  status: ('A' for Active; 'I' for Inactive)
REMARK    1  A    between atoms: C_11  and  O_21
REMARK    2  A    between atoms: O_21  and  C_23
REMARK                            x       y       z     vdW  Elec       q    Type
REMARK                         _______ _______ _______ _____ _____    ______ ____
ROOT
ATOM      1  O   UNL     1      34.243 -10.587 -25.890  0.00  0.00    -0.296 OA
ATOM      2  C   UNL     1      34.092 -16.626 -23.675  0.00  0.00    +0.000 C 
ATOM      3  C   UNL     1      34.482 -15.282 -22.979  0.00  0.00    +0.000 C 
ATOM      4  C   UNL     1      34.899 -17.760 -23.035  0.00  0.00    +0.003 C 
ATOM      5  C   UNL     1      34.635 -17.900 -21.524  0.00  0.00    +0.037 C 
ATOM      6  C   UNL     1      33.731 -14.051 -23.611  0.00  0.00    +0.001 C 
ATOM      7  C   UNL     1      34.037 -14.047 -25.145  0.00  0.00    +0.007 C 
ATOM      8  C   UNL     1      34.375 -15.374 -21.432  0.00  0.00    +0.000 C 
ATOM      9  C   UNL     1      35.087 -16.604 -20.840  0.00  0.00    +0.003 C 
ATOM     10  C   UNL     1      34.327 -16.555 -25.190  0.00  0.00    +0.000 C 
ATOM     11  C   UNL     1      35.520 -19.127 -21.229  0.00  0.00    +0.169 C 
ATOM     12  C   UNL     1      34.728 -19.183 -23.561  0.00  0.00    +0.004 C 
ATOM     13  C   UNL     1      33.630 -15.357 -25.828  0.00  0.00    +0.000 C 
ATOM     14  C   UNL     1      35.264 -20.069 -22.421  0.00  0.00    +0.044 C 
ATOM     15  C   UNL     1      34.286 -12.719 -23.029  0.00  0.00    +0.008 C 
ATOM     16  C   UNL     1      33.161 -18.196 -21.150  0.00  0.00    +0.004 C 
ATOM     17  C   UNL     1      32.211 -14.122 -23.321  0.00  0.00    +0.000 C 
ATOM     18  C   UNL     1      33.439 -12.842 -25.876  0.00  0.00    +0.064 C 
ATOM     19  C   UNL     1      33.750 -11.467 -23.719  0.00  0.00    +0.065 C 
ATOM     20  C   UNL     1      33.887 -11.556 -25.221  0.00  0.00    +0.151 C 
ENDROOT
BRANCH  11  21
ATOM     21  O   UNL     1      35.210 -19.746 -19.995  0.00  0.00    -0.452 OA
BRANCH  21  23
ATOM     22  O   UNL     1      36.883 -21.341 -19.953  0.00  0.00    -0.250 OA
ATOM     23  C   UNL     1      35.714 -21.009 -19.813  0.00  0.00    +0.317 C 
ATOM     24  C   UNL     1      34.618 -21.948 -19.408  0.00  0.00    +0.121 C 
ENDBRANCH  21  23
ENDBRANCH  11  21
TORSDOF 2
ENDMDL
MODEL 5
REMARK VINA RESULT:      -8.2      1.341      2.608
REMARK  Name = 11809740
REMARK  2 active torsions:
REMARK  status: ('A' for Active; 'I' for Inactive)
REMARK    1  A    between atoms: C_11  and  O_21
REMARK    2  A    between atoms: O_21  and  C_23
REMARK                            x       y       z     vdW  Elec       q    Type
REMARK                         _______ _______ _______ _____ _____    ______ ____
ROOT
ATOM      1  O   UNL     1      39.734 -24.281 -12.953  0.00  0.00    -0.296 OA
ATOM      2  C   UNL     1      33.411 -24.075 -14.123  0.00  0.00    +0.000 C 
ATOM      3  C   UNL     1      34.637 -23.677 -15.008  0.00  0.00    +0.000 C 
ATOM      4  C   UNL     1      32.223 -23.187 -14.506  0.00  0.00    +0.003 C 
ATOM      5  C   UNL     1      31.823 -23.333 -15.986  0.00  0.00    +0.037 C 
ATOM      6  C   UNL     1      35.922 -24.512 -14.645  0.00  0.00    +0.001 C 
ATOM      7  C   UNL     1      36.193 -24.321 -13.116  0.00  0.00    +0.007 C 
ATOM      8  C   UNL     1      34.285 -23.666 -16.521  0.00  0.00    +0.000 C 
ATOM      9  C   UNL     1      33.006 -22.873 -16.847  0.00  0.00    +0.003 C 
ATOM     10  C   UNL     1      33.742 -23.956 -12.630  0.00  0.00    +0.000 C 
ATOM     11  C   UNL     1      30.604 -22.390 -16.010  0.00  0.00    +0.169 C 
ATOM     12  C   UNL     1      30.901 -23.351 -13.761  0.00  0.00    +0.004 C 
ATOM     13  C   UNL     1      34.998 -24.735 -12.251  0.00  0.00    +0.000 C 
ATOM     14  C   UNL     1      29.862 -22.704 -14.696  0.00  0.00    +0.044 C 
ATOM     15  C   UNL     1      37.162 -23.958 -15.404  0.00  0.00    +0.008 C 
ATOM     16  C   UNL     1      31.404 -24.766 -16.404  0.00  0.00    +0.004 C 
ATOM     17  C   UNL     1      35.736 -26.004 -15.021  0.00  0.00    +0.000 C 
ATOM     18  C   UNL     1      37.475 -25.009 -12.641  0.00  0.00    +0.064 C 
ATOM     19  C   UNL     1      38.486 -24.583 -14.972  0.00  0.00    +0.065 C 
ATOM     20  C   UNL     1      38.653 -24.556 -13.472  0.00  0.00    +0.151 C 
ENDROOT
BRANCH  11  21
ATOM     21  O   UNL     1      29.775 -22.588 -17.140  0.00  0.00    -0.452 OA
BRANCH  21  23
ATOM     22  O   UNL     1      27.707 -21.670 -16.670  0.00  0.00    -0.250 OA
ATOM     23  C   UNL     1      28.426 -22.633 -16.896  0.00  0.00    +0.317 C 
ATOM     24  C   UNL     1      27.940 -24.049 -16.946  0.00  0.00    +0.121 C 
ENDBRANCH  21  23
ENDBRANCH  11  21
TORSDOF 2
ENDMDL
MODEL 6
REMARK VINA RESULT:      -7.8      3.820      5.424
REMARK  Name = 11809740
REMARK  2 active torsions:
REMARK  status: ('A' for Active; 'I' for Inactive)
REMARK    1  A    between atoms: C_11  and  O_21
REMARK    2  A    between atoms: O_21  and  C_23
REMARK                            x       y       z     vdW  Elec       q    Type
REMARK                         _______ _______ _______ _____ _____    ______ ____
ROOT
ATOM      1  O   UNL     1      36.454 -24.232 -10.636  0.00  0.00    -0.296 OA
ATOM      2  C   UNL     1      34.355 -23.106 -16.613  0.00  0.00    +0.000 C 
ATOM      3  C   UNL     1      35.685 -22.707 -15.894  0.00  0.00    +0.000 C 
ATOM      4  C   UNL     1      34.022 -22.035 -17.657  0.00  0.00    +0.003 C 
ATOM      5  C   UNL     1      35.124 -21.881 -18.723  0.00  0.00    +0.037 C 
ATOM      6  C   UNL     1      36.077 -23.733 -14.767  0.00  0.00    +0.001 C 
ATOM      7  C   UNL     1      34.866 -23.837 -13.782  0.00  0.00    +0.007 C 
ATOM      8  C   UNL     1      36.823 -22.398 -16.905  0.00  0.00    +0.000 C 
ATOM      9  C   UNL     1      36.406 -21.420 -18.018  0.00  0.00    +0.003 C 
ATOM     10  C   UNL     1      33.211 -23.282 -15.605  0.00  0.00    +0.000 C 
ATOM     11  C   UNL     1      34.460 -20.814 -19.615  0.00  0.00    +0.169 C 
ATOM     12  C   UNL     1      32.745 -22.172 -18.481  0.00  0.00    +0.004 C 
ATOM     13  C   UNL     1      33.570 -24.253 -14.485  0.00  0.00    +0.000 C 
ATOM     14  C   UNL     1      32.987 -21.260 -19.699  0.00  0.00    +0.044 C 
ATOM     15  C   UNL     1      37.290 -23.204 -13.949  0.00  0.00    +0.008 C 
ATOM     16  C   UNL     1      35.415 -23.164 -19.542  0.00  0.00    +0.004 C 
ATOM     17  C   UNL     1      36.451 -25.108 -15.375  0.00  0.00    +0.000 C 
ATOM     18  C   UNL     1      35.146 -24.739 -12.576  0.00  0.00    +0.064 C 
ATOM     19  C   UNL     1      37.622 -24.041 -12.716  0.00  0.00    +0.065 C 
ATOM     20  C   UNL     1      36.400 -24.289 -11.864  0.00  0.00    +0.151 C 
ENDROOT
BRANCH  11  21
ATOM     21  O   UNL     1      35.053 -20.721 -20.897  0.00  0.00    -0.452 OA
BRANCH  21  23
ATOM     22  O   UNL     1      36.069 -18.662 -20.629  0.00  0.00    -0.250 OA
ATOM     23  C   UNL     1      35.428 -19.463 -21.295  0.00  0.00    +0.317 C 
ATOM     24  C   UNL     1      34.940 -19.195 -22.687  0.00  0.00    +0.121 C 
ENDBRANCH  21  23
ENDBRANCH  11  21
TORSDOF 2
ENDMDL
MODEL 7
REMARK VINA RESULT:      -7.8     14.331     17.071
REMARK  Name = 11809740
REMARK  2 active torsions:
REMARK  status: ('A' for Active; 'I' for Inactive)
REMARK    1  A    between atoms: C_11  and  O_21
REMARK    2  A    between atoms: O_21  and  C_23
REMARK                            x       y       z     vdW  Elec       q    Type
REMARK                         _______ _______ _______ _____ _____    ______ ____
ROOT
ATOM      1  O   UNL     1      30.718  -4.407 -22.869  0.00  0.00    -0.296 OA
ATOM      2  C   UNL     1      32.539 -10.544 -22.218  0.00  0.00    +0.000 C 
ATOM      3  C   UNL     1      32.477  -9.614 -23.473  0.00  0.00    +0.000 C 
ATOM      4  C   UNL     1      32.302 -11.989 -22.668  0.00  0.00    +0.003 C 
ATOM      5  C   UNL     1      33.351 -12.475 -23.686  0.00  0.00    +0.037 C 
ATOM      6  C   UNL     1      32.664  -8.097 -23.093  0.00  0.00    +0.001 C 
ATOM      7  C   UNL     1      31.578  -7.742 -22.025  0.00  0.00    +0.007 C 
ATOM      8  C   UNL     1      33.411 -10.109 -24.612  0.00  0.00    +0.000 C 
ATOM      9  C   UNL     1      33.235 -11.603 -24.942  0.00  0.00    +0.003 C 
ATOM     10  C   UNL     1      31.518 -10.112 -21.157  0.00  0.00    +0.000 C 
ATOM     11  C   UNL     1      32.871 -13.929 -23.865  0.00  0.00    +0.169 C 
ATOM     12  C   UNL     1      32.279 -13.100 -21.621  0.00  0.00    +0.004 C 
ATOM     13  C   UNL     1      31.657  -8.639 -20.785  0.00  0.00    +0.000 C 
ATOM     14  C   UNL     1      32.519 -14.385 -22.435  0.00  0.00    +0.044 C 
ATOM     15  C   UNL     1      32.404  -7.191 -24.331  0.00  0.00    +0.008 C 
ATOM     16  C   UNL     1      34.812 -12.449 -23.170  0.00  0.00    +0.004 C 
ATOM     17  C   UNL     1      34.099  -7.829 -22.576  0.00  0.00    +0.000 C 
ATOM     18  C   UNL     1      31.584  -6.262 -21.628  0.00  0.00    +0.064 C 
ATOM     19  C   UNL     1      32.376  -5.698 -24.014  0.00  0.00    +0.065 C 
ATOM     20  C   UNL     1      31.458  -5.390 -22.855  0.00  0.00    +0.151 C 
ENDROOT
BRANCH  11  21
ATOM     21  O   UNL     1      33.848 -14.764 -24.456  0.00  0.00    -0.452 OA
BRANCH  21  23
ATOM     22  O   UNL     1      33.650 -16.663 -25.758  0.00  0.00    -0.250 OA
ATOM     23  C   UNL     1      33.446 -15.474 -25.558  0.00  0.00    +0.317 C 
ATOM     24  C   UNL     1      32.704 -14.580 -26.505  0.00  0.00    +0.121 C 
ENDBRANCH  21  23
ENDBRANCH  11  21
TORSDOF 2
ENDMDL
MODEL 8
REMARK VINA RESULT:      -7.4     15.234     17.439
REMARK  Name = 11809740
REMARK  2 active torsions:
REMARK  status: ('A' for Active; 'I' for Inactive)
REMARK    1  A    between atoms: C_11  and  O_21
REMARK    2  A    between atoms: O_21  and  C_23
REMARK                            x       y       z     vdW  Elec       q    Type
REMARK                         _______ _______ _______ _____ _____    ______ ____
ROOT
ATOM      1  O   UNL     1      33.344 -15.049 -20.243  0.00  0.00    -0.296 OA
ATOM      2  C   UNL     1      31.767  -8.912 -21.359  0.00  0.00    +0.000 C 
ATOM      3  C   UNL     1      32.386 -10.004 -22.291  0.00  0.00    +0.000 C 
ATOM      4  C   UNL     1      32.271  -7.538 -21.813  0.00  0.00    +0.003 C 
ATOM      5  C   UNL     1      31.882  -7.213 -23.268  0.00  0.00    +0.037 C 
ATOM      6  C   UNL     1      31.956 -11.457 -21.862  0.00  0.00    +0.001 C 
ATOM      7  C   UNL     1      32.359 -11.645 -20.363  0.00  0.00    +0.007 C 
ATOM      8  C   UNL     1      32.157  -9.684 -23.794  0.00  0.00    +0.000 C 
ATOM      9  C   UNL     1      32.551  -8.247 -24.182  0.00  0.00    +0.003 C 
ATOM     10  C   UNL     1      32.113  -9.178 -19.888  0.00  0.00    +0.000 C 
ATOM     11  C   UNL     1      32.464  -5.790 -23.370  0.00  0.00    +0.169 C 
ATOM     12  C   UNL     1      31.837  -6.295 -21.041  0.00  0.00    +0.004 C 
ATOM     13  C   UNL     1      31.731 -10.588 -19.448  0.00  0.00    +0.000 C 
ATOM     14  C   UNL     1      32.095  -5.137 -22.024  0.00  0.00    +0.044 C 
ATOM     15  C   UNL     1      32.741 -12.519 -22.685  0.00  0.00    +0.008 C 
ATOM     16  C   UNL     1      30.356  -7.192 -23.540  0.00  0.00    +0.004 C 
ATOM     17  C   UNL     1      30.439 -11.675 -22.089  0.00  0.00    +0.000 C 
ATOM     18  C   UNL     1      32.081 -13.056 -19.836  0.00  0.00    +0.064 C 
ATOM     19  C   UNL     1      32.530 -13.954 -22.209  0.00  0.00    +0.065 C 
ATOM     20  C   UNL     1      32.746 -14.086 -20.720  0.00  0.00    +0.151 C 
ENDROOT
BRANCH  11  21
ATOM     21  O   UNL     1      31.947  -5.060 -24.466  0.00  0.00    -0.452 OA
BRANCH  21  23
ATOM     22  O   UNL     1      33.780  -5.607 -25.763  0.00  0.00    -0.250 OA
ATOM     23  C   UNL     1      32.772  -4.946 -25.556  0.00  0.00    +0.317 C 
ATOM     24  C   UNL     1      32.263  -3.881 -26.479  0.00  0.00    +0.121 C 
ENDBRANCH  21  23
ENDBRANCH  11  21
TORSDOF 2
ENDMDL
MODEL 9
REMARK VINA RESULT:      -7.4      3.421      5.863
REMARK  Name = 11809740
REMARK  2 active torsions:
REMARK  status: ('A' for Active; 'I' for Inactive)
REMARK    1  A    between atoms: C_11  and  O_21
REMARK    2  A    between atoms: O_21  and  C_23
REMARK                            x       y       z     vdW  Elec       q    Type
REMARK                         _______ _______ _______ _____ _____    ______ ____
ROOT
ATOM      1  O   UNL     1      35.458 -18.684 -21.776  0.00  0.00    -0.296 OA
ATOM      2  C   UNL     1      35.148 -22.786 -16.828  0.00  0.00    +0.000 C 
ATOM      3  C   UNL     1      34.027 -22.032 -17.615  0.00  0.00    +0.000 C 
ATOM      4  C   UNL     1      34.677 -22.995 -15.386  0.00  0.00    +0.003 C 
ATOM      5  C   UNL     1      33.381 -23.822 -15.297  0.00  0.00    +0.037 C 
ATOM      6  C   UNL     1      34.450 -21.731 -19.101  0.00  0.00    +0.001 C 
ATOM      7  C   UNL     1      35.796 -20.935 -19.058  0.00  0.00    +0.007 C 
ATOM      8  C   UNL     1      32.645 -22.726 -17.469  0.00  0.00    +0.000 C 
ATOM      9  C   UNL     1      32.269 -23.042 -16.010  0.00  0.00    +0.003 C 
ATOM     10  C   UNL     1      36.475 -22.016 -16.880  0.00  0.00    +0.000 C 
ATOM     11  C   UNL     1      33.236 -23.896 -13.764  0.00  0.00    +0.169 C 
ATOM     12  C   UNL     1      35.609 -23.684 -14.392  0.00  0.00    +0.004 C 
ATOM     13  C   UNL     1      36.900 -21.688 -18.308  0.00  0.00    +0.000 C 
ATOM     14  C   UNL     1      34.671 -24.154 -13.265  0.00  0.00    +0.044 C 
ATOM     15  C   UNL     1      33.397 -20.815 -19.791  0.00  0.00    +0.008 C 
ATOM     16  C   UNL     1      33.480 -25.247 -15.898  0.00  0.00    +0.004 C 
ATOM     17  C   UNL     1      34.576 -23.042 -19.917  0.00  0.00    +0.000 C 
ATOM     18  C   UNL     1      36.280 -20.494 -20.442  0.00  0.00    +0.064 C 
ATOM     19  C   UNL     1      33.816 -20.317 -21.172  0.00  0.00    +0.065 C 
ATOM     20  C   UNL     1      35.199 -19.712 -21.151  0.00  0.00    +0.151 C 
ENDROOT
BRANCH  11  21
ATOM     21  O   UNL     1      32.343 -24.909 -13.343  0.00  0.00    -0.452 OA
BRANCH  21  23
ATOM     22  O   UNL     1      30.581 -23.722 -12.434  0.00  0.00    -0.250 OA
ATOM     23  C   UNL     1      31.027 -24.541 -13.225  0.00  0.00    +0.317 C 
ATOM     24  C   UNL     1      30.191 -25.292 -14.216  0.00  0.00    +0.121 C 
ENDBRANCH  21  23
ENDBRANCH  11  21
TORSDOF 2
ENDMDL
