MODEL 1
REMARK VINA RESULT:      -5.5      0.000      0.000
REMARK  Name = 36688062
REMARK  6 active torsions:
REMARK  status: ('A' for Active; 'I' for Inactive)
REMARK    1  A    between atoms: CA_1  and  N_2
REMARK    2  A    between atoms: CA_1  and  C_8
REMARK    3  A    between atoms: CA_1  and  C_9
REMARK    4  A    between atoms: C_9  and  C_10
REMARK    5  A    between atoms: C_10  and  C_11
REMARK    6  A    between atoms: C_11  and  C_13
REMARK                            x       y       z     vdW  Elec       q    Type
REMARK                         _______ _______ _______ _____ _____    ______ ____
ROOT
ATOM      1  CA  UNL     1      38.755 -25.206 -14.326  0.00  0.00    +0.040 C 
ENDROOT
BRANCH   1   2
ATOM      2  N   UNL     1      37.803 -25.866 -15.274  0.00  0.00    +0.389 N 
ATOM      3  H1  UNL     1      36.869 -25.879 -14.865  0.00  0.00    -0.088 HD
ATOM      4  H2  UNL     1      38.109 -26.824 -15.452  0.00  0.00    -0.088 HD
ATOM      5  H3  UNL     1      37.782 -25.348 -16.152  0.00  0.00    -0.088 HD
ENDBRANCH   1   2
BRANCH   1   8
ATOM      6  O   UNL     1      41.071 -24.707 -14.526  0.00  0.00    -0.248 OA
ATOM      7  OXT UNL     1      40.408 -26.890 -14.553  0.00  0.00    -0.248 OA
ATOM      8  C   UNL     1      40.221 -25.641 -14.493  0.00  0.00    +0.345 C 
ENDBRANCH   1   8
BRANCH   1   9
ATOM      9  C   UNL     1      38.178 -25.358 -12.912  0.00  0.00    -0.010 C 
BRANCH   9  10
ATOM     10  C   UNL     1      38.290 -24.100 -12.042  0.00  0.00    +0.007 C 
BRANCH  10  11
ATOM     11  C   UNL     1      36.911 -23.578 -11.649  0.00  0.00    +0.072 C 
BRANCH  11  13
ATOM     12  O   UNL     1      35.332 -25.081 -10.580  0.00  0.00    -0.288 OA
ATOM     13  C   UNL     1      35.868 -24.668 -11.603  0.00  0.00    +0.207 C 
ENDBRANCH  11  13
ENDBRANCH  10  11
ENDBRANCH   9  10
ENDBRANCH   1   9
TORSDOF 6
ENDMDL
MODEL 2
REMARK VINA RESULT:      -5.3      7.721      9.569
REMARK  Name = 36688062
REMARK  6 active torsions:
REMARK  status: ('A' for Active; 'I' for Inactive)
REMARK    1  A    between atoms: CA_1  and  N_2
REMARK    2  A    between atoms: CA_1  and  C_8
REMARK    3  A    between atoms: CA_1  and  C_9
REMARK    4  A    between atoms: C_9  and  C_10
REMARK    5  A    between atoms: C_10  and  C_11
REMARK    6  A    between atoms: C_11  and  C_13
REMARK                            x       y       z     vdW  Elec       q    Type
REMARK                         _______ _______ _______ _____ _____    ______ ____
ROOT
ATOM      1  CA  UNL     1      28.723 -23.455 -15.442  0.00  0.00    +0.040 C 
ENDROOT
BRANCH   1   2
ATOM      2  N   UNL     1      29.005 -24.904 -15.195  0.00  0.00    +0.389 N 
ATOM      3  H1  UNL     1      29.941 -25.007 -14.804  0.00  0.00    -0.088 HD
ATOM      4  H2  UNL     1      28.946 -25.417 -16.075  0.00  0.00    -0.088 HD
ATOM      5  H3  UNL     1      28.320 -25.277 -14.537  0.00  0.00    -0.088 HD
ENDBRANCH   1   2
BRANCH   1   8
ATOM      6  O   UNL     1      27.754 -24.129 -17.506  0.00  0.00    -0.248 OA
ATOM      7  OXT UNL     1      28.248 -21.924 -17.189  0.00  0.00    -0.248 OA
ATOM      8  C   UNL     1      28.198 -23.143 -16.854  0.00  0.00    +0.345 C 
ENDBRANCH   1   8
BRANCH   1   9
ATOM      9  C   UNL     1      29.963 -22.663 -15.008  0.00  0.00    -0.010 C 
BRANCH   9  10
ATOM     10  C   UNL     1      31.281 -23.167 -15.610  0.00  0.00    +0.007 C 
BRANCH  10  11
ATOM     11  C   UNL     1      32.361 -23.297 -14.539  0.00  0.00    +0.072 C 
BRANCH  11  13
ATOM     12  O   UNL     1      31.478 -25.098 -13.172  0.00  0.00    -0.288 OA
ATOM     13  C   UNL     1      32.372 -24.658 -13.886  0.00  0.00    +0.207 C 
ENDBRANCH  11  13
ENDBRANCH  10  11
ENDBRANCH   9  10
ENDBRANCH   1   9
TORSDOF 6
ENDMDL
MODEL 3
REMARK VINA RESULT:      -5.3      2.398      2.706
REMARK  Name = 36688062
REMARK  6 active torsions:
REMARK  status: ('A' for Active; 'I' for Inactive)
REMARK    1  A    between atoms: CA_1  and  N_2
REMARK    2  A    between atoms: CA_1  and  C_8
REMARK    3  A    between atoms: CA_1  and  C_9
REMARK    4  A    between atoms: C_9  and  C_10
REMARK    5  A    between atoms: C_10  and  C_11
REMARK    6  A    between atoms: C_11  and  C_13
REMARK                            x       y       z     vdW  Elec       q    Type
REMARK                         _______ _______ _______ _____ _____    ______ ____
ROOT
ATOM      1  CA  UNL     1      37.896 -26.294 -14.574  0.00  0.00    +0.040 C 
ENDROOT
BRANCH   1   2
ATOM      2  N   UNL     1      38.843 -25.220 -15.013  0.00  0.00    +0.389 N 
ATOM      3  H1  UNL     1      38.427 -24.693 -15.780  0.00  0.00    -0.088 HD
ATOM      4  H2  UNL     1      39.716 -25.644 -15.326  0.00  0.00    -0.088 HD
ATOM      5  H3  UNL     1      39.030 -24.592 -14.231  0.00  0.00    -0.088 HD
ENDBRANCH   1   2
BRANCH   1   8
ATOM      6  O   UNL     1      36.700 -27.451 -16.273  0.00  0.00    -0.248 OA
ATOM      7  OXT UNL     1      35.749 -25.613 -15.313  0.00  0.00    -0.248 OA
ATOM      8  C   UNL     1      36.667 -26.466 -15.482  0.00  0.00    +0.345 C 
ENDBRANCH   1   8
BRANCH   1   9
ATOM      9  C   UNL     1      37.593 -26.063 -13.088  0.00  0.00    -0.010 C 
BRANCH   9  10
ATOM     10  C   UNL     1      38.184 -24.769 -12.512  0.00  0.00    +0.007 C 
BRANCH  10  11
ATOM     11  C   UNL     1      37.122 -23.959 -11.775  0.00  0.00    +0.072 C 
BRANCH  11  13
ATOM     12  O   UNL     1      35.336 -25.069 -10.562  0.00  0.00    -0.288 OA
ATOM     13  C   UNL     1      35.818 -24.705 -11.629  0.00  0.00    +0.207 C 
ENDBRANCH  11  13
ENDBRANCH  10  11
ENDBRANCH   9  10
ENDBRANCH   1   9
TORSDOF 6
ENDMDL
MODEL 4
REMARK VINA RESULT:      -5.2      1.665      4.892
REMARK  Name = 36688062
REMARK  6 active torsions:
REMARK  status: ('A' for Active; 'I' for Inactive)
REMARK    1  A    between atoms: CA_1  and  N_2
REMARK    2  A    between atoms: CA_1  and  C_8
REMARK    3  A    between atoms: CA_1  and  C_9
REMARK    4  A    between atoms: C_9  and  C_10
REMARK    5  A    between atoms: C_10  and  C_11
REMARK    6  A    between atoms: C_11  and  C_13
REMARK                            x       y       z     vdW  Elec       q    Type
REMARK                         _______ _______ _______ _____ _____    ______ ____
ROOT
ATOM      1  CA  UNL     1      35.789 -24.506 -12.728  0.00  0.00    +0.040 C 
ENDROOT
BRANCH   1   2
ATOM      2  N   UNL     1      35.905 -23.163 -13.378  0.00  0.00    +0.389 N 
ATOM      3  H1  UNL     1      35.456 -22.461 -12.790  0.00  0.00    -0.088 HD
ATOM      4  H2  UNL     1      35.447 -23.186 -14.290  0.00  0.00    -0.088 HD
ATOM      5  H3  UNL     1      36.890 -22.927 -13.498  0.00  0.00    -0.088 HD
ENDBRANCH   1   2
BRANCH   1   8
ATOM      6  O   UNL     1      35.229 -25.128 -10.502  0.00  0.00    -0.248 OA
ATOM      7  OXT UNL     1      37.118 -23.900 -10.860  0.00  0.00    -0.248 OA
ATOM      8  C   UNL     1      36.066 -24.505 -11.215  0.00  0.00    +0.345 C 
ENDBRANCH   1   8
BRANCH   1   9
ATOM      9  C   UNL     1      36.628 -25.492 -13.552  0.00  0.00    -0.010 C 
BRANCH   9  10
ATOM     10  C   UNL     1      37.908 -24.892 -14.149  0.00  0.00    +0.007 C 
BRANCH  10  11
ATOM     11  C   UNL     1      39.152 -25.500 -13.509  0.00  0.00    +0.072 C 
BRANCH  11  13
ATOM     12  O   UNL     1      40.980 -26.648 -14.620  0.00  0.00    -0.288 OA
ATOM     13  C   UNL     1      40.298 -25.638 -14.481  0.00  0.00    +0.207 C 
ENDBRANCH  11  13
ENDBRANCH  10  11
ENDBRANCH   9  10
ENDBRANCH   1   9
TORSDOF 6
ENDMDL
MODEL 5
REMARK VINA RESULT:      -5.2      2.659      4.829
REMARK  Name = 36688062
REMARK  6 active torsions:
REMARK  status: ('A' for Active; 'I' for Inactive)
REMARK    1  A    between atoms: CA_1  and  N_2
REMARK    2  A    between atoms: CA_1  and  C_8
REMARK    3  A    between atoms: CA_1  and  C_9
REMARK    4  A    between atoms: C_9  and  C_10
REMARK    5  A    between atoms: C_10  and  C_11
REMARK    6  A    between atoms: C_11  and  C_13
REMARK                            x       y       z     vdW  Elec       q    Type
REMARK                         _______ _______ _______ _____ _____    ______ ____
ROOT
ATOM      1  CA  UNL     1      35.970 -24.764 -12.106  0.00  0.00    +0.040 C 
ENDROOT
BRANCH   1   2
ATOM      2  N   UNL     1      35.795 -23.828 -13.261  0.00  0.00    +0.389 N 
ATOM      3  H1  UNL     1      35.568 -24.361 -14.100  0.00  0.00    -0.088 HD
ATOM      4  H2  UNL     1      36.660 -23.308 -13.411  0.00  0.00    -0.088 HD
ATOM      5  H3  UNL     1      35.037 -23.175 -13.058  0.00  0.00    -0.088 HD
ENDBRANCH   1   2
BRANCH   1   8
ATOM      6  O   UNL     1      35.404 -24.478  -9.814  0.00  0.00    -0.248 OA
ATOM      7  OXT UNL     1      37.050 -23.178 -10.712  0.00  0.00    -0.248 OA
ATOM      8  C   UNL     1      36.151 -24.068 -10.747  0.00  0.00    +0.345 C 
ENDBRANCH   1   8
BRANCH   1   9
ATOM      9  C   UNL     1      37.068 -25.766 -12.487  0.00  0.00    -0.010 C 
BRANCH   9  10
ATOM     10  C   UNL     1      38.057 -25.254 -13.542  0.00  0.00    +0.007 C 
BRANCH  10  11
ATOM     11  C   UNL     1      38.195 -26.245 -14.694  0.00  0.00    +0.072 C 
BRANCH  11  13
ATOM     12  O   UNL     1      36.706 -27.364 -16.252  0.00  0.00    -0.288 OA
ATOM     13  C   UNL     1      36.860 -26.703 -15.231  0.00  0.00    +0.207 C 
ENDBRANCH  11  13
ENDBRANCH  10  11
ENDBRANCH   9  10
ENDBRANCH   1   9
TORSDOF 6
ENDMDL
MODEL 6
REMARK VINA RESULT:      -5.2     11.415     11.921
REMARK  Name = 36688062
REMARK  6 active torsions:
REMARK  status: ('A' for Active; 'I' for Inactive)
REMARK    1  A    between atoms: CA_1  and  N_2
REMARK    2  A    between atoms: CA_1  and  C_8
REMARK    3  A    between atoms: CA_1  and  C_9
REMARK    4  A    between atoms: C_9  and  C_10
REMARK    5  A    between atoms: C_10  and  C_11
REMARK    6  A    between atoms: C_11  and  C_13
REMARK                            x       y       z     vdW  Elec       q    Type
REMARK                         _______ _______ _______ _____ _____    ______ ____
ROOT
ATOM      1  CA  UNL     1      34.701 -16.984 -22.120  0.00  0.00    +0.040 C 
ENDROOT
BRANCH   1   2
ATOM      2  N   UNL     1      35.722 -17.134 -23.204  0.00  0.00    +0.389 N 
ATOM      3  H1  UNL     1      36.462 -16.445 -23.071  0.00  0.00    -0.088 HD
ATOM      4  H2  UNL     1      35.279 -16.986 -24.111  0.00  0.00    -0.088 HD
ATOM      5  H3  UNL     1      36.121 -18.071 -23.168  0.00  0.00    -0.088 HD
ENDBRANCH   1   2
BRANCH   1   8
ATOM      6  O   UNL     1      34.483 -14.617 -22.214  0.00  0.00    -0.248 OA
ATOM      7  OXT UNL     1      34.858 -15.609 -20.194  0.00  0.00    -0.248 OA
ATOM      8  C   UNL     1      34.688 -15.600 -21.448  0.00  0.00    +0.345 C 
ENDBRANCH   1   8
BRANCH   1   9
ATOM      9  C   UNL     1      34.856 -18.179 -21.170  0.00  0.00    -0.010 C 
BRANCH   9  10
ATOM     10  C   UNL     1      34.151 -19.458 -21.639  0.00  0.00    +0.007 C 
BRANCH  10  11
ATOM     11  C   UNL     1      33.021 -19.844 -20.688  0.00  0.00    +0.072 C 
BRANCH  11  13
ATOM     12  O   UNL     1      32.934 -22.112 -19.827  0.00  0.00    -0.288 OA
ATOM     13  C   UNL     1      33.398 -20.978 -19.767  0.00  0.00    +0.207 C 
ENDBRANCH  11  13
ENDBRANCH  10  11
ENDBRANCH   9  10
ENDBRANCH   1   9
TORSDOF 6
ENDMDL
MODEL 7
REMARK VINA RESULT:      -5.1      8.056      9.865
REMARK  Name = 36688062
REMARK  6 active torsions:
REMARK  status: ('A' for Active; 'I' for Inactive)
REMARK    1  A    between atoms: CA_1  and  N_2
REMARK    2  A    between atoms: CA_1  and  C_8
REMARK    3  A    between atoms: CA_1  and  C_9
REMARK    4  A    between atoms: C_9  and  C_10
REMARK    5  A    between atoms: C_10  and  C_11
REMARK    6  A    between atoms: C_11  and  C_13
REMARK                            x       y       z     vdW  Elec       q    Type
REMARK                         _______ _______ _______ _____ _____    ______ ____
ROOT
ATOM      1  CA  UNL     1      28.759 -23.344 -15.513  0.00  0.00    +0.040 C 
ENDROOT
BRANCH   1   2
ATOM      2  N   UNL     1      28.923 -24.812 -15.267  0.00  0.00    +0.389 N 
ATOM      3  H1  UNL     1      28.094 -25.171 -14.794  0.00  0.00    -0.088 HD
ATOM      4  H2  UNL     1      29.744 -24.969 -14.683  0.00  0.00    -0.088 HD
ATOM      5  H3  UNL     1      29.041 -25.295 -16.158  0.00  0.00    -0.088 HD
ENDBRANCH   1   2
BRANCH   1   8
ATOM      6  O   UNL     1      27.706 -23.980 -17.548  0.00  0.00    -0.248 OA
ATOM      7  OXT UNL     1      27.889 -21.761 -17.049  0.00  0.00    -0.248 OA
ATOM      8  C   UNL     1      28.057 -22.997 -16.837  0.00  0.00    +0.345 C 
ENDBRANCH   1   8
BRANCH   1   9
ATOM      9  C   UNL     1      30.128 -22.685 -15.298  0.00  0.00    -0.010 C 
BRANCH   9  10
ATOM     10  C   UNL     1      31.195 -23.087 -16.325  0.00  0.00    +0.007 C 
BRANCH  10  11
ATOM     11  C   UNL     1      32.516 -23.427 -15.642  0.00  0.00    +0.072 C 
BRANCH  11  13
ATOM     12  O   UNL     1      34.722 -23.975 -16.494  0.00  0.00    -0.288 OA
ATOM     13  C   UNL     1      33.700 -23.303 -16.570  0.00  0.00    +0.207 C 
ENDBRANCH  11  13
ENDBRANCH  10  11
ENDBRANCH   9  10
ENDBRANCH   1   9
TORSDOF 6
ENDMDL
MODEL 8
REMARK VINA RESULT:      -5.1      9.308      9.976
REMARK  Name = 36688062
REMARK  6 active torsions:
REMARK  status: ('A' for Active; 'I' for Inactive)
REMARK    1  A    between atoms: CA_1  and  N_2
REMARK    2  A    between atoms: CA_1  and  C_8
REMARK    3  A    between atoms: CA_1  and  C_9
REMARK    4  A    between atoms: C_9  and  C_10
REMARK    5  A    between atoms: C_10  and  C_11
REMARK    6  A    between atoms: C_11  and  C_13
REMARK                            x       y       z     vdW  Elec       q    Type
REMARK                         _______ _______ _______ _____ _____    ______ ____
ROOT
ATOM      1  CA  UNL     1      33.885 -21.522 -19.938  0.00  0.00    +0.040 C 
ENDROOT
BRANCH   1   2
ATOM      2  N   UNL     1      32.661 -20.801 -19.466  0.00  0.00    +0.389 N 
ATOM      3  H1  UNL     1      32.741 -19.811 -19.696  0.00  0.00    -0.088 HD
ATOM      4  H2  UNL     1      32.571 -20.910 -18.456  0.00  0.00    -0.088 HD
ATOM      5  H3  UNL     1      31.839 -21.191 -19.925  0.00  0.00    -0.088 HD
ENDBRANCH   1   2
BRANCH   1   8
ATOM      6  O   UNL     1      33.823 -23.783 -19.203  0.00  0.00    -0.248 OA
ATOM      7  OXT UNL     1      35.241 -22.326 -18.167  0.00  0.00    -0.248 OA
ATOM      8  C   UNL     1      34.354 -22.653 -19.007  0.00  0.00    +0.345 C 
ENDBRANCH   1   8
BRANCH   1   9
ATOM      9  C   UNL     1      34.944 -20.463 -20.276  0.00  0.00    -0.010 C 
BRANCH   9  10
ATOM     10  C   UNL     1      34.425 -19.296 -21.125  0.00  0.00    +0.007 C 
BRANCH  10  11
ATOM     11  C   UNL     1      35.491 -18.215 -21.284  0.00  0.00    +0.072 C 
BRANCH  11  13
ATOM     12  O   UNL     1      35.043 -16.132 -20.121  0.00  0.00    -0.288 OA
ATOM     13  C   UNL     1      34.933 -16.821 -21.129  0.00  0.00    +0.207 C 
ENDBRANCH  11  13
ENDBRANCH  10  11
ENDBRANCH   9  10
ENDBRANCH   1   9
TORSDOF 6
ENDMDL
MODEL 9
REMARK VINA RESULT:      -5.1     12.631     13.604
REMARK  Name = 36688062
REMARK  6 active torsions:
REMARK  status: ('A' for Active; 'I' for Inactive)
REMARK    1  A    between atoms: CA_1  and  N_2
REMARK    2  A    between atoms: CA_1  and  C_8
REMARK    3  A    between atoms: CA_1  and  C_9
REMARK    4  A    between atoms: C_9  and  C_10
REMARK    5  A    between atoms: C_10  and  C_11
REMARK    6  A    between atoms: C_11  and  C_13
REMARK                            x       y       z     vdW  Elec       q    Type
REMARK                         _______ _______ _______ _____ _____    ______ ____
ROOT
ATOM      1  CA  UNL     1      35.123 -17.673 -21.407  0.00  0.00    +0.040 C 
ENDROOT
BRANCH   1   2
ATOM      2  N   UNL     1      34.174 -18.779 -21.063  0.00  0.00    +0.389 N 
ATOM      3  H1  UNL     1      33.237 -18.396 -20.938  0.00  0.00    -0.088 HD
ATOM      4  H2  UNL     1      34.476 -19.229 -20.198  0.00  0.00    -0.088 HD
ATOM      5  H3  UNL     1      34.162 -19.465 -21.817  0.00  0.00    -0.088 HD
ENDBRANCH   1   2
BRANCH   1   8
ATOM      6  O   UNL     1      33.718 -15.876 -22.079  0.00  0.00    -0.248 OA
ATOM      7  OXT UNL     1      34.959 -15.652 -20.178  0.00  0.00    -0.248 OA
ATOM      8  C   UNL     1      34.549 -16.260 -21.209  0.00  0.00    +0.345 C 
ENDBRANCH   1   8
BRANCH   1   9
ATOM      9  C   UNL     1      35.687 -17.967 -22.804  0.00  0.00    -0.010 C 
BRANCH   9  10
ATOM     10  C   UNL     1      34.936 -19.060 -23.575  0.00  0.00    +0.007 C 
BRANCH  10  11
ATOM     11  C   UNL     1      34.362 -18.517 -24.881  0.00  0.00    +0.072 C 
BRANCH  11  13
ATOM     12  O   UNL     1      34.250 -16.341 -25.951  0.00  0.00    -0.288 OA
ATOM     13  C   UNL     1      34.805 -17.103 -25.167  0.00  0.00    +0.207 C 
ENDBRANCH  11  13
ENDBRANCH  10  11
ENDBRANCH   9  10
ENDBRANCH   1   9
TORSDOF 6
ENDMDL
