MODEL 1
REMARK VINA RESULT:     -12.7      0.000      0.000
REMARK  Name = 25025505
REMARK  6 active torsions:
REMARK  status: ('A' for Active; 'I' for Inactive)
REMARK    1  A    between atoms: C_3  and  C_9
REMARK    2  A    between atoms: C_4  and  C_20
REMARK    3  A    between atoms: C_17  and  C_18
REMARK    4  A    between atoms: C_20  and  O_21
REMARK    5  A    between atoms: O_21  and  C_22
REMARK    6  A    between atoms: C_25  and  N_28
REMARK                            x       y       z     vdW  Elec       q    Type
REMARK                         _______ _______ _______ _____ _____    ______ ____
ROOT
ATOM      1  S   UNL     1      36.469 -23.879 -15.156  0.00  0.00    -0.079 S 
ATOM      2  N   UNL     1      33.920 -23.552 -15.437  0.00  0.00    -0.404 NA
ATOM      3  C   UNL     1      35.076 -23.426 -16.050  0.00  0.00    +0.134 C 
ATOM      4  C   UNL     1      34.141 -24.042 -14.165  0.00  0.00    +0.142 C 
ATOM      5  C   UNL     1      35.458 -24.281 -13.831  0.00  0.00    +0.122 C 
ENDROOT
BRANCH   3   9
ATOM      6  N   UNL     1      35.177 -20.931 -19.575  0.00  0.00    -0.253 N 
ATOM      7  N   UNL     1      36.204 -19.123 -20.639  0.00  0.00    -0.203 NA
ATOM      8  N   UNL     1      34.192 -20.108 -21.527  0.00  0.00    -0.181 NA
ATOM      9  C   UNL     1      35.243 -22.916 -17.470  0.00  0.00    +0.062 C 
ATOM     10  C   UNL     1      33.919 -22.416 -18.064  0.00  0.00    +0.030 C 
ATOM     11  C   UNL     1      36.300 -21.806 -17.564  0.00  0.00    +0.030 C 
ATOM     12  C   UNL     1      34.101 -21.927 -19.501  0.00  0.00    +0.102 C 
ATOM     13  C   UNL     1      36.473 -21.326 -19.005  0.00  0.00    +0.102 C 
ATOM     14  C   UNL     1      35.192 -20.011 -20.630  0.00  0.00    +0.090 C 
ATOM     15  C   UNL     1      36.187 -18.251 -21.669  0.00  0.00    +0.161 C 
ATOM     16  C   UNL     1      34.237 -19.206 -22.529  0.00  0.00    +0.104 C 
ATOM     17  C   UNL     1      35.219 -18.244 -22.652  0.00  0.00    +0.001 C 
BRANCH  17  18
ATOM     18  C   UNL     1      35.235 -17.269 -23.768  0.00  0.00    +0.026 C 
ATOM     19  C   UNL     1      34.634 -17.836 -25.055  0.00  0.00    +0.005 C 
ENDBRANCH  17  18
ENDBRANCH   3   9
BRANCH   4  20
ATOM     20  C   UNL     1      32.976 -24.264 -13.286  0.00  0.00    +0.260 C 
BRANCH  20  21
ATOM     21  O   UNL     1      32.038 -25.126 -13.929  0.00  0.00    -0.468 OA
BRANCH  21  22
ATOM     22  C   UNL     1      30.978 -24.523 -14.550  0.00  0.00    +0.139 C 
ATOM     23  C   UNL     1      30.137 -25.269 -15.378  0.00  0.00    +0.038 C 
ATOM     24  C   UNL     1      30.737 -23.164 -14.356  0.00  0.00    +0.038 C 
ATOM     25  C   UNL     1      28.818 -23.295 -15.817  0.00  0.00    +0.078 C 
ATOM     26  C   UNL     1      29.058 -24.654 -16.011  0.00  0.00    +0.020 C 
ATOM     27  C   UNL     1      29.657 -22.548 -14.989  0.00  0.00    +0.020 C 
BRANCH  25  28
ATOM     28  N   UNL     1      27.746 -22.685 -16.444  0.00  0.00    -0.149 N 
ATOM     29  N   UNL     1      27.621 -22.651 -17.778  0.00  0.00    -0.048 NA
ATOM     30  N   UNL     1      25.899 -21.612 -16.816  0.00  0.00    -0.107 NA
ATOM     31  N   UNL     1      26.489 -21.994 -18.000  0.00  0.00    -0.024 NA
ATOM     32  C   UNL     1      26.693 -22.050 -15.867  0.00  0.00    +0.215 C 
ENDBRANCH  25  28
ENDBRANCH  21  22
ENDBRANCH  20  21
ENDBRANCH   4  20
TORSDOF 6
ENDMDL
MODEL 2
REMARK VINA RESULT:     -12.2      7.622     11.401
REMARK  Name = 25025505
REMARK  6 active torsions:
REMARK  status: ('A' for Active; 'I' for Inactive)
REMARK    1  A    between atoms: C_3  and  C_9
REMARK    2  A    between atoms: C_4  and  C_20
REMARK    3  A    between atoms: C_17  and  C_18
REMARK    4  A    between atoms: C_20  and  O_21
REMARK    5  A    between atoms: O_21  and  C_22
REMARK    6  A    between atoms: C_25  and  N_28
REMARK                            x       y       z     vdW  Elec       q    Type
REMARK                         _______ _______ _______ _____ _____    ______ ____
ROOT
ATOM      1  S   UNL     1      33.063 -14.495 -25.680  0.00  0.00    -0.079 S 
ATOM      2  N   UNL     1      34.509 -15.098 -23.625  0.00  0.00    -0.404 NA
ATOM      3  C   UNL     1      33.877 -14.112 -24.219  0.00  0.00    +0.134 C 
ATOM      4  C   UNL     1      34.345 -16.248 -24.373  0.00  0.00    +0.142 C 
ATOM      5  C   UNL     1      33.592 -16.118 -25.521  0.00  0.00    +0.122 C 
ENDROOT
BRANCH   3   9
ATOM      6  N   UNL     1      32.893  -9.949 -23.618  0.00  0.00    -0.253 N 
ATOM      7  N   UNL     1      31.255  -8.422 -22.951  0.00  0.00    -0.203 NA
ATOM      8  N   UNL     1      33.303  -7.677 -23.980  0.00  0.00    -0.181 NA
ATOM      9  C   UNL     1      33.826 -12.687 -23.697  0.00  0.00    +0.062 C 
ATOM     10  C   UNL     1      34.235 -11.665 -24.768  0.00  0.00    +0.030 C 
ATOM     11  C   UNL     1      32.440 -12.324 -23.143  0.00  0.00    +0.030 C 
ATOM     12  C   UNL     1      34.200 -10.238 -24.220  0.00  0.00    +0.102 C 
ATOM     13  C   UNL     1      32.419 -10.895 -22.599  0.00  0.00    +0.102 C 
ATOM     14  C   UNL     1      32.464  -8.620 -23.511  0.00  0.00    +0.090 C 
ATOM     15  C   UNL     1      30.873  -7.131 -22.865  0.00  0.00    +0.161 C 
ATOM     16  C   UNL     1      32.858  -6.409 -23.862  0.00  0.00    +0.104 C 
ATOM     17  C   UNL     1      31.639  -6.073 -23.309  0.00  0.00    +0.001 C 
BRANCH  17  18
ATOM     18  C   UNL     1      31.183  -4.667 -23.196  0.00  0.00    +0.026 C 
ATOM     19  C   UNL     1      31.296  -3.903 -24.516  0.00  0.00    +0.005 C 
ENDBRANCH  17  18
ENDBRANCH   3   9
BRANCH   4  20
ATOM     20  C   UNL     1      34.976 -17.493 -23.892  0.00  0.00    +0.260 C 
BRANCH  20  21
ATOM     21  O   UNL     1      35.352 -17.353 -22.523  0.00  0.00    -0.468 OA
BRANCH  21  22
ATOM     22  C   UNL     1      35.118 -18.428 -21.710  0.00  0.00    +0.139 C 
ATOM     23  C   UNL     1      33.811 -18.858 -21.479  0.00  0.00    +0.038 C 
ATOM     24  C   UNL     1      36.186 -19.096 -21.112  0.00  0.00    +0.038 C 
ATOM     25  C   UNL     1      34.642 -20.620 -20.052  0.00  0.00    +0.078 C 
ATOM     26  C   UNL     1      33.573 -19.954 -20.650  0.00  0.00    +0.020 C 
ATOM     27  C   UNL     1      35.949 -20.192 -20.283  0.00  0.00    +0.020 C 
BRANCH  25  28
ATOM     28  N   UNL     1      34.406 -21.708 -19.230  0.00  0.00    -0.149 N 
ATOM     29  N   UNL     1      33.334 -22.499 -19.377  0.00  0.00    -0.048 NA
ATOM     30  N   UNL     1      34.588 -23.208 -17.675  0.00  0.00    -0.107 NA
ATOM     31  N   UNL     1      33.450 -23.415 -18.424  0.00  0.00    -0.024 NA
ATOM     32  C   UNL     1      35.164 -22.147 -18.192  0.00  0.00    +0.215 C 
ENDBRANCH  25  28
ENDBRANCH  21  22
ENDBRANCH  20  21
ENDBRANCH   4  20
TORSDOF 6
ENDMDL
MODEL 3
REMARK VINA RESULT:     -12.0      6.939     10.446
REMARK  Name = 25025505
REMARK  6 active torsions:
REMARK  status: ('A' for Active; 'I' for Inactive)
REMARK    1  A    between atoms: C_3  and  C_9
REMARK    2  A    between atoms: C_4  and  C_20
REMARK    3  A    between atoms: C_17  and  C_18
REMARK    4  A    between atoms: C_20  and  O_21
REMARK    5  A    between atoms: O_21  and  C_22
REMARK    6  A    between atoms: C_25  and  N_28
REMARK                            x       y       z     vdW  Elec       q    Type
REMARK                         _______ _______ _______ _____ _____    ______ ____
ROOT
ATOM      1  S   UNL     1      33.867 -15.931 -25.299  0.00  0.00    -0.079 S 
ATOM      2  N   UNL     1      34.260 -15.611 -22.764  0.00  0.00    -0.404 NA
ATOM      3  C   UNL     1      33.757 -15.041 -23.836  0.00  0.00    +0.134 C 
ATOM      4  C   UNL     1      34.773 -16.845 -23.114  0.00  0.00    +0.142 C 
ATOM      5  C   UNL     1      34.653 -17.192 -24.444  0.00  0.00    +0.122 C 
ENDROOT
BRANCH   3   9
ATOM      6  N   UNL     1      32.841 -10.873 -23.165  0.00  0.00    -0.253 N 
ATOM      7  N   UNL     1      33.491  -8.662 -23.545  0.00  0.00    -0.203 NA
ATOM      8  N   UNL     1      31.717  -9.188 -22.002  0.00  0.00    -0.181 NA
ATOM      9  C   UNL     1      33.101 -13.673 -23.852  0.00  0.00    +0.062 C 
ATOM     10  C   UNL     1      32.666 -13.224 -22.449  0.00  0.00    +0.030 C 
ATOM     11  C   UNL     1      34.010 -12.603 -24.474  0.00  0.00    +0.030 C 
ATOM     12  C   UNL     1      31.987 -11.854 -22.486  0.00  0.00    +0.102 C 
ATOM     13  C   UNL     1      33.319 -11.239 -24.505  0.00  0.00    +0.102 C 
ATOM     14  C   UNL     1      32.675  -9.510 -22.892  0.00  0.00    +0.090 C 
ATOM     15  C   UNL     1      33.305  -7.357 -23.257  0.00  0.00    +0.161 C 
ATOM     16  C   UNL     1      31.585  -7.867 -21.761  0.00  0.00    +0.104 C 
ATOM     17  C   UNL     1      32.358  -6.896 -22.364  0.00  0.00    +0.001 C 
BRANCH  17  18
ATOM     18  C   UNL     1      32.184  -5.452 -22.075  0.00  0.00    +0.026 C 
ATOM     19  C   UNL     1      31.138  -4.793 -22.975  0.00  0.00    +0.005 C 
ENDBRANCH  17  18
ENDBRANCH   3   9
BRANCH   4  20
ATOM     20  C   UNL     1      35.395 -17.671 -22.061  0.00  0.00    +0.260 C 
BRANCH  20  21
ATOM     21  O   UNL     1      35.228 -19.055 -22.364  0.00  0.00    -0.468 OA
BRANCH  21  22
ATOM     22  C   UNL     1      34.993 -19.890 -21.307  0.00  0.00    +0.139 C 
ATOM     23  C   UNL     1      36.062 -20.495 -20.644  0.00  0.00    +0.038 C 
ATOM     24  C   UNL     1      33.686 -20.137 -20.890  0.00  0.00    +0.038 C 
ATOM     25  C   UNL     1      34.514 -21.594 -19.151  0.00  0.00    +0.078 C 
ATOM     26  C   UNL     1      35.822 -21.348 -19.566  0.00  0.00    +0.020 C 
ATOM     27  C   UNL     1      33.445 -20.989 -19.812  0.00  0.00    +0.020 C 
BRANCH  25  28
ATOM     28  N   UNL     1      34.276 -22.439 -18.082  0.00  0.00    -0.149 N 
ATOM     29  N   UNL     1      35.255 -22.861 -17.269  0.00  0.00    -0.048 NA
ATOM     30  N   UNL     1      33.298 -23.714 -16.626  0.00  0.00    -0.107 NA
ATOM     31  N   UNL     1      34.651 -23.641 -16.381  0.00  0.00    -0.024 NA
ATOM     32  C   UNL     1      33.088 -22.963 -17.682  0.00  0.00    +0.215 C 
ENDBRANCH  25  28
ENDBRANCH  21  22
ENDBRANCH  20  21
ENDBRANCH   4  20
TORSDOF 6
ENDMDL
MODEL 4
REMARK VINA RESULT:     -12.0      7.233     10.598
REMARK  Name = 25025505
REMARK  6 active torsions:
REMARK  status: ('A' for Active; 'I' for Inactive)
REMARK    1  A    between atoms: C_3  and  C_9
REMARK    2  A    between atoms: C_4  and  C_20
REMARK    3  A    between atoms: C_17  and  C_18
REMARK    4  A    between atoms: C_20  and  O_21
REMARK    5  A    between atoms: O_21  and  C_22
REMARK    6  A    between atoms: C_25  and  N_28
REMARK                            x       y       z     vdW  Elec       q    Type
REMARK                         _______ _______ _______ _____ _____    ______ ____
ROOT
ATOM      1  S   UNL     1      32.852 -14.911 -20.603  0.00  0.00    -0.079 S 
ATOM      2  N   UNL     1      34.027 -15.354 -22.862  0.00  0.00    -0.404 NA
ATOM      3  C   UNL     1      33.262 -14.501 -22.218  0.00  0.00    +0.134 C 
ATOM      4  C   UNL     1      34.317 -16.413 -22.025  0.00  0.00    +0.142 C 
ATOM      5  C   UNL     1      33.769 -16.351 -20.761  0.00  0.00    +0.122 C 
ENDROOT
BRANCH   3   9
ATOM      6  N   UNL     1      32.493 -10.333 -23.050  0.00  0.00    -0.253 N 
ATOM      7  N   UNL     1      33.376  -8.321 -23.843  0.00  0.00    -0.203 NA
ATOM      8  N   UNL     1      31.213  -8.397 -22.784  0.00  0.00    -0.181 NA
ATOM      9  C   UNL     1      32.733 -13.207 -22.809  0.00  0.00    +0.062 C 
ATOM     10  C   UNL     1      31.961 -12.374 -21.775  0.00  0.00    +0.030 C 
ATOM     11  C   UNL     1      33.852 -12.354 -23.425  0.00  0.00    +0.030 C 
ATOM     12  C   UNL     1      31.417 -11.084 -22.392  0.00  0.00    +0.102 C 
ATOM     13  C   UNL     1      33.294 -11.069 -24.038  0.00  0.00    +0.102 C 
ATOM     14  C   UNL     1      32.354  -8.952 -23.235  0.00  0.00    +0.090 C 
ATOM     15  C   UNL     1      33.210  -6.992 -24.003  0.00  0.00    +0.161 C 
ATOM     16  C   UNL     1      31.113  -7.065 -22.977  0.00  0.00    +0.104 C 
ATOM     17  C   UNL     1      32.089  -6.303 -23.586  0.00  0.00    +0.001 C 
BRANCH  17  18
ATOM     18  C   UNL     1      31.944  -4.841 -23.781  0.00  0.00    +0.026 C 
ATOM     19  C   UNL     1      30.818  -4.485 -24.753  0.00  0.00    +0.005 C 
ENDBRANCH  17  18
ENDBRANCH   3   9
BRANCH   4  20
ATOM     20  C   UNL     1      35.171 -17.502 -22.541  0.00  0.00    +0.260 C 
BRANCH  20  21
ATOM     21  O   UNL     1      34.408 -18.702 -22.665  0.00  0.00    -0.468 OA
BRANCH  21  22
ATOM     22  C   UNL     1      34.448 -19.565 -21.605  0.00  0.00    +0.139 C 
ATOM     23  C   UNL     1      35.675 -20.022 -21.122  0.00  0.00    +0.038 C 
ATOM     24  C   UNL     1      33.263 -19.989 -21.005  0.00  0.00    +0.038 C 
ATOM     25  C   UNL     1      34.530 -21.327 -19.443  0.00  0.00    +0.078 C 
ATOM     26  C   UNL     1      35.716 -20.903 -20.041  0.00  0.00    +0.020 C 
ATOM     27  C   UNL     1      33.303 -20.870 -19.924  0.00  0.00    +0.020 C 
BRANCH  25  28
ATOM     28  N   UNL     1      34.571 -22.200 -18.371  0.00  0.00    -0.149 N 
ATOM     29  N   UNL     1      35.686 -22.410 -17.659  0.00  0.00    -0.048 NA
ATOM     30  N   UNL     1      34.013 -23.645 -16.853  0.00  0.00    -0.107 NA
ATOM     31  N   UNL     1      35.340 -23.295 -16.732  0.00  0.00    -0.024 NA
ATOM     32  C   UNL     1      33.557 -22.956 -17.873  0.00  0.00    +0.215 C 
ENDBRANCH  25  28
ENDBRANCH  21  22
ENDBRANCH  20  21
ENDBRANCH   4  20
TORSDOF 6
ENDMDL
MODEL 5
REMARK VINA RESULT:     -11.8      6.354     10.021
REMARK  Name = 25025505
REMARK  6 active torsions:
REMARK  status: ('A' for Active; 'I' for Inactive)
REMARK    1  A    between atoms: C_3  and  C_9
REMARK    2  A    between atoms: C_4  and  C_20
REMARK    3  A    between atoms: C_17  and  C_18
REMARK    4  A    between atoms: C_20  and  O_21
REMARK    5  A    between atoms: O_21  and  C_22
REMARK    6  A    between atoms: C_25  and  N_28
REMARK                            x       y       z     vdW  Elec       q    Type
REMARK                         _______ _______ _______ _____ _____    ______ ____
ROOT
ATOM      1  S   UNL     1      34.304 -16.821 -25.052  0.00  0.00    -0.079 S 
ATOM      2  N   UNL     1      34.400 -16.460 -22.494  0.00  0.00    -0.404 NA
ATOM      3  C   UNL     1      34.003 -15.919 -23.624  0.00  0.00    +0.134 C 
ATOM      4  C   UNL     1      34.989 -17.679 -22.767  0.00  0.00    +0.142 C 
ATOM      5  C   UNL     1      35.029 -18.046 -24.096  0.00  0.00    +0.122 C 
ENDROOT
BRANCH   3   9
ATOM      6  N   UNL     1      32.975 -11.740 -23.246  0.00  0.00    -0.253 N 
ATOM      7  N   UNL     1      33.562  -9.545 -23.785  0.00  0.00    -0.203 NA
ATOM      8  N   UNL     1      31.808 -10.008 -22.200  0.00  0.00    -0.181 NA
ATOM      9  C   UNL     1      33.309 -14.574 -23.733  0.00  0.00    +0.062 C 
ATOM     10  C   UNL     1      32.866 -14.038 -22.364  0.00  0.00    +0.030 C 
ATOM     11  C   UNL     1      34.186 -13.526 -24.435  0.00  0.00    +0.030 C 
ATOM     12  C   UNL     1      32.149 -12.694 -22.495  0.00  0.00    +0.102 C 
ATOM     13  C   UNL     1      33.458 -12.188 -24.559  0.00  0.00    +0.102 C 
ATOM     14  C   UNL     1      32.771 -10.366 -23.069  0.00  0.00    +0.090 C 
ATOM     15  C   UNL     1      33.341  -8.228 -23.589  0.00  0.00    +0.161 C 
ATOM     16  C   UNL     1      31.640  -8.677 -22.053  0.00  0.00    +0.104 C 
ATOM     17  C   UNL     1      32.385  -7.731 -22.727  0.00  0.00    +0.001 C 
BRANCH  17  18
ATOM     18  C   UNL     1      32.171  -6.276 -22.539  0.00  0.00    +0.026 C 
ATOM     19  C   UNL     1      31.729  -5.923 -21.118  0.00  0.00    +0.005 C 
ENDBRANCH  17  18
ENDBRANCH   3   9
BRANCH   4  20
ATOM     20  C   UNL     1      35.515 -18.473 -21.638  0.00  0.00    +0.260 C 
BRANCH  20  21
ATOM     21  O   UNL     1      34.913 -19.767 -21.629  0.00  0.00    -0.468 OA
BRANCH  21  22
ATOM     22  C   UNL     1      35.088 -20.515 -20.498  0.00  0.00    +0.139 C 
ATOM     23  C   UNL     1      33.999 -21.166 -19.916  0.00  0.00    +0.038 C 
ATOM     24  C   UNL     1      36.354 -20.630 -19.926  0.00  0.00    +0.038 C 
ATOM     25  C   UNL     1      35.444 -22.042 -18.191  0.00  0.00    +0.078 C 
ATOM     26  C   UNL     1      34.177 -21.928 -18.762  0.00  0.00    +0.020 C 
ATOM     27  C   UNL     1      36.533 -21.393 -18.772  0.00  0.00    +0.020 C 
BRANCH  25  28
ATOM     28  N   UNL     1      35.621 -22.799 -17.046  0.00  0.00    -0.149 N 
ATOM     29  N   UNL     1      34.737 -23.728 -16.657  0.00  0.00    -0.048 NA
ATOM     30  N   UNL     1      36.436 -23.629 -15.216  0.00  0.00    -0.107 NA
ATOM     31  N   UNL     1      35.240 -24.234 -15.538  0.00  0.00    -0.024 NA
ATOM     32  C   UNL     1      36.652 -22.746 -16.163  0.00  0.00    +0.215 C 
ENDBRANCH  25  28
ENDBRANCH  21  22
ENDBRANCH  20  21
ENDBRANCH   4  20
TORSDOF 6
ENDMDL
MODEL 6
REMARK VINA RESULT:     -11.7      5.410      8.786
REMARK  Name = 25025505
REMARK  6 active torsions:
REMARK  status: ('A' for Active; 'I' for Inactive)
REMARK    1  A    between atoms: C_3  and  C_9
REMARK    2  A    between atoms: C_4  and  C_20
REMARK    3  A    between atoms: C_17  and  C_18
REMARK    4  A    between atoms: C_20  and  O_21
REMARK    5  A    between atoms: O_21  and  C_22
REMARK    6  A    between atoms: C_25  and  N_28
REMARK                            x       y       z     vdW  Elec       q    Type
REMARK                         _______ _______ _______ _____ _____    ______ ____
ROOT
ATOM      1  S   UNL     1      35.142 -18.285 -22.862  0.00  0.00    -0.079 S 
ATOM      2  N   UNL     1      33.559 -18.174 -20.821  0.00  0.00    -0.404 NA
ATOM      3  C   UNL     1      34.215 -17.439 -21.692  0.00  0.00    +0.134 C 
ATOM      4  C   UNL     1      33.801 -19.506 -21.090  0.00  0.00    +0.142 C 
ATOM      5  C   UNL     1      34.635 -19.764 -22.159  0.00  0.00    +0.122 C 
ENDROOT
BRANCH   3   9
ATOM      6  N   UNL     1      33.110 -13.316 -22.353  0.00  0.00    -0.253 N 
ATOM      7  N   UNL     1      31.606 -11.606 -21.831  0.00  0.00    -0.203 NA
ATOM      8  N   UNL     1      33.221 -11.343 -23.600  0.00  0.00    -0.181 NA
ATOM      9  C   UNL     1      34.198 -15.922 -21.719  0.00  0.00    +0.062 C 
ATOM     10  C   UNL     1      34.211 -15.370 -23.153  0.00  0.00    +0.030 C 
ATOM     11  C   UNL     1      32.997 -15.343 -20.957  0.00  0.00    +0.030 C 
ATOM     12  C   UNL     1      34.216 -13.841 -23.162  0.00  0.00    +0.102 C 
ATOM     13  C   UNL     1      33.014 -13.814 -20.974  0.00  0.00    +0.102 C 
ATOM     14  C   UNL     1      32.623 -12.028 -22.606  0.00  0.00    +0.090 C 
ATOM     15  C   UNL     1      31.161 -10.361 -22.103  0.00  0.00    +0.161 C 
ATOM     16  C   UNL     1      32.727 -10.107 -23.818  0.00  0.00    +0.104 C 
ATOM     17  C   UNL     1      31.687  -9.558 -23.094  0.00  0.00    +0.001 C 
BRANCH  17  18
ATOM     18  C   UNL     1      31.171  -8.195 -23.362  0.00  0.00    +0.026 C 
ATOM     19  C   UNL     1      31.528  -7.201 -22.256  0.00  0.00    +0.005 C 
ENDBRANCH  17  18
ENDBRANCH   3   9
BRANCH   4  20
ATOM     20  C   UNL     1      33.162 -20.523 -20.231  0.00  0.00    +0.260 C 
BRANCH  20  21
ATOM     21  O   UNL     1      33.953 -21.711 -20.211  0.00  0.00    -0.468 OA
BRANCH  21  22
ATOM     22  C   UNL     1      34.561 -22.021 -19.026  0.00  0.00    +0.139 C 
ATOM     23  C   UNL     1      35.872 -21.609 -18.784  0.00  0.00    +0.038 C 
ATOM     24  C   UNL     1      33.871 -22.751 -18.058  0.00  0.00    +0.038 C 
ATOM     25  C   UNL     1      35.801 -22.656 -16.609  0.00  0.00    +0.078 C 
ATOM     26  C   UNL     1      36.492 -21.926 -17.576  0.00  0.00    +0.020 C 
ATOM     27  C   UNL     1      34.490 -23.068 -16.849  0.00  0.00    +0.020 C 
BRANCH  25  28
ATOM     28  N   UNL     1      36.416 -22.970 -15.411  0.00  0.00    -0.149 N 
ATOM     29  N   UNL     1      37.747 -23.071 -15.292  0.00  0.00    -0.048 NA
ATOM     30  N   UNL     1      36.766 -23.477 -13.331  0.00  0.00    -0.107 NA
ATOM     31  N   UNL     1      37.956 -23.381 -14.018  0.00  0.00    -0.024 NA
ATOM     32  C   UNL     1      35.827 -23.219 -14.211  0.00  0.00    +0.215 C 
ENDBRANCH  25  28
ENDBRANCH  21  22
ENDBRANCH  20  21
ENDBRANCH   4  20
TORSDOF 6
ENDMDL
MODEL 7
REMARK VINA RESULT:     -11.4      5.204      8.695
REMARK  Name = 25025505
REMARK  6 active torsions:
REMARK  status: ('A' for Active; 'I' for Inactive)
REMARK    1  A    between atoms: C_3  and  C_9
REMARK    2  A    between atoms: C_4  and  C_20
REMARK    3  A    between atoms: C_17  and  C_18
REMARK    4  A    between atoms: C_20  and  O_21
REMARK    5  A    between atoms: O_21  and  C_22
REMARK    6  A    between atoms: C_25  and  N_28
REMARK                            x       y       z     vdW  Elec       q    Type
REMARK                         _______ _______ _______ _____ _____    ______ ____
ROOT
ATOM      1  S   UNL     1      35.789 -18.083 -22.516  0.00  0.00    -0.079 S 
ATOM      2  N   UNL     1      33.610 -18.470 -21.181  0.00  0.00    -0.404 NA
ATOM      3  C   UNL     1      34.208 -17.645 -22.011  0.00  0.00    +0.134 C 
ATOM      4  C   UNL     1      34.454 -19.530 -20.919  0.00  0.00    +0.142 C 
ATOM      5  C   UNL     1      35.680 -19.496 -21.551  0.00  0.00    +0.122 C 
ENDROOT
BRANCH   3   9
ATOM      6  N   UNL     1      33.388 -13.492 -22.869  0.00  0.00    -0.253 N 
ATOM      7  N   UNL     1      34.124 -11.555 -23.947  0.00  0.00    -0.203 NA
ATOM      8  N   UNL     1      32.258 -11.496 -22.424  0.00  0.00    -0.181 NA
ATOM      9  C   UNL     1      33.596 -16.359 -22.535  0.00  0.00    +0.062 C 
ATOM     10  C   UNL     1      33.104 -15.449 -21.399  0.00  0.00    +0.030 C 
ATOM     11  C   UNL     1      34.568 -15.580 -23.433  0.00  0.00    +0.030 C 
ATOM     12  C   UNL     1      32.471 -14.169 -21.945  0.00  0.00    +0.102 C 
ATOM     13  C   UNL     1      33.922 -14.304 -23.971  0.00  0.00    +0.102 C 
ATOM     14  C   UNL     1      33.250 -12.117 -23.091  0.00  0.00    +0.090 C 
ATOM     15  C   UNL     1      33.963 -10.229 -24.137  0.00  0.00    +0.161 C 
ATOM     16  C   UNL     1      32.155 -10.172 -22.660  0.00  0.00    +0.104 C 
ATOM     17  C   UNL     1      32.988  -9.478 -23.514  0.00  0.00    +0.001 C 
BRANCH  17  18
ATOM     18  C   UNL     1      32.843  -8.021 -23.749  0.00  0.00    +0.026 C 
ATOM     19  C   UNL     1      34.135  -7.249 -23.475  0.00  0.00    +0.005 C 
ENDBRANCH  17  18
ENDBRANCH   3   9
BRANCH   4  20
ATOM     20  C   UNL     1      33.987 -20.590 -20.003  0.00  0.00    +0.260 C 
BRANCH  20  21
ATOM     21  O   UNL     1      34.974 -21.615 -19.898  0.00  0.00    -0.468 OA
BRANCH  21  22
ATOM     22  C   UNL     1      35.346 -21.979 -18.634  0.00  0.00    +0.139 C 
ATOM     23  C   UNL     1      34.475 -22.723 -17.836  0.00  0.00    +0.038 C 
ATOM     24  C   UNL     1      36.597 -21.608 -18.140  0.00  0.00    +0.038 C 
ATOM     25  C   UNL     1      36.105 -22.722 -16.054  0.00  0.00    +0.078 C 
ATOM     26  C   UNL     1      34.855 -23.094 -16.547  0.00  0.00    +0.020 C 
ATOM     27  C   UNL     1      36.977 -21.979 -16.850  0.00  0.00    +0.020 C 
BRANCH  25  28
ATOM     28  N   UNL     1      36.481 -23.091 -14.775  0.00  0.00    -0.149 N 
ATOM     29  N   UNL     1      37.765 -23.216 -14.413  0.00  0.00    -0.048 NA
ATOM     30  N   UNL     1      36.430 -23.680 -12.688  0.00  0.00    -0.107 NA
ATOM     31  N   UNL     1      37.729 -23.576 -13.136  0.00  0.00    -0.024 NA
ATOM     32  C   UNL     1      35.675 -23.375 -13.718  0.00  0.00    +0.215 C 
ENDBRANCH  25  28
ENDBRANCH  21  22
ENDBRANCH  20  21
ENDBRANCH   4  20
TORSDOF 6
ENDMDL
MODEL 8
REMARK VINA RESULT:     -11.4      6.042     11.189
REMARK  Name = 25025505
REMARK  6 active torsions:
REMARK  status: ('A' for Active; 'I' for Inactive)
REMARK    1  A    between atoms: C_3  and  C_9
REMARK    2  A    between atoms: C_4  and  C_20
REMARK    3  A    between atoms: C_17  and  C_18
REMARK    4  A    between atoms: C_20  and  O_21
REMARK    5  A    between atoms: O_21  and  C_22
REMARK    6  A    between atoms: C_25  and  N_28
REMARK                            x       y       z     vdW  Elec       q    Type
REMARK                         _______ _______ _______ _____ _____    ______ ____
ROOT
ATOM      1  S   UNL     1      34.956 -19.217 -23.599  0.00  0.00    -0.079 S 
ATOM      2  N   UNL     1      34.825 -17.794 -21.446  0.00  0.00    -0.404 NA
ATOM      3  C   UNL     1      35.014 -19.013 -21.896  0.00  0.00    +0.134 C 
ATOM      4  C   UNL     1      34.618 -16.949 -22.518  0.00  0.00    +0.142 C 
ATOM      5  C   UNL     1      34.653 -17.537 -23.765  0.00  0.00    +0.122 C 
ENDROOT
BRANCH   3   9
ATOM      6  N   UNL     1      35.439 -21.666 -18.514  0.00  0.00    -0.253 N 
ATOM      7  N   UNL     1      34.339 -22.811 -16.800  0.00  0.00    -0.203 NA
ATOM      8  N   UNL     1      36.745 -22.693 -16.871  0.00  0.00    -0.181 NA
ATOM      9  C   UNL     1      35.274 -20.222 -21.017  0.00  0.00    +0.062 C 
ATOM     10  C   UNL     1      36.414 -19.976 -20.018  0.00  0.00    +0.030 C 
ATOM     11  C   UNL     1      34.015 -20.668 -20.259  0.00  0.00    +0.030 C 
ATOM     12  C   UNL     1      36.678 -21.211 -19.156  0.00  0.00    +0.102 C 
ATOM     13  C   UNL     1      34.292 -21.903 -19.402  0.00  0.00    +0.102 C 
ATOM     14  C   UNL     1      35.511 -22.426 -17.340  0.00  0.00    +0.090 C 
ATOM     15  C   UNL     1      34.446 -23.540 -15.670  0.00  0.00    +0.161 C 
ATOM     16  C   UNL     1      36.777 -23.425 -15.739  0.00  0.00    +0.104 C 
ATOM     17  C   UNL     1      35.649 -23.880 -15.087  0.00  0.00    +0.001 C 
BRANCH  17  18
ATOM     18  C   UNL     1      35.724 -24.684 -13.844  0.00  0.00    +0.026 C 
ATOM     19  C   UNL     1      34.871 -24.104 -12.714  0.00  0.00    +0.005 C 
ENDBRANCH  17  18
ENDBRANCH   3   9
BRANCH   4  20
ATOM     20  C   UNL     1      34.382 -15.516 -22.248  0.00  0.00    +0.260 C 
BRANCH  20  21
ATOM     21  O   UNL     1      33.578 -14.951 -23.283  0.00  0.00    -0.468 OA
BRANCH  21  22
ATOM     22  C   UNL     1      33.214 -13.642 -23.129  0.00  0.00    +0.139 C 
ATOM     23  C   UNL     1      33.780 -12.660 -23.943  0.00  0.00    +0.038 C 
ATOM     24  C   UNL     1      32.278 -13.287 -22.159  0.00  0.00    +0.038 C 
ATOM     25  C   UNL     1      32.474 -10.971 -22.816  0.00  0.00    +0.078 C 
ATOM     26  C   UNL     1      33.410 -11.324 -23.786  0.00  0.00    +0.020 C 
ATOM     27  C   UNL     1      31.907 -11.951 -22.002  0.00  0.00    +0.020 C 
BRANCH  25  28
ATOM     28  N   UNL     1      32.106  -9.646 -22.660  0.00  0.00    -0.149 N 
ATOM     29  N   UNL     1      31.697  -8.890 -23.688  0.00  0.00    -0.048 NA
ATOM     30  N   UNL     1      31.679  -7.701 -21.802  0.00  0.00    -0.107 NA
ATOM     31  N   UNL     1      31.437  -7.701 -23.157  0.00  0.00    -0.024 NA
ATOM     32  C   UNL     1      32.092  -8.914 -21.515  0.00  0.00    +0.215 C 
ENDBRANCH  25  28
ENDBRANCH  21  22
ENDBRANCH  20  21
ENDBRANCH   4  20
TORSDOF 6
ENDMDL
MODEL 9
REMARK VINA RESULT:     -11.2      4.547      6.949
REMARK  Name = 25025505
REMARK  6 active torsions:
REMARK  status: ('A' for Active; 'I' for Inactive)
REMARK    1  A    between atoms: C_3  and  C_9
REMARK    2  A    between atoms: C_4  and  C_20
REMARK    3  A    between atoms: C_17  and  C_18
REMARK    4  A    between atoms: C_20  and  O_21
REMARK    5  A    between atoms: O_21  and  C_22
REMARK    6  A    between atoms: C_25  and  N_28
REMARK                            x       y       z     vdW  Elec       q    Type
REMARK                         _______ _______ _______ _____ _____    ______ ____
ROOT
ATOM      1  S   UNL     1      36.331 -18.557 -21.229  0.00  0.00    -0.079 S 
ATOM      2  N   UNL     1      34.036 -19.700 -20.902  0.00  0.00    -0.404 NA
ATOM      3  C   UNL     1      34.618 -18.602 -21.328  0.00  0.00    +0.134 C 
ATOM      4  C   UNL     1      35.007 -20.578 -20.463  0.00  0.00    +0.142 C 
ATOM      5  C   UNL     1      36.310 -20.136 -20.561  0.00  0.00    +0.122 C 
ENDROOT
BRANCH   3   9
ATOM      6  N   UNL     1      33.459 -14.587 -22.422  0.00  0.00    -0.253 N 
ATOM      7  N   UNL     1      33.968 -12.708 -23.713  0.00  0.00    -0.203 NA
ATOM      8  N   UNL     1      32.249 -12.628 -22.027  0.00  0.00    -0.181 NA
ATOM      9  C   UNL     1      33.880 -17.400 -21.888  0.00  0.00    +0.062 C 
ATOM     10  C   UNL     1      33.436 -16.428 -20.785  0.00  0.00    +0.030 C 
ATOM     11  C   UNL     1      34.714 -16.645 -22.934  0.00  0.00    +0.030 C 
ATOM     12  C   UNL     1      32.675 -15.236 -21.365  0.00  0.00    +0.102 C 
ATOM     13  C   UNL     1      33.941 -15.456 -23.505  0.00  0.00    +0.102 C 
ATOM     14  C   UNL     1      33.213 -13.245 -22.736  0.00  0.00    +0.090 C 
ATOM     15  C   UNL     1      33.706 -11.413 -23.989  0.00  0.00    +0.161 C 
ATOM     16  C   UNL     1      32.040 -11.336 -22.354  0.00  0.00    +0.104 C 
ATOM     17  C   UNL     1      32.745 -10.669 -23.335  0.00  0.00    +0.001 C 
BRANCH  17  18
ATOM     18  C   UNL     1      32.487  -9.248 -23.667  0.00  0.00    +0.026 C 
ATOM     19  C   UNL     1      33.612  -8.321 -23.205  0.00  0.00    +0.005 C 
ENDBRANCH  17  18
ENDBRANCH   3   9
BRANCH   4  20
ATOM     20  C   UNL     1      34.580 -21.890 -19.936  0.00  0.00    +0.260 C 
BRANCH  20  21
ATOM     21  O   UNL     1      35.273 -22.176 -18.721  0.00  0.00    -0.468 OA
BRANCH  21  22
ATOM     22  C   UNL     1      34.511 -22.600 -17.668  0.00  0.00    +0.139 C 
ATOM     23  C   UNL     1      35.095 -22.793 -16.415  0.00  0.00    +0.038 C 
ATOM     24  C   UNL     1      33.148 -22.840 -17.844  0.00  0.00    +0.038 C 
ATOM     25  C   UNL     1      32.957 -23.466 -15.519  0.00  0.00    +0.078 C 
ATOM     26  C   UNL     1      34.318 -23.226 -15.341  0.00  0.00    +0.020 C 
ATOM     27  C   UNL     1      32.370 -23.273 -16.770  0.00  0.00    +0.020 C 
BRANCH  25  28
ATOM     28  N   UNL     1      32.186 -23.896 -14.454  0.00  0.00    -0.149 N 
ATOM     29  N   UNL     1      32.015 -25.194 -14.169  0.00  0.00    -0.048 NA
ATOM     30  N   UNL     1      30.901 -23.932 -12.707  0.00  0.00    -0.107 NA
ATOM     31  N   UNL     1      31.229 -25.211 -13.100  0.00  0.00    -0.024 NA
ATOM     32  C   UNL     1      31.504 -23.135 -13.558  0.00  0.00    +0.215 C 
ENDBRANCH  25  28
ENDBRANCH  21  22
ENDBRANCH  20  21
ENDBRANCH   4  20
TORSDOF 6
ENDMDL
