MODEL 1
REMARK VINA RESULT:      -6.9      0.000      0.000
REMARK  Name = 40472480
REMARK  4 active torsions:
REMARK  status: ('A' for Active; 'I' for Inactive)
REMARK    1  A    between atoms: C_1  and  N_2
REMARK    2  A    between atoms: C_1  and  C_6
REMARK    3  A    between atoms: C_1  and  C_8
REMARK    4  A    between atoms: C_8  and  C_9
REMARK                            x       y       z     vdW  Elec       q    Type
REMARK                         _______ _______ _______ _____ _____    ______ ____
ROOT
ATOM      1  C   UNL     1      35.069 -18.088 -22.731  0.00  0.00    -0.061 C 
ENDROOT
BRANCH   1   2
ATOM      2  N   UNL     1      35.680 -16.804 -23.096  0.00  0.00    +0.382 N 
ATOM      3  H   UNL     1      35.412 -16.558 -24.049  0.00  0.00    -0.089 HD
ATOM      4  H   UNL     1      36.694 -16.881 -23.037  0.00  0.00    -0.089 HD
ATOM      5  H   UNL     1      35.356 -16.079 -22.454  0.00  0.00    -0.089 HD
ENDBRANCH   1   2
BRANCH   1   6
ATOM      6  C   UNL     1      34.995 -19.001 -23.970  0.00  0.00    -0.022 C 
ATOM      7  C   UNL     1      34.286 -18.355 -25.154  0.00  0.00    -0.002 C 
ENDBRANCH   1   6
BRANCH   1   8
ATOM      8  C   UNL     1      35.888 -18.722 -21.589  0.00  0.00    +0.004 C 
BRANCH   8   9
ATOM      9  C   UNL     1      35.136 -19.773 -20.808  0.00  0.00    -0.024 C 
ATOM     10  C   UNL     1      35.832 -20.786 -20.149  0.00  0.00    -0.004 C 
ATOM     11  C   UNL     1      33.744 -19.728 -20.743  0.00  0.00    -0.004 C 
ATOM     12  C   UNL     1      35.136 -21.756 -19.428  0.00  0.00    -0.000 C 
ATOM     13  C   UNL     1      33.047 -20.698 -20.021  0.00  0.00    -0.000 C 
ATOM     14  C   UNL     1      33.743 -21.712 -19.365  0.00  0.00    -0.000 C 
ENDBRANCH   8   9
ENDBRANCH   1   8
TORSDOF 4
ENDMDL
MODEL 2
REMARK VINA RESULT:      -6.9      0.036      1.457
REMARK  Name = 40472480
REMARK  4 active torsions:
REMARK  status: ('A' for Active; 'I' for Inactive)
REMARK    1  A    between atoms: C_1  and  N_2
REMARK    2  A    between atoms: C_1  and  C_6
REMARK    3  A    between atoms: C_1  and  C_8
REMARK    4  A    between atoms: C_8  and  C_9
REMARK                            x       y       z     vdW  Elec       q    Type
REMARK                         _______ _______ _______ _____ _____    ______ ____
ROOT
ATOM      1  C   UNL     1      35.071 -18.072 -22.757  0.00  0.00    -0.061 C 
ENDROOT
BRANCH   1   2
ATOM      2  N   UNL     1      35.688 -16.799 -23.149  0.00  0.00    +0.382 N 
ATOM      3  H   UNL     1      35.787 -16.203 -22.327  0.00  0.00    -0.089 HD
ATOM      4  H   UNL     1      35.098 -16.333 -23.838  0.00  0.00    -0.089 HD
ATOM      5  H   UNL     1      36.608 -16.977 -23.552  0.00  0.00    -0.089 HD
ENDBRANCH   1   2
BRANCH   1   6
ATOM      6  C   UNL     1      35.001 -19.014 -23.975  0.00  0.00    -0.022 C 
ATOM      7  C   UNL     1      34.288 -18.398 -25.174  0.00  0.00    -0.002 C 
ENDBRANCH   1   6
BRANCH   1   8
ATOM      8  C   UNL     1      35.883 -18.682 -21.596  0.00  0.00    +0.004 C 
BRANCH   8   9
ATOM      9  C   UNL     1      35.135 -19.738 -20.818  0.00  0.00    -0.024 C 
ATOM     10  C   UNL     1      33.742 -19.707 -20.758  0.00  0.00    -0.004 C 
ATOM     11  C   UNL     1      35.839 -20.746 -20.160  0.00  0.00    -0.004 C 
ATOM     12  C   UNL     1      33.052 -20.683 -20.039  0.00  0.00    -0.000 C 
ATOM     13  C   UNL     1      35.149 -21.723 -19.440  0.00  0.00    -0.000 C 
ATOM     14  C   UNL     1      33.756 -21.691 -19.380  0.00  0.00    -0.000 C 
ENDBRANCH   8   9
ENDBRANCH   1   8
TORSDOF 4
ENDMDL
MODEL 3
REMARK VINA RESULT:      -6.8      1.392      2.076
REMARK  Name = 40472480
REMARK  4 active torsions:
REMARK  status: ('A' for Active; 'I' for Inactive)
REMARK    1  A    between atoms: C_1  and  N_2
REMARK    2  A    between atoms: C_1  and  C_6
REMARK    3  A    between atoms: C_1  and  C_8
REMARK    4  A    between atoms: C_8  and  C_9
REMARK                            x       y       z     vdW  Elec       q    Type
REMARK                         _______ _______ _______ _____ _____    ______ ____
ROOT
ATOM      1  C   UNL     1      35.323 -17.591 -21.726  0.00  0.00    -0.061 C 
ENDROOT
BRANCH   1   2
ATOM      2  N   UNL     1      35.719 -17.124 -23.060  0.00  0.00    +0.382 N 
ATOM      3  H   UNL     1      36.593 -17.573 -23.332  0.00  0.00    -0.089 HD
ATOM      4  H   UNL     1      35.848 -16.113 -23.042  0.00  0.00    -0.089 HD
ATOM      5  H   UNL     1      34.991 -17.362 -23.733  0.00  0.00    -0.089 HD
ENDBRANCH   1   2
BRANCH   1   6
ATOM      6  C   UNL     1      34.820 -16.402 -20.884  0.00  0.00    -0.022 C 
ATOM      7  C   UNL     1      33.349 -16.076 -21.120  0.00  0.00    -0.002 C 
ENDBRANCH   1   6
BRANCH   1   8
ATOM      8  C   UNL     1      34.250 -18.688 -21.881  0.00  0.00    +0.004 C 
BRANCH   8   9
ATOM      9  C   UNL     1      34.398 -19.829 -20.903  0.00  0.00    -0.024 C 
ATOM     10  C   UNL     1      35.667 -20.301 -20.567  0.00  0.00    -0.004 C 
ATOM     11  C   UNL     1      33.265 -20.409 -20.334  0.00  0.00    -0.004 C 
ATOM     12  C   UNL     1      35.802 -21.355 -19.663  0.00  0.00    -0.000 C 
ATOM     13  C   UNL     1      33.401 -21.463 -19.429  0.00  0.00    -0.000 C 
ATOM     14  C   UNL     1      34.669 -21.936 -19.095  0.00  0.00    -0.000 C 
ENDBRANCH   8   9
ENDBRANCH   1   8
TORSDOF 4
ENDMDL
MODEL 4
REMARK VINA RESULT:      -6.8      1.376      2.448
REMARK  Name = 40472480
REMARK  4 active torsions:
REMARK  status: ('A' for Active; 'I' for Inactive)
REMARK    1  A    between atoms: C_1  and  N_2
REMARK    2  A    between atoms: C_1  and  C_6
REMARK    3  A    between atoms: C_1  and  C_8
REMARK    4  A    between atoms: C_8  and  C_9
REMARK                            x       y       z     vdW  Elec       q    Type
REMARK                         _______ _______ _______ _____ _____    ______ ____
ROOT
ATOM      1  C   UNL     1      35.329 -17.576 -21.809  0.00  0.00    -0.061 C 
ENDROOT
BRANCH   1   2
ATOM      2  N   UNL     1      35.670 -17.066 -23.142  0.00  0.00    +0.382 N 
ATOM      3  H   UNL     1      36.210 -16.206 -23.050  0.00  0.00    -0.089 HD
ATOM      4  H   UNL     1      34.814 -16.876 -23.662  0.00  0.00    -0.089 HD
ATOM      5  H   UNL     1      36.224 -17.763 -23.641  0.00  0.00    -0.089 HD
ENDBRANCH   1   2
BRANCH   1   6
ATOM      6  C   UNL     1      34.841 -16.418 -20.916  0.00  0.00    -0.022 C 
ATOM      7  C   UNL     1      33.365 -16.088 -21.110  0.00  0.00    -0.002 C 
ENDBRANCH   1   6
BRANCH   1   8
ATOM      8  C   UNL     1      34.267 -18.684 -21.956  0.00  0.00    +0.004 C 
BRANCH   8   9
ATOM      9  C   UNL     1      34.408 -19.802 -20.951  0.00  0.00    -0.024 C 
ATOM     10  C   UNL     1      33.271 -20.392 -20.398  0.00  0.00    -0.004 C 
ATOM     11  C   UNL     1      35.676 -20.247 -20.578  0.00  0.00    -0.004 C 
ATOM     12  C   UNL     1      33.403 -21.425 -19.470  0.00  0.00    -0.000 C 
ATOM     13  C   UNL     1      35.807 -21.281 -19.650  0.00  0.00    -0.000 C 
ATOM     14  C   UNL     1      34.671 -21.869 -19.096  0.00  0.00    -0.000 C 
ENDBRANCH   8   9
ENDBRANCH   1   8
TORSDOF 4
ENDMDL
MODEL 5
REMARK VINA RESULT:      -6.7      1.700      4.716
REMARK  Name = 40472480
REMARK  4 active torsions:
REMARK  status: ('A' for Active; 'I' for Inactive)
REMARK    1  A    between atoms: C_1  and  N_2
REMARK    2  A    between atoms: C_1  and  C_6
REMARK    3  A    between atoms: C_1  and  C_8
REMARK    4  A    between atoms: C_8  and  C_9
REMARK                            x       y       z     vdW  Elec       q    Type
REMARK                         _______ _______ _______ _____ _____    ______ ____
ROOT
ATOM      1  C   UNL     1      35.410 -19.866 -20.844  0.00  0.00    -0.061 C 
ENDROOT
BRANCH   1   2
ATOM      2  N   UNL     1      36.663 -19.851 -20.080  0.00  0.00    +0.382 N 
ATOM      3  H   UNL     1      36.533 -19.308 -19.226  0.00  0.00    -0.089 HD
ATOM      4  H   UNL     1      37.399 -19.428 -20.644  0.00  0.00    -0.089 HD
ATOM      5  H   UNL     1      36.925 -20.807 -19.839  0.00  0.00    -0.089 HD
ENDBRANCH   1   2
BRANCH   1   6
ATOM      6  C   UNL     1      34.352 -20.701 -20.097  0.00  0.00    -0.022 C 
ATOM      7  C   UNL     1      32.921 -20.272 -20.399  0.00  0.00    -0.002 C 
ENDBRANCH   1   6
BRANCH   1   8
ATOM      8  C   UNL     1      34.948 -18.412 -21.071  0.00  0.00    +0.004 C 
BRANCH   8   9
ATOM      9  C   UNL     1      34.829 -18.029 -22.527  0.00  0.00    -0.024 C 
ATOM     10  C   UNL     1      34.628 -19.014 -23.494  0.00  0.00    -0.004 C 
ATOM     11  C   UNL     1      34.920 -16.690 -22.904  0.00  0.00    -0.004 C 
ATOM     12  C   UNL     1      34.519 -18.659 -24.839  0.00  0.00    -0.000 C 
ATOM     13  C   UNL     1      34.810 -16.335 -24.249  0.00  0.00    -0.000 C 
ATOM     14  C   UNL     1      34.610 -17.319 -25.216  0.00  0.00    -0.000 C 
ENDBRANCH   8   9
ENDBRANCH   1   8
TORSDOF 4
ENDMDL
MODEL 6
REMARK VINA RESULT:      -6.4      1.707      4.746
REMARK  Name = 40472480
REMARK  4 active torsions:
REMARK  status: ('A' for Active; 'I' for Inactive)
REMARK    1  A    between atoms: C_1  and  N_2
REMARK    2  A    between atoms: C_1  and  C_6
REMARK    3  A    between atoms: C_1  and  C_8
REMARK    4  A    between atoms: C_8  and  C_9
REMARK                            x       y       z     vdW  Elec       q    Type
REMARK                         _______ _______ _______ _____ _____    ______ ____
ROOT
ATOM      1  C   UNL     1      35.503 -20.737 -20.351  0.00  0.00    -0.061 C 
ENDROOT
BRANCH   1   2
ATOM      2  N   UNL     1      36.627 -19.890 -19.933  0.00  0.00    +0.382 N 
ATOM      3  H   UNL     1      36.387 -19.411 -19.065  0.00  0.00    -0.089 HD
ATOM      4  H   UNL     1      36.822 -19.201 -20.658  0.00  0.00    -0.089 HD
ATOM      5  H   UNL     1      37.452 -20.470 -19.784  0.00  0.00    -0.089 HD
ENDBRANCH   1   2
BRANCH   1   6
ATOM      6  C   UNL     1      35.195 -21.775 -19.255  0.00  0.00    -0.022 C 
ATOM      7  C   UNL     1      33.716 -22.131 -19.159  0.00  0.00    -0.002 C 
ENDBRANCH   1   6
BRANCH   1   8
ATOM      8  C   UNL     1      34.288 -19.837 -20.657  0.00  0.00    +0.004 C 
BRANCH   8   9
ATOM      9  C   UNL     1      34.549 -18.800 -21.724  0.00  0.00    -0.024 C 
ATOM     10  C   UNL     1      34.566 -17.445 -21.392  0.00  0.00    -0.004 C 
ATOM     11  C   UNL     1      34.776 -19.199 -23.040  0.00  0.00    -0.004 C 
ATOM     12  C   UNL     1      34.807 -16.489 -22.379  0.00  0.00    -0.000 C 
ATOM     13  C   UNL     1      35.018 -18.242 -24.027  0.00  0.00    -0.000 C 
ATOM     14  C   UNL     1      35.033 -16.888 -23.696  0.00  0.00    -0.000 C 
ENDBRANCH   8   9
ENDBRANCH   1   8
TORSDOF 4
ENDMDL
MODEL 7
REMARK VINA RESULT:      -6.2      2.025      4.839
REMARK  Name = 40472480
REMARK  4 active torsions:
REMARK  status: ('A' for Active; 'I' for Inactive)
REMARK    1  A    between atoms: C_1  and  N_2
REMARK    2  A    between atoms: C_1  and  C_6
REMARK    3  A    between atoms: C_1  and  C_8
REMARK    4  A    between atoms: C_8  and  C_9
REMARK                            x       y       z     vdW  Elec       q    Type
REMARK                         _______ _______ _______ _____ _____    ______ ____
ROOT
ATOM      1  C   UNL     1      34.013 -20.300 -20.268  0.00  0.00    -0.061 C 
ENDROOT
BRANCH   1   2
ATOM      2  N   UNL     1      32.635 -20.449 -20.751  0.00  0.00    +0.382 N 
ATOM      3  H   UNL     1      32.005 -19.915 -20.152  0.00  0.00    -0.089 HD
ATOM      4  H   UNL     1      32.371 -21.434 -20.728  0.00  0.00    -0.089 HD
ATOM      5  H   UNL     1      32.571 -20.102 -21.708  0.00  0.00    -0.089 HD
ENDBRANCH   1   2
BRANCH   1   6
ATOM      6  C   UNL     1      34.412 -21.535 -19.437  0.00  0.00    -0.022 C 
ATOM      7  C   UNL     1      35.894 -21.571 -19.084  0.00  0.00    -0.002 C 
ENDBRANCH   1   6
BRANCH   1   8
ATOM      8  C   UNL     1      34.944 -20.090 -21.479  0.00  0.00    +0.004 C 
BRANCH   8   9
ATOM      9  C   UNL     1      34.908 -18.689 -22.041  0.00  0.00    -0.024 C 
ATOM     10  C   UNL     1      34.873 -17.591 -21.181  0.00  0.00    -0.004 C 
ATOM     11  C   UNL     1      34.911 -18.492 -23.422  0.00  0.00    -0.004 C 
ATOM     12  C   UNL     1      34.839 -16.298 -21.701  0.00  0.00    -0.000 C 
ATOM     13  C   UNL     1      34.878 -17.198 -23.942  0.00  0.00    -0.000 C 
ATOM     14  C   UNL     1      34.842 -16.101 -23.082  0.00  0.00    -0.000 C 
ENDBRANCH   8   9
ENDBRANCH   1   8
TORSDOF 4
ENDMDL
MODEL 8
REMARK VINA RESULT:      -6.2      1.880      4.824
REMARK  Name = 40472480
REMARK  4 active torsions:
REMARK  status: ('A' for Active; 'I' for Inactive)
REMARK    1  A    between atoms: C_1  and  N_2
REMARK    2  A    between atoms: C_1  and  C_6
REMARK    3  A    between atoms: C_1  and  C_8
REMARK    4  A    between atoms: C_8  and  C_9
REMARK                            x       y       z     vdW  Elec       q    Type
REMARK                         _______ _______ _______ _____ _____    ______ ____
ROOT
ATOM      1  C   UNL     1      33.775 -20.278 -20.201  0.00  0.00    -0.061 C 
ENDROOT
BRANCH   1   2
ATOM      2  N   UNL     1      32.535 -20.294 -20.985  0.00  0.00    +0.382 N 
ATOM      3  H   UNL     1      31.835 -19.711 -20.526  0.00  0.00    -0.089 HD
ATOM      4  H   UNL     1      32.188 -21.250 -21.055  0.00  0.00    -0.089 HD
ATOM      5  H   UNL     1      32.720 -19.930 -21.920  0.00  0.00    -0.089 HD
ENDBRANCH   1   2
BRANCH   1   6
ATOM      6  C   UNL     1      33.866 -21.554 -19.342  0.00  0.00    -0.022 C 
ATOM      7  C   UNL     1      35.298 -21.955 -19.008  0.00  0.00    -0.002 C 
ENDBRANCH   1   6
BRANCH   1   8
ATOM      8  C   UNL     1      34.971 -20.140 -21.165  0.00  0.00    +0.004 C 
BRANCH   8   9
ATOM      9  C   UNL     1      34.953 -18.870 -21.982  0.00  0.00    -0.024 C 
ATOM     10  C   UNL     1      34.910 -18.937 -23.375  0.00  0.00    -0.004 C 
ATOM     11  C   UNL     1      34.977 -17.631 -21.344  0.00  0.00    -0.004 C 
ATOM     12  C   UNL     1      34.893 -17.764 -24.130  0.00  0.00    -0.000 C 
ATOM     13  C   UNL     1      34.959 -16.457 -22.099  0.00  0.00    -0.000 C 
ATOM     14  C   UNL     1      34.917 -16.524 -23.491  0.00  0.00    -0.000 C 
ENDBRANCH   8   9
ENDBRANCH   1   8
TORSDOF 4
ENDMDL
MODEL 9
REMARK VINA RESULT:      -6.2      3.066      5.235
REMARK  Name = 40472480
REMARK  4 active torsions:
REMARK  status: ('A' for Active; 'I' for Inactive)
REMARK    1  A    between atoms: C_1  and  N_2
REMARK    2  A    between atoms: C_1  and  C_6
REMARK    3  A    between atoms: C_1  and  C_8
REMARK    4  A    between atoms: C_8  and  C_9
REMARK                            x       y       z     vdW  Elec       q    Type
REMARK                         _______ _______ _______ _____ _____    ______ ____
ROOT
ATOM      1  C   UNL     1      35.080 -18.225 -22.066  0.00  0.00    -0.061 C 
ENDROOT
BRANCH   1   2
ATOM      2  N   UNL     1      36.383 -18.269 -22.739  0.00  0.00    +0.382 N 
ATOM      3  H   UNL     1      36.342 -17.718 -23.597  0.00  0.00    -0.089 HD
ATOM      4  H   UNL     1      36.616 -19.235 -22.967  0.00  0.00    -0.089 HD
ATOM      5  H   UNL     1      37.098 -17.884 -22.122  0.00  0.00    -0.089 HD
ENDBRANCH   1   2
BRANCH   1   6
ATOM      6  C   UNL     1      34.812 -19.567 -21.358  0.00  0.00    -0.022 C 
ATOM      7  C   UNL     1      33.376 -19.714 -20.869  0.00  0.00    -0.002 C 
ENDBRANCH   1   6
BRANCH   1   8
ATOM      8  C   UNL     1      35.070 -17.037 -21.082  0.00  0.00    +0.004 C 
BRANCH   8   9
ATOM      9  C   UNL     1      34.249 -15.860 -21.554  0.00  0.00    -0.024 C 
ATOM     10  C   UNL     1      34.562 -15.229 -22.758  0.00  0.00    -0.004 C 
ATOM     11  C   UNL     1      33.177 -15.406 -20.787  0.00  0.00    -0.004 C 
ATOM     12  C   UNL     1      33.803 -14.142 -23.194  0.00  0.00    -0.000 C 
ATOM     13  C   UNL     1      32.418 -14.319 -21.223  0.00  0.00    -0.000 C 
ATOM     14  C   UNL     1      32.732 -13.688 -22.425  0.00  0.00    -0.000 C 
ENDBRANCH   8   9
ENDBRANCH   1   8
TORSDOF 4
ENDMDL
