MODEL 1
REMARK VINA RESULT:      -7.9      0.000      0.000
REMARK  Name = 500902
REMARK  5 active torsions:
REMARK  status: ('A' for Active; 'I' for Inactive)
REMARK    1  A    between atoms: C_2  and  O_17
REMARK    2  A    between atoms: C_3  and  O_19
REMARK    3  A    between atoms: C_4  and  N_8
REMARK    4  A    between atoms: C_5  and  C_21
REMARK    5  A    between atoms: C_21  and  O_22
REMARK                            x       y       z     vdW  Elec       q    Type
REMARK                         _______ _______ _______ _____ _____    ______ ____
ROOT
ATOM      1  O   UNL     1      36.588 -22.831 -13.348  0.00  0.00    -0.332 OA
ATOM      2  C   UNL     1      35.568 -24.826 -14.100  0.00  0.00    +0.159 C 
ATOM      3  C   UNL     1      35.888 -24.997 -12.616  0.00  0.00    +0.169 C 
ATOM      4  C   UNL     1      35.560 -23.305 -14.228  0.00  0.00    +0.234 C 
ATOM      5  C   UNL     1      36.755 -23.782 -12.277  0.00  0.00    +0.175 C 
ATOM      6  C   UNL     1      36.607 -25.516 -14.990  0.00  0.00    +0.036 C 
ENDROOT
BRANCH   4   8
ATOM      7  O   UNL     1      33.752 -23.454 -16.381  0.00  0.00    -0.193 OA
ATOM      8  N   UNL     1      35.808 -22.812 -15.552  0.00  0.00    -0.178 N 
ATOM      9  N   UNL     1      35.154 -22.427 -17.840  0.00  0.00    -0.306 NA
ATOM     10  N   UNL     1      36.596 -21.375 -19.331  0.00  0.00    -0.332 N 
ATOM     11  C   UNL     1      37.028 -22.213 -15.819  0.00  0.00    +0.083 C 
ATOM     12  C   UNL     1      34.846 -22.924 -16.585  0.00  0.00    +0.276 C 
ATOM     13  C   UNL     1      37.344 -21.729 -17.019  0.00  0.00    +0.065 C 
ATOM     14  C   UNL     1      36.310 -21.863 -18.077  0.00  0.00    +0.193 C 
ATOM     15  H   UNL     1      35.931 -21.449 -20.053  0.00  0.00    +0.145 HD
ATOM     16  H   UNL     1      37.467 -20.950 -19.507  0.00  0.00    +0.145 HD
ENDBRANCH   4   8
BRANCH   2  17
ATOM     17  O   UNL     1      34.291 -25.357 -14.428  0.00  0.00    -0.380 OA
ATOM     18  H   UNL     1      34.370 -25.932 -15.205  0.00  0.00    +0.211 HD
ENDBRANCH   2  17
BRANCH   3  19
ATOM     19  O   UNL     1      34.693 -24.929 -11.834  0.00  0.00    -0.379 OA
ATOM     20  H   UNL     1      34.823 -24.312 -11.097  0.00  0.00    +0.211 HD
ENDBRANCH   3  19
BRANCH   5  21
ATOM     21  C   UNL     1      38.235 -24.098 -12.133  0.00  0.00    +0.169 C 
BRANCH  21  22
ATOM     22  O   UNL     1      38.905 -22.941 -11.661  0.00  0.00    -0.379 OA
ATOM     23  H   UNL     1      38.606 -22.166 -12.161  0.00  0.00    +0.211 HD
ENDBRANCH  21  22
ENDBRANCH   5  21
TORSDOF 5
ENDMDL
MODEL 2
REMARK VINA RESULT:      -7.5      2.510      3.838
REMARK  Name = 500902
REMARK  5 active torsions:
REMARK  status: ('A' for Active; 'I' for Inactive)
REMARK    1  A    between atoms: C_2  and  O_17
REMARK    2  A    between atoms: C_3  and  O_19
REMARK    3  A    between atoms: C_4  and  N_8
REMARK    4  A    between atoms: C_5  and  C_21
REMARK    5  A    between atoms: C_21  and  O_22
REMARK                            x       y       z     vdW  Elec       q    Type
REMARK                         _______ _______ _______ _____ _____    ______ ____
ROOT
ATOM      1  O   UNL     1      36.416 -25.950 -14.253  0.00  0.00    -0.332 OA
ATOM      2  C   UNL     1      37.432 -23.912 -14.886  0.00  0.00    +0.159 C 
ATOM      3  C   UNL     1      38.542 -24.876 -14.470  0.00  0.00    +0.169 C 
ATOM      4  C   UNL     1      36.299 -24.885 -15.205  0.00  0.00    +0.234 C 
ATOM      5  C   UNL     1      37.796 -26.061 -13.850  0.00  0.00    +0.175 C 
ATOM      6  C   UNL     1      37.095 -22.915 -13.771  0.00  0.00    +0.036 C 
ENDROOT
BRANCH   4   8
ATOM      7  O   UNL     1      35.096 -23.270 -17.174  0.00  0.00    -0.193 OA
ATOM      8  N   UNL     1      34.983 -24.320 -15.122  0.00  0.00    -0.178 N 
ATOM      9  N   UNL     1      33.168 -23.004 -16.009  0.00  0.00    -0.306 NA
ATOM     10  N   UNL     1      31.193 -22.735 -14.809  0.00  0.00    -0.332 N 
ATOM     11  C   UNL     1      34.222 -24.574 -13.992  0.00  0.00    +0.083 C 
ATOM     12  C   UNL     1      34.446 -23.516 -16.157  0.00  0.00    +0.276 C 
ATOM     13  C   UNL     1      32.992 -24.091 -13.831  0.00  0.00    +0.065 C 
ATOM     14  C   UNL     1      32.462 -23.253 -14.936  0.00  0.00    +0.193 C 
ATOM     15  H   UNL     1      30.815 -22.176 -15.526  0.00  0.00    +0.145 HD
ATOM     16  H   UNL     1      30.664 -22.924 -14.001  0.00  0.00    +0.145 HD
ENDBRANCH   4   8
BRANCH   2  17
ATOM     17  O   UNL     1      37.787 -23.168 -16.044  0.00  0.00    -0.380 OA
ATOM     18  H   UNL     1      38.535 -22.586 -15.837  0.00  0.00    +0.211 HD
ENDBRANCH   2  17
BRANCH   3  19
ATOM     19  O   UNL     1      39.255 -25.344 -15.617  0.00  0.00    -0.379 OA
ATOM     20  H   UNL     1      39.428 -24.601 -16.216  0.00  0.00    +0.211 HD
ENDBRANCH   3  19
BRANCH   5  21
ATOM     21  C   UNL     1      37.857 -26.105 -12.331  0.00  0.00    +0.169 C 
BRANCH  21  22
ATOM     22  O   UNL     1      36.537 -26.047 -11.819  0.00  0.00    -0.379 OA
ATOM     23  H   UNL     1      36.101 -25.241 -12.137  0.00  0.00    +0.211 HD
ENDBRANCH  21  22
ENDBRANCH   5  21
TORSDOF 5
ENDMDL
MODEL 3
REMARK VINA RESULT:      -7.1      2.294      3.044
REMARK  Name = 500902
REMARK  5 active torsions:
REMARK  status: ('A' for Active; 'I' for Inactive)
REMARK    1  A    between atoms: C_2  and  O_17
REMARK    2  A    between atoms: C_3  and  O_19
REMARK    3  A    between atoms: C_4  and  N_8
REMARK    4  A    between atoms: C_5  and  C_21
REMARK    5  A    between atoms: C_21  and  O_22
REMARK                            x       y       z     vdW  Elec       q    Type
REMARK                         _______ _______ _______ _____ _____    ______ ____
ROOT
ATOM      1  O   UNL     1      37.731 -23.511 -14.246  0.00  0.00    -0.332 OA
ATOM      2  C   UNL     1      36.779 -25.391 -13.176  0.00  0.00    +0.159 C 
ATOM      3  C   UNL     1      38.270 -25.369 -12.840  0.00  0.00    +0.169 C 
ATOM      4  C   UNL     1      36.542 -23.935 -13.566  0.00  0.00    +0.234 C 
ATOM      5  C   UNL     1      38.844 -24.286 -13.757  0.00  0.00    +0.175 C 
ATOM      6  C   UNL     1      36.463 -26.391 -14.294  0.00  0.00    +0.036 C 
ENDROOT
BRANCH   4   8
ATOM      7  O   UNL     1      33.848 -24.144 -12.773  0.00  0.00    -0.193 OA
ATOM      8  N   UNL     1      35.408 -23.719 -14.419  0.00  0.00    -0.178 N 
ATOM      9  N   UNL     1      33.034 -23.621 -14.826  0.00  0.00    -0.306 NA
ATOM     10  N   UNL     1      32.206 -23.086 -16.932  0.00  0.00    -0.332 N 
ATOM     11  C   UNL     1      35.631 -23.382 -15.745  0.00  0.00    +0.083 C 
ATOM     12  C   UNL     1      34.080 -23.843 -13.945  0.00  0.00    +0.276 C 
ATOM     13  C   UNL     1      34.639 -23.165 -16.607  0.00  0.00    +0.065 C 
ATOM     14  C   UNL     1      33.259 -23.303 -16.074  0.00  0.00    +0.193 C 
ATOM     15  H   UNL     1      31.281 -23.170 -16.607  0.00  0.00    +0.145 HD
ATOM     16  H   UNL     1      32.378 -22.846 -17.871  0.00  0.00    +0.145 HD
ENDBRANCH   4   8
BRANCH   2  17
ATOM     17  O   UNL     1      35.990 -25.737 -12.045  0.00  0.00    -0.380 OA
ATOM     18  H   UNL     1      36.487 -26.349 -11.480  0.00  0.00    +0.211 HD
ENDBRANCH   2  17
BRANCH   3  19
ATOM     19  O   UNL     1      38.472 -24.963 -11.484  0.00  0.00    -0.379 OA
ATOM     20  H   UNL     1      37.616 -24.753 -11.078  0.00  0.00    +0.211 HD
ENDBRANCH   3  19
BRANCH   5  21
ATOM     21  C   UNL     1      39.619 -24.829 -14.948  0.00  0.00    +0.169 C 
BRANCH  21  22
ATOM     22  O   UNL     1      40.987 -24.932 -14.594  0.00  0.00    -0.379 OA
ATOM     23  H   UNL     1      41.528 -24.474 -15.256  0.00  0.00    +0.211 HD
ENDBRANCH  21  22
ENDBRANCH   5  21
TORSDOF 5
ENDMDL
MODEL 4
REMARK VINA RESULT:      -6.9      3.014      4.774
REMARK  Name = 500902
REMARK  5 active torsions:
REMARK  status: ('A' for Active; 'I' for Inactive)
REMARK    1  A    between atoms: C_2  and  O_17
REMARK    2  A    between atoms: C_3  and  O_19
REMARK    3  A    between atoms: C_4  and  N_8
REMARK    4  A    between atoms: C_5  and  C_21
REMARK    5  A    between atoms: C_21  and  O_22
REMARK                            x       y       z     vdW  Elec       q    Type
REMARK                         _______ _______ _______ _____ _____    ______ ____
ROOT
ATOM      1  O   UNL     1      34.994 -25.037 -15.248  0.00  0.00    -0.332 OA
ATOM      2  C   UNL     1      34.906 -24.380 -12.979  0.00  0.00    +0.159 C 
ATOM      3  C   UNL     1      33.536 -24.105 -13.598  0.00  0.00    +0.169 C 
ATOM      4  C   UNL     1      35.465 -25.418 -13.949  0.00  0.00    +0.234 C 
ATOM      5  C   UNL     1      33.752 -24.320 -15.098  0.00  0.00    +0.175 C 
ATOM      6  C   UNL     1      35.752 -23.107 -12.881  0.00  0.00    +0.036 C 
ENDROOT
BRANCH   4   8
ATOM      7  O   UNL     1      37.051 -26.631 -11.963  0.00  0.00    -0.193 OA
ATOM      8  N   UNL     1      36.897 -25.507 -13.973  0.00  0.00    -0.178 N 
ATOM      9  N   UNL     1      39.007 -26.182 -13.023  0.00  0.00    -0.306 NA
ATOM     10  N   UNL     1      41.008 -25.719 -14.114  0.00  0.00    -0.332 N 
ATOM     11  C   UNL     1      37.577 -24.958 -15.048  0.00  0.00    +0.083 C 
ATOM     12  C   UNL     1      37.626 -26.135 -12.934  0.00  0.00    +0.276 C 
ATOM     13  C   UNL     1      38.904 -24.993 -15.151  0.00  0.00    +0.065 C 
ATOM     14  C   UNL     1      39.636 -25.660 -14.044  0.00  0.00    +0.193 C 
ATOM     15  H   UNL     1      41.520 -26.155 -13.395  0.00  0.00    +0.145 HD
ATOM     16  H   UNL     1      41.479 -25.326 -14.883  0.00  0.00    +0.145 HD
ENDBRANCH   4   8
BRANCH   2  17
ATOM     17  O   UNL     1      34.792 -24.932 -11.674  0.00  0.00    -0.380 OA
ATOM     18  H   UNL     1      34.068 -25.577 -11.658  0.00  0.00    +0.211 HD
ENDBRANCH   2  17
BRANCH   3  19
ATOM     19  O   UNL     1      32.578 -25.062 -13.140  0.00  0.00    -0.379 OA
ATOM     20  H   UNL     1      31.975 -25.289 -13.865  0.00  0.00    +0.211 HD
ENDBRANCH   3  19
BRANCH   5  21
ATOM     21  C   UNL     1      33.833 -23.033 -15.904  0.00  0.00    +0.169 C 
BRANCH  21  22
ATOM     22  O   UNL     1      34.988 -23.078 -16.723  0.00  0.00    -0.379 OA
ATOM     23  H   UNL     1      35.302 -22.176 -16.890  0.00  0.00    +0.211 HD
ENDBRANCH  21  22
ENDBRANCH   5  21
TORSDOF 5
ENDMDL
MODEL 5
REMARK VINA RESULT:      -6.8      2.643      3.868
REMARK  Name = 500902
REMARK  5 active torsions:
REMARK  status: ('A' for Active; 'I' for Inactive)
REMARK    1  A    between atoms: C_2  and  O_17
REMARK    2  A    between atoms: C_3  and  O_19
REMARK    3  A    between atoms: C_4  and  N_8
REMARK    4  A    between atoms: C_5  and  C_21
REMARK    5  A    between atoms: C_21  and  O_22
REMARK                            x       y       z     vdW  Elec       q    Type
REMARK                         _______ _______ _______ _____ _____    ______ ____
ROOT
ATOM      1  O   UNL     1      35.734 -22.524 -14.813  0.00  0.00    -0.332 OA
ATOM      2  C   UNL     1      35.882 -24.732 -13.982  0.00  0.00    +0.159 C 
ATOM      3  C   UNL     1      37.278 -24.113 -13.914  0.00  0.00    +0.169 C 
ATOM      4  C   UNL     1      35.007 -23.482 -14.033  0.00  0.00    +0.234 C 
ATOM      5  C   UNL     1      37.144 -22.799 -14.688  0.00  0.00    +0.175 C 
ATOM      6  C   UNL     1      35.724 -25.647 -15.201  0.00  0.00    +0.036 C 
ENDROOT
BRANCH   4   8
ATOM      7  O   UNL     1      32.858 -24.818 -12.799  0.00  0.00    -0.193 OA
ATOM      8  N   UNL     1      33.711 -23.680 -14.615  0.00  0.00    -0.178 N 
ATOM      9  N   UNL     1      31.452 -24.519 -14.555  0.00  0.00    -0.306 NA
ATOM     10  N   UNL     1      30.016 -24.210 -16.358  0.00  0.00    -0.332 N 
ATOM     11  C   UNL     1      33.474 -23.185 -15.888  0.00  0.00    +0.083 C 
ATOM     12  C   UNL     1      32.678 -24.364 -13.930  0.00  0.00    +0.276 C 
ATOM     13  C   UNL     1      32.302 -23.324 -16.505  0.00  0.00    +0.065 C 
ATOM     14  C   UNL     1      31.242 -24.046 -15.755  0.00  0.00    +0.193 C 
ATOM     15  H   UNL     1      29.295 -24.683 -15.885  0.00  0.00    +0.145 HD
ATOM     16  H   UNL     1      29.861 -23.852 -17.262  0.00  0.00    +0.145 HD
ENDBRANCH   4   8
BRANCH   2  17
ATOM     17  O   UNL     1      35.588 -25.496 -12.820  0.00  0.00    -0.380 OA
ATOM     18  H   UNL     1      34.745 -25.959 -12.943  0.00  0.00    +0.211 HD
ENDBRANCH   2  17
BRANCH   3  19
ATOM     19  O   UNL     1      37.625 -23.805 -12.562  0.00  0.00    -0.379 OA
ATOM     20  H   UNL     1      38.584 -23.890 -12.446  0.00  0.00    +0.211 HD
ENDBRANCH   3  19
BRANCH   5  21
ATOM     21  C   UNL     1      37.758 -22.833 -16.078  0.00  0.00    +0.169 C 
BRANCH  21  22
ATOM     22  O   UNL     1      38.939 -23.616 -16.037  0.00  0.00    -0.379 OA
ATOM     23  H   UNL     1      39.512 -23.377 -16.782  0.00  0.00    +0.211 HD
ENDBRANCH  21  22
ENDBRANCH   5  21
TORSDOF 5
ENDMDL
MODEL 6
REMARK VINA RESULT:      -6.8      9.406     11.368
REMARK  Name = 500902
REMARK  5 active torsions:
REMARK  status: ('A' for Active; 'I' for Inactive)
REMARK    1  A    between atoms: C_2  and  O_17
REMARK    2  A    between atoms: C_3  and  O_19
REMARK    3  A    between atoms: C_4  and  N_8
REMARK    4  A    between atoms: C_5  and  C_21
REMARK    5  A    between atoms: C_21  and  O_22
REMARK                            x       y       z     vdW  Elec       q    Type
REMARK                         _______ _______ _______ _____ _____    ______ ____
ROOT
ATOM      1  O   UNL     1      35.100 -16.798 -23.862  0.00  0.00    -0.332 OA
ATOM      2  C   UNL     1      34.953 -17.565 -21.631  0.00  0.00    +0.159 C 
ATOM      3  C   UNL     1      35.672 -18.639 -22.447  0.00  0.00    +0.169 C 
ATOM      4  C   UNL     1      35.169 -16.333 -22.507  0.00  0.00    +0.234 C 
ATOM      5  C   UNL     1      35.505 -18.181 -23.898  0.00  0.00    +0.175 C 
ATOM      6  C   UNL     1      33.477 -17.913 -21.407  0.00  0.00    +0.036 C 
ENDROOT
BRANCH   4   8
ATOM      7  O   UNL     1      34.871 -14.806 -20.161  0.00  0.00    -0.193 OA
ATOM      8  N   UNL     1      34.207 -15.286 -22.318  0.00  0.00    -0.178 N 
ATOM      9  N   UNL     1      33.165 -13.563 -20.993  0.00  0.00    -0.306 NA
ATOM     10  N   UNL     1      31.416 -12.292 -21.851  0.00  0.00    -0.332 N 
ATOM     11  C   UNL     1      33.343 -14.983 -23.358  0.00  0.00    +0.083 C 
ATOM     12  C   UNL     1      34.119 -14.561 -21.105  0.00  0.00    +0.276 C 
ATOM     13  C   UNL     1      32.419 -14.028 -23.269  0.00  0.00    +0.065 C 
ATOM     14  C   UNL     1      32.356 -13.288 -21.983  0.00  0.00    +0.193 C 
ATOM     15  H   UNL     1      31.351 -11.784 -21.010  0.00  0.00    +0.145 HD
ATOM     16  H   UNL     1      30.809 -12.087 -22.598  0.00  0.00    +0.145 HD
ENDBRANCH   4   8
BRANCH   2  17
ATOM     17  O   UNL     1      35.556 -17.379 -20.358  0.00  0.00    -0.380 OA
ATOM     18  H   UNL     1      35.025 -17.827 -19.680  0.00  0.00    +0.211 HD
ENDBRANCH   2  17
BRANCH   3  19
ATOM     19  O   UNL     1      37.068 -18.652 -22.137  0.00  0.00    -0.379 OA
ATOM     20  H   UNL     1      37.580 -18.494 -22.946  0.00  0.00    +0.211 HD
ENDBRANCH   3  19
BRANCH   5  21
ATOM     21  C   UNL     1      34.469 -18.971 -24.682  0.00  0.00    +0.169 C 
BRANCH  21  22
ATOM     22  O   UNL     1      33.771 -18.084 -25.539  0.00  0.00    -0.379 OA
ATOM     23  H   UNL     1      33.999 -17.169 -25.314  0.00  0.00    +0.211 HD
ENDBRANCH  21  22
ENDBRANCH   5  21
TORSDOF 5
ENDMDL
MODEL 7
REMARK VINA RESULT:      -6.8      1.927      2.594
REMARK  Name = 500902
REMARK  5 active torsions:
REMARK  status: ('A' for Active; 'I' for Inactive)
REMARK    1  A    between atoms: C_2  and  O_17
REMARK    2  A    between atoms: C_3  and  O_19
REMARK    3  A    between atoms: C_4  and  N_8
REMARK    4  A    between atoms: C_5  and  C_21
REMARK    5  A    between atoms: C_21  and  O_22
REMARK                            x       y       z     vdW  Elec       q    Type
REMARK                         _______ _______ _______ _____ _____    ______ ____
ROOT
ATOM      1  O   UNL     1      38.292 -23.701 -14.151  0.00  0.00    -0.332 OA
ATOM      2  C   UNL     1      36.643 -25.254 -13.477  0.00  0.00    +0.159 C 
ATOM      3  C   UNL     1      37.904 -25.527 -12.657  0.00  0.00    +0.169 C 
ATOM      4  C   UNL     1      36.882 -23.812 -13.916  0.00  0.00    +0.234 C 
ATOM      5  C   UNL     1      38.977 -24.659 -13.320  0.00  0.00    +0.175 C 
ATOM      6  C   UNL     1      36.498 -26.239 -14.642  0.00  0.00    +0.036 C 
ENDROOT
BRANCH   4   8
ATOM      7  O   UNL     1      38.045 -22.617 -16.184  0.00  0.00    -0.193 OA
ATOM      8  N   UNL     1      36.173 -23.420 -15.100  0.00  0.00    -0.178 N 
ATOM      9  N   UNL     1      36.082 -22.470 -17.313  0.00  0.00    -0.306 NA
ATOM     10  N   UNL     1      34.067 -22.321 -18.465  0.00  0.00    -0.332 N 
ATOM     11  C   UNL     1      34.805 -23.634 -15.156  0.00  0.00    +0.083 C 
ATOM     12  C   UNL     1      36.831 -22.823 -16.203  0.00  0.00    +0.276 C 
ATOM     13  C   UNL     1      34.069 -23.301 -16.214  0.00  0.00    +0.065 C 
ATOM     14  C   UNL     1      34.792 -22.678 -17.352  0.00  0.00    +0.193 C 
ATOM     15  H   UNL     1      34.519 -21.907 -19.235  0.00  0.00    +0.145 HD
ATOM     16  H   UNL     1      33.096 -22.479 -18.492  0.00  0.00    +0.145 HD
ENDBRANCH   4   8
BRANCH   2  17
ATOM     17  O   UNL     1      35.469 -25.342 -12.681  0.00  0.00    -0.380 OA
ATOM     18  H   UNL     1      35.280 -26.274 -12.486  0.00  0.00    +0.211 HD
ENDBRANCH   2  17
BRANCH   3  19
ATOM     19  O   UNL     1      37.732 -25.080 -11.310  0.00  0.00    -0.379 OA
ATOM     20  H   UNL     1      36.832 -25.286 -11.013  0.00  0.00    +0.211 HD
ENDBRANCH   3  19
BRANCH   5  21
ATOM     21  C   UNL     1      39.958 -25.438 -14.182  0.00  0.00    +0.169 C 
BRANCH  21  22
ATOM     22  O   UNL     1      39.748 -25.090 -15.540  0.00  0.00    -0.379 OA
ATOM     23  H   UNL     1      38.928 -24.579 -15.621  0.00  0.00    +0.211 HD
ENDBRANCH  21  22
ENDBRANCH   5  21
TORSDOF 5
ENDMDL
MODEL 8
REMARK VINA RESULT:      -6.7      4.229      6.356
REMARK  Name = 500902
REMARK  5 active torsions:
REMARK  status: ('A' for Active; 'I' for Inactive)
REMARK    1  A    between atoms: C_2  and  O_17
REMARK    2  A    between atoms: C_3  and  O_19
REMARK    3  A    between atoms: C_4  and  N_8
REMARK    4  A    between atoms: C_5  and  C_21
REMARK    5  A    between atoms: C_21  and  O_22
REMARK                            x       y       z     vdW  Elec       q    Type
REMARK                         _______ _______ _______ _____ _____    ______ ____
ROOT
ATOM      1  O   UNL     1      30.562 -24.551 -16.387  0.00  0.00    -0.332 OA
ATOM      2  C   UNL     1      30.294 -23.976 -14.110  0.00  0.00    +0.159 C 
ATOM      3  C   UNL     1      28.914 -24.317 -14.671  0.00  0.00    +0.169 C 
ATOM      4  C   UNL     1      31.203 -24.684 -15.112  0.00  0.00    +0.234 C 
ATOM      5  C   UNL     1      29.140 -24.432 -16.180  0.00  0.00    +0.175 C 
ATOM      6  C   UNL     1      30.519 -22.462 -14.034  0.00  0.00    +0.036 C 
ENDROOT
BRANCH   4   8
ATOM      7  O   UNL     1      33.144 -24.841 -13.079  0.00  0.00    -0.193 OA
ATOM      8  N   UNL     1      32.533 -24.153 -15.194  0.00  0.00    -0.178 N 
ATOM      9  N   UNL     1      34.723 -23.735 -14.276  0.00  0.00    -0.306 NA
ATOM     10  N   UNL     1      36.336 -22.600 -15.508  0.00  0.00    -0.332 N 
ATOM     11  C   UNL     1      32.917 -23.504 -16.357  0.00  0.00    +0.083 C 
ATOM     12  C   UNL     1      33.455 -24.273 -14.126  0.00  0.00    +0.276 C 
ATOM     13  C   UNL     1      34.131 -22.981 -16.520  0.00  0.00    +0.065 C 
ATOM     14  C   UNL     1      35.071 -23.126 -15.379  0.00  0.00    +0.193 C 
ATOM     15  H   UNL     1      36.981 -22.681 -14.769  0.00  0.00    +0.145 HD
ATOM     16  H   UNL     1      36.596 -22.142 -16.340  0.00  0.00    +0.145 HD
ENDBRANCH   4   8
BRANCH   2  17
ATOM     17  O   UNL     1      30.480 -24.512 -12.807  0.00  0.00    -0.380 OA
ATOM     18  H   UNL     1      31.002 -25.328 -12.865  0.00  0.00    +0.211 HD
ENDBRANCH   2  17
BRANCH   3  19
ATOM     19  O   UNL     1      28.476 -25.588 -14.184  0.00  0.00    -0.379 OA
ATOM     20  H   UNL     1      27.623 -25.486 -13.733  0.00  0.00    +0.211 HD
ENDBRANCH   3  19
BRANCH   5  21
ATOM     21  C   UNL     1      28.631 -23.240 -16.975  0.00  0.00    +0.169 C 
BRANCH  21  22
ATOM     22  O   UNL     1      27.479 -23.634 -17.702  0.00  0.00    -0.379 OA
ATOM     23  H   UNL     1      26.784 -23.908 -17.084  0.00  0.00    +0.211 HD
ENDBRANCH  21  22
ENDBRANCH   5  21
TORSDOF 5
ENDMDL
MODEL 9
REMARK VINA RESULT:      -6.7      1.758      2.083
REMARK  Name = 500902
REMARK  5 active torsions:
REMARK  status: ('A' for Active; 'I' for Inactive)
REMARK    1  A    between atoms: C_2  and  O_17
REMARK    2  A    between atoms: C_3  and  O_19
REMARK    3  A    between atoms: C_4  and  N_8
REMARK    4  A    between atoms: C_5  and  C_21
REMARK    5  A    between atoms: C_21  and  O_22
REMARK                            x       y       z     vdW  Elec       q    Type
REMARK                         _______ _______ _______ _____ _____    ______ ____
ROOT
ATOM      1  O   UNL     1      36.782 -22.942 -14.741  0.00  0.00    -0.332 OA
ATOM      2  C   UNL     1      35.344 -24.741 -14.206  0.00  0.00    +0.159 C 
ATOM      3  C   UNL     1      36.529 -24.787 -13.241  0.00  0.00    +0.169 C 
ATOM      4  C   UNL     1      35.392 -23.285 -14.663  0.00  0.00    +0.234 C 
ATOM      5  C   UNL     1      37.514 -23.761 -13.807  0.00  0.00    +0.175 C 
ATOM      6  C   UNL     1      35.500 -25.752 -15.347  0.00  0.00    +0.036 C 
ENDROOT
BRANCH   4   8
ATOM      7  O   UNL     1      32.635 -23.501 -15.194  0.00  0.00    -0.193 OA
ATOM      8  N   UNL     1      34.771 -23.033 -15.932  0.00  0.00    -0.178 N 
ATOM      9  N   UNL     1      32.844 -22.905 -17.374  0.00  0.00    -0.306 NA
ATOM     10  N   UNL     1      33.064 -22.295 -19.607  0.00  0.00    -0.332 N 
ATOM     11  C   UNL     1      35.571 -22.654 -16.998  0.00  0.00    +0.083 C 
ATOM     12  C   UNL     1      33.373 -23.164 -16.121  0.00  0.00    +0.276 C 
ATOM     13  C   UNL     1      35.080 -22.401 -18.209  0.00  0.00    +0.065 C 
ATOM     14  C   UNL     1      33.611 -22.547 -18.370  0.00  0.00    +0.193 C 
ATOM     15  H   UNL     1      32.093 -22.383 -19.744  0.00  0.00    +0.145 HD
ATOM     16  H   UNL     1      33.644 -22.025 -20.356  0.00  0.00    +0.145 HD
ENDBRANCH   4   8
BRANCH   2  17
ATOM     17  O   UNL     1      34.116 -25.013 -13.545  0.00  0.00    -0.380 OA
ATOM     18  H   UNL     1      33.412 -24.472 -13.936  0.00  0.00    +0.211 HD
ENDBRANCH   2  17
BRANCH   3  19
ATOM     19  O   UNL     1      36.130 -24.356 -11.938  0.00  0.00    -0.379 OA
ATOM     20  H   UNL     1      36.162 -23.388 -11.893  0.00  0.00    +0.211 HD
ENDBRANCH   3  19
BRANCH   5  21
ATOM     21  C   UNL     1      38.703 -24.376 -14.527  0.00  0.00    +0.169 C 
BRANCH  21  22
ATOM     22  O   UNL     1      38.909 -23.681 -15.745  0.00  0.00    -0.379 OA
ATOM     23  H   UNL     1      38.488 -22.808 -15.695  0.00  0.00    +0.211 HD
ENDBRANCH  21  22
ENDBRANCH   5  21
TORSDOF 5
ENDMDL
