MODEL 1
REMARK VINA RESULT:     -11.3      0.000      0.000
REMARK  Name = 10361208
REMARK  3 active torsions:
REMARK  status: ('A' for Active; 'I' for Inactive)
REMARK    1  A    between atoms: N_1  and  C_12
REMARK    2  A    between atoms: C_10  and  C_18
REMARK    3  A    between atoms: C_21  and  C_27
REMARK                            x       y       z     vdW  Elec       q    Type
REMARK                         _______ _______ _______ _____ _____    ______ ____
ROOT
ATOM      1  N   UNL     1      34.995 -24.563 -13.765  0.00  0.00    -0.318 N 
ATOM      2  N   UNL     1      33.848 -23.648 -15.533  0.00  0.00    -0.147 NA
ATOM      3  N   UNL     1      32.623 -23.429 -16.073  0.00  0.00    -0.190 N 
ATOM      4  N   UNL     1      30.450 -23.408 -16.382  0.00  0.00    -0.127 NA
ATOM      5  N   UNL     1      31.049 -22.766 -17.446  0.00  0.00    -0.127 NA
ATOM      6  C   UNL     1      33.837 -24.292 -14.389  0.00  0.00    +0.149 C 
ATOM      7  C   UNL     1      32.562 -24.750 -13.732  0.00  0.00    +0.039 C 
ATOM      8  C   UNL     1      31.402 -23.801 -15.563  0.00  0.00    +0.187 A 
ATOM      9  C   UNL     1      31.397 -24.492 -14.337  0.00  0.00    +0.044 C 
ATOM     10  C   UNL     1      32.347 -22.789 -17.246  0.00  0.00    +0.187 A 
ATOM     11  H   UNL     1      34.967 -25.061 -12.916  0.00  0.00    +0.148 HD
ENDROOT
BRANCH   1  12
ATOM     12  C   UNL     1      36.285 -24.154 -14.288  0.00  0.00    +0.070 C 
ATOM     13  C   UNL     1      37.137 -23.546 -13.169  0.00  0.00    +0.020 C 
ATOM     14  C   UNL     1      36.987 -25.347 -14.945  0.00  0.00    +0.020 C 
ATOM     15  C   UNL     1      37.620 -24.588 -12.160  0.00  0.00    +0.002 C 
ATOM     16  C   UNL     1      37.471 -26.382 -13.929  0.00  0.00    +0.002 C 
ATOM     17  C   UNL     1      38.336 -25.747 -12.845  0.00  0.00    +0.000 C 
ENDBRANCH   1  12
BRANCH  10  18
ATOM     18  C   UNL     1      33.354 -22.229 -18.115  0.00  0.00    +0.038 C 
ATOM     19  C   UNL     1      32.987 -21.341 -19.126  0.00  0.00    +0.007 C 
ATOM     20  C   UNL     1      34.693 -22.576 -17.944  0.00  0.00    +0.003 C 
ATOM     21  C   UNL     1      33.960 -20.800 -19.966  0.00  0.00    +0.072 C 
ATOM     22  C   UNL     1      35.667 -22.036 -18.784  0.00  0.00    +0.000 C 
ATOM     23  C   UNL     1      35.299 -21.148 -19.796  0.00  0.00    +0.004 C 
BRANCH  21  27
ATOM     24  F   UNL     1      33.717 -18.537 -20.701  0.00  0.00    -0.166 F 
ATOM     25  F   UNL     1      34.293 -20.000 -22.195  0.00  0.00    -0.166 F 
ATOM     26  F   UNL     1      32.262 -19.985 -21.418  0.00  0.00    -0.166 F 
ATOM     27  C   UNL     1      33.569 -19.850 -21.047  0.00  0.00    +0.419 C 
ENDBRANCH  21  27
ENDBRANCH  10  18
TORSDOF 3
ENDMDL
MODEL 2
REMARK VINA RESULT:     -11.2      6.873     10.182
REMARK  Name = 10361208
REMARK  3 active torsions:
REMARK  status: ('A' for Active; 'I' for Inactive)
REMARK    1  A    between atoms: N_1  and  C_12
REMARK    2  A    between atoms: C_10  and  C_18
REMARK    3  A    between atoms: C_21  and  C_27
REMARK                            x       y       z     vdW  Elec       q    Type
REMARK                         _______ _______ _______ _____ _____    ______ ____
ROOT
ATOM      1  N   UNL     1      35.130 -18.907 -22.463  0.00  0.00    -0.318 N 
ATOM      2  N   UNL     1      34.186 -16.892 -23.035  0.00  0.00    -0.147 NA
ATOM      3  N   UNL     1      33.837 -16.076 -24.061  0.00  0.00    -0.190 N 
ATOM      4  N   UNL     1      33.535 -15.272 -26.081  0.00  0.00    -0.127 NA
ATOM      5  N   UNL     1      33.055 -14.354 -25.169  0.00  0.00    -0.127 NA
ATOM      6  C   UNL     1      34.744 -18.023 -23.398  0.00  0.00    +0.149 C 
ATOM      7  C   UNL     1      34.976 -18.382 -24.842  0.00  0.00    +0.039 C 
ATOM      8  C   UNL     1      34.000 -16.302 -25.406  0.00  0.00    +0.187 A 
ATOM      9  C   UNL     1      34.600 -17.516 -25.789  0.00  0.00    +0.044 C 
ATOM     10  C   UNL     1      33.245 -14.851 -23.967  0.00  0.00    +0.187 A 
ATOM     11  H   UNL     1      35.562 -19.743 -22.756  0.00  0.00    +0.148 HD
ENDROOT
BRANCH   1  12
ATOM     12  C   UNL     1      34.941 -18.683 -21.043  0.00  0.00    +0.070 C 
ATOM     13  C   UNL     1      33.505 -19.037 -20.642  0.00  0.00    +0.020 C 
ATOM     14  C   UNL     1      35.965 -19.493 -20.242  0.00  0.00    +0.020 C 
ATOM     15  C   UNL     1      33.237 -20.543 -20.673  0.00  0.00    +0.002 C 
ATOM     16  C   UNL     1      35.688 -20.996 -20.275  0.00  0.00    +0.002 C 
ATOM     17  C   UNL     1      34.259 -21.315 -19.846  0.00  0.00    +0.000 C 
ENDBRANCH   1  12
BRANCH  10  18
ATOM     18  C   UNL     1      32.889 -14.219 -22.719  0.00  0.00    +0.038 C 
ATOM     19  C   UNL     1      32.275 -12.967 -22.721  0.00  0.00    +0.007 C 
ATOM     20  C   UNL     1      33.162 -14.861 -21.512  0.00  0.00    +0.003 C 
ATOM     21  C   UNL     1      31.932 -12.358 -21.515  0.00  0.00    +0.072 C 
ATOM     22  C   UNL     1      32.819 -14.252 -20.305  0.00  0.00    +0.000 C 
ATOM     23  C   UNL     1      32.204 -12.999 -20.306  0.00  0.00    +0.004 C 
BRANCH  21  27
ATOM     24  F   UNL     1      32.153  -9.976 -21.545  0.00  0.00    -0.166 F 
ATOM     25  F   UNL     1      30.444 -10.818 -22.581  0.00  0.00    -0.166 F 
ATOM     26  F   UNL     1      30.501 -10.815 -20.407  0.00  0.00    -0.166 F 
ATOM     27  C   UNL     1      31.273 -11.019 -21.514  0.00  0.00    +0.419 C 
ENDBRANCH  21  27
ENDBRANCH  10  18
TORSDOF 3
ENDMDL
MODEL 3
REMARK VINA RESULT:     -11.1      3.050      4.961
REMARK  Name = 10361208
REMARK  3 active torsions:
REMARK  status: ('A' for Active; 'I' for Inactive)
REMARK    1  A    between atoms: N_1  and  C_12
REMARK    2  A    between atoms: C_10  and  C_18
REMARK    3  A    between atoms: C_21  and  C_27
REMARK                            x       y       z     vdW  Elec       q    Type
REMARK                         _______ _______ _______ _____ _____    ______ ____
ROOT
ATOM      1  N   UNL     1      36.966 -22.916 -14.592  0.00  0.00    -0.318 N 
ATOM      2  N   UNL     1      35.041 -22.901 -15.845  0.00  0.00    -0.147 NA
ATOM      3  N   UNL     1      34.506 -22.634 -17.063  0.00  0.00    -0.190 N 
ATOM      4  N   UNL     1      34.289 -22.038 -19.165  0.00  0.00    -0.127 NA
ATOM      5  N   UNL     1      33.051 -22.418 -18.689  0.00  0.00    -0.127 NA
ATOM      6  C   UNL     1      36.333 -22.685 -15.753  0.00  0.00    +0.149 C 
ATOM      7  C   UNL     1      37.151 -22.180 -16.912  0.00  0.00    +0.039 C 
ATOM      8  C   UNL     1      35.155 -22.173 -18.182  0.00  0.00    +0.187 A 
ATOM      9  C   UNL     1      36.539 -21.942 -18.078  0.00  0.00    +0.044 C 
ATOM     10  C   UNL     1      33.199 -22.769 -17.431  0.00  0.00    +0.187 A 
ATOM     11  H   UNL     1      37.933 -22.732 -14.539  0.00  0.00    +0.148 HD
ENDROOT
BRANCH   1  12
ATOM     12  C   UNL     1      36.290 -23.423 -13.414  0.00  0.00    +0.070 C 
ATOM     13  C   UNL     1      35.921 -24.897 -13.613  0.00  0.00    +0.020 C 
ATOM     14  C   UNL     1      37.171 -23.225 -12.176  0.00  0.00    +0.020 C 
ATOM     15  C   UNL     1      37.141 -25.820 -13.590  0.00  0.00    +0.002 C 
ATOM     16  C   UNL     1      38.385 -24.154 -12.160  0.00  0.00    +0.002 C 
ATOM     17  C   UNL     1      37.980 -25.614 -12.334  0.00  0.00    +0.000 C 
ENDBRANCH   1  12
BRANCH  10  18
ATOM     18  C   UNL     1      32.156 -23.235 -16.548  0.00  0.00    +0.038 C 
ATOM     19  C   UNL     1      30.818 -23.084 -16.909  0.00  0.00    +0.007 C 
ATOM     20  C   UNL     1      32.489 -23.835 -15.335  0.00  0.00    +0.003 C 
ATOM     21  C   UNL     1      29.811 -23.534 -16.056  0.00  0.00    +0.072 C 
ATOM     22  C   UNL     1      31.482 -24.285 -14.480  0.00  0.00    +0.000 C 
ATOM     23  C   UNL     1      30.142 -24.134 -14.841  0.00  0.00    +0.004 C 
BRANCH  21  27
ATOM     24  F   UNL     1      27.554 -23.114 -15.384  0.00  0.00    -0.166 F 
ATOM     25  F   UNL     1      28.160 -22.356 -17.323  0.00  0.00    -0.166 F 
ATOM     26  F   UNL     1      27.868 -24.492 -17.037  0.00  0.00    -0.166 F 
ATOM     27  C   UNL     1      28.379 -23.375 -16.441  0.00  0.00    +0.419 C 
ENDBRANCH  21  27
ENDBRANCH  10  18
TORSDOF 3
ENDMDL
MODEL 4
REMARK VINA RESULT:     -10.1      8.700     13.483
REMARK  Name = 10361208
REMARK  3 active torsions:
REMARK  status: ('A' for Active; 'I' for Inactive)
REMARK    1  A    between atoms: N_1  and  C_12
REMARK    2  A    between atoms: C_10  and  C_18
REMARK    3  A    between atoms: C_21  and  C_27
REMARK                            x       y       z     vdW  Elec       q    Type
REMARK                         _______ _______ _______ _____ _____    ______ ____
ROOT
ATOM      1  N   UNL     1      33.592 -10.829 -25.111  0.00  0.00    -0.318 N 
ATOM      2  N   UNL     1      33.672 -13.104 -24.801  0.00  0.00    -0.147 NA
ATOM      3  N   UNL     1      33.501 -14.315 -25.388  0.00  0.00    -0.190 N 
ATOM      4  N   UNL     1      33.072 -15.876 -26.871  0.00  0.00    -0.127 NA
ATOM      5  N   UNL     1      33.410 -16.486 -25.680  0.00  0.00    -0.127 NA
ATOM      6  C   UNL     1      33.452 -12.077 -25.588  0.00  0.00    +0.149 C 
ATOM      7  C   UNL     1      33.041 -12.235 -27.028  0.00  0.00    +0.039 C 
ATOM      8  C   UNL     1      33.130 -14.575 -26.686  0.00  0.00    +0.187 A 
ATOM      9  C   UNL     1      32.895 -13.469 -27.524  0.00  0.00    +0.044 C 
ATOM     10  C   UNL     1      33.662 -15.538 -24.805  0.00  0.00    +0.187 A 
ATOM     11  H   UNL     1      33.406 -10.072 -25.712  0.00  0.00    +0.148 HD
ENDROOT
BRANCH   1  12
ATOM     12  C   UNL     1      34.003 -10.550 -23.748  0.00  0.00    +0.070 C 
ATOM     13  C   UNL     1      34.945  -9.342 -23.721  0.00  0.00    +0.020 C 
ATOM     14  C   UNL     1      32.773 -10.324 -22.863  0.00  0.00    +0.020 C 
ATOM     15  C   UNL     1      34.227  -8.025 -24.017  0.00  0.00    +0.002 C 
ATOM     16  C   UNL     1      32.063  -9.004 -23.163  0.00  0.00    +0.002 C 
ATOM     17  C   UNL     1      33.025  -7.821 -23.102  0.00  0.00    +0.000 C 
ENDBRANCH   1  12
BRANCH  10  18
ATOM     18  C   UNL     1      34.055 -15.731 -23.430  0.00  0.00    +0.038 C 
ATOM     19  C   UNL     1      34.472 -16.988 -22.993  0.00  0.00    +0.007 C 
ATOM     20  C   UNL     1      34.016 -14.660 -22.539  0.00  0.00    +0.003 C 
ATOM     21  C   UNL     1      34.850 -17.173 -21.664  0.00  0.00    +0.072 C 
ATOM     22  C   UNL     1      34.394 -14.845 -21.208  0.00  0.00    +0.000 C 
ATOM     23  C   UNL     1      34.811 -16.103 -20.771  0.00  0.00    +0.004 C 
BRANCH  21  27
ATOM     24  F   UNL     1      36.487 -18.494 -20.523  0.00  0.00    -0.166 F 
ATOM     25  F   UNL     1      34.418 -19.120 -20.342  0.00  0.00    -0.166 F 
ATOM     26  F   UNL     1      35.475 -19.399 -22.222  0.00  0.00    -0.166 F 
ATOM     27  C   UNL     1      35.298 -18.517 -21.195  0.00  0.00    +0.419 C 
ENDBRANCH  21  27
ENDBRANCH  10  18
TORSDOF 3
ENDMDL
MODEL 5
REMARK VINA RESULT:     -10.1      1.944      2.442
REMARK  Name = 10361208
REMARK  3 active torsions:
REMARK  status: ('A' for Active; 'I' for Inactive)
REMARK    1  A    between atoms: N_1  and  C_12
REMARK    2  A    between atoms: C_10  and  C_18
REMARK    3  A    between atoms: C_21  and  C_27
REMARK                            x       y       z     vdW  Elec       q    Type
REMARK                         _______ _______ _______ _____ _____    ______ ____
ROOT
ATOM      1  N   UNL     1      34.757 -24.703 -13.610  0.00  0.00    -0.318 N 
ATOM      2  N   UNL     1      33.566 -23.775 -15.342  0.00  0.00    -0.147 NA
ATOM      3  N   UNL     1      32.328 -23.563 -15.854  0.00  0.00    -0.190 N 
ATOM      4  N   UNL     1      30.149 -23.561 -16.121  0.00  0.00    -0.127 NA
ATOM      5  N   UNL     1      30.720 -22.897 -17.187  0.00  0.00    -0.127 NA
ATOM      6  C   UNL     1      33.585 -24.436 -14.207  0.00  0.00    +0.149 C 
ATOM      7  C   UNL     1      32.327 -24.917 -13.533  0.00  0.00    +0.039 C 
ATOM      8  C   UNL     1      31.122 -23.955 -15.327  0.00  0.00    +0.187 A 
ATOM      9  C   UNL     1      31.148 -24.663 -14.111  0.00  0.00    +0.044 C 
ATOM     10  C   UNL     1      32.023 -22.909 -17.012  0.00  0.00    +0.187 A 
ATOM     11  H   UNL     1      34.751 -25.213 -12.768  0.00  0.00    +0.148 HD
ENDROOT
BRANCH   1  12
ATOM     12  C   UNL     1      36.032 -24.273 -14.152  0.00  0.00    +0.070 C 
ATOM     13  C   UNL     1      36.847 -23.554 -13.071  0.00  0.00    +0.020 C 
ATOM     14  C   UNL     1      36.792 -25.473 -14.724  0.00  0.00    +0.020 C 
ATOM     15  C   UNL     1      37.367 -24.505 -11.992  0.00  0.00    +0.002 C 
ATOM     16  C   UNL     1      37.312 -26.417 -13.639  0.00  0.00    +0.002 C 
ATOM     17  C   UNL     1      38.140 -25.673 -12.595  0.00  0.00    +0.000 C 
ENDBRANCH   1  12
BRANCH  10  18
ATOM     18  C   UNL     1      33.006 -22.325 -17.893  0.00  0.00    +0.038 C 
ATOM     19  C   UNL     1      34.356 -22.352 -17.547  0.00  0.00    +0.007 C 
ATOM     20  C   UNL     1      32.603 -21.732 -19.089  0.00  0.00    +0.003 C 
ATOM     21  C   UNL     1      35.305 -21.787 -18.399  0.00  0.00    +0.072 C 
ATOM     22  C   UNL     1      33.551 -21.166 -19.941  0.00  0.00    +0.000 C 
ATOM     23  C   UNL     1      34.903 -21.194 -19.595  0.00  0.00    +0.004 C 
BRANCH  21  27
ATOM     24  F   UNL     1      37.213 -20.632 -17.535  0.00  0.00    -0.166 F 
ATOM     25  F   UNL     1      37.053 -22.745 -17.077  0.00  0.00    -0.166 F 
ATOM     26  F   UNL     1      37.556 -22.109 -19.095  0.00  0.00    -0.166 F 
ATOM     27  C   UNL     1      36.750 -21.817 -18.031  0.00  0.00    +0.419 C 
ENDBRANCH  21  27
ENDBRANCH  10  18
TORSDOF 3
ENDMDL
MODEL 6
REMARK VINA RESULT:     -10.0      3.716      5.468
REMARK  Name = 10361208
REMARK  3 active torsions:
REMARK  status: ('A' for Active; 'I' for Inactive)
REMARK    1  A    between atoms: N_1  and  C_12
REMARK    2  A    between atoms: C_10  and  C_18
REMARK    3  A    between atoms: C_21  and  C_27
REMARK                            x       y       z     vdW  Elec       q    Type
REMARK                         _______ _______ _______ _____ _____    ______ ____
ROOT
ATOM      1  N   UNL     1      36.759 -22.974 -14.898  0.00  0.00    -0.318 N 
ATOM      2  N   UNL     1      34.848 -22.784 -16.159  0.00  0.00    -0.147 NA
ATOM      3  N   UNL     1      34.344 -22.458 -17.375  0.00  0.00    -0.190 N 
ATOM      4  N   UNL     1      34.189 -21.819 -19.470  0.00  0.00    -0.127 NA
ATOM      5  N   UNL     1      32.921 -22.101 -19.004  0.00  0.00    -0.127 NA
ATOM      6  C   UNL     1      36.153 -22.677 -16.059  0.00  0.00    +0.149 C 
ATOM      7  C   UNL     1      37.017 -22.226 -17.207  0.00  0.00    +0.039 C 
ATOM      8  C   UNL     1      35.035 -22.037 -18.486  0.00  0.00    +0.187 A 
ATOM      9  C   UNL     1      36.433 -21.923 -18.372  0.00  0.00    +0.044 C 
ATOM     10  C   UNL     1      33.033 -22.480 -17.751  0.00  0.00    +0.187 A 
ATOM     11  H   UNL     1      37.737 -22.872 -14.838  0.00  0.00    +0.148 HD
ENDROOT
BRANCH   1  12
ATOM     12  C   UNL     1      36.037 -23.439 -13.729  0.00  0.00    +0.070 C 
ATOM     13  C   UNL     1      35.712 -24.930 -13.871  0.00  0.00    +0.020 C 
ATOM     14  C   UNL     1      36.851 -23.158 -12.462  0.00  0.00    +0.020 C 
ATOM     15  C   UNL     1      36.950 -25.819 -13.742  0.00  0.00    +0.002 C 
ATOM     16  C   UNL     1      38.084 -24.054 -12.339  0.00  0.00    +0.002 C 
ATOM     17  C   UNL     1      37.721 -25.531 -12.458  0.00  0.00    +0.000 C 
ENDBRANCH   1  12
BRANCH  10  18
ATOM     18  C   UNL     1      31.950 -22.869 -16.879  0.00  0.00    +0.038 C 
ATOM     19  C   UNL     1      32.225 -23.415 -15.626  0.00  0.00    +0.007 C 
ATOM     20  C   UNL     1      30.629 -22.699 -17.292  0.00  0.00    +0.003 C 
ATOM     21  C   UNL     1      31.178 -23.791 -14.785  0.00  0.00    +0.072 C 
ATOM     22  C   UNL     1      29.581 -23.076 -16.452  0.00  0.00    +0.000 C 
ATOM     23  C   UNL     1      29.856 -23.622 -15.197  0.00  0.00    +0.004 C 
BRANCH  21  27
ATOM     24  F   UNL     1      30.383 -24.418 -12.618  0.00  0.00    -0.166 F 
ATOM     25  F   UNL     1      31.933 -25.658 -13.493  0.00  0.00    -0.166 F 
ATOM     26  F   UNL     1      32.420 -23.669 -12.760  0.00  0.00    -0.166 F 
ATOM     27  C   UNL     1      31.470 -24.374 -13.443  0.00  0.00    +0.419 C 
ENDBRANCH  21  27
ENDBRANCH  10  18
TORSDOF 3
ENDMDL
MODEL 7
REMARK VINA RESULT:      -9.9     10.911     13.890
REMARK  Name = 10361208
REMARK  3 active torsions:
REMARK  status: ('A' for Active; 'I' for Inactive)
REMARK    1  A    between atoms: N_1  and  C_12
REMARK    2  A    between atoms: C_10  and  C_18
REMARK    3  A    between atoms: C_21  and  C_27
REMARK                            x       y       z     vdW  Elec       q    Type
REMARK                         _______ _______ _______ _____ _____    ______ ____
ROOT
ATOM      1  N   UNL     1      32.090  -9.566 -22.454  0.00  0.00    -0.318 N 
ATOM      2  N   UNL     1      32.444 -11.836 -22.449  0.00  0.00    -0.147 NA
ATOM      3  N   UNL     1      32.419 -12.966 -21.698  0.00  0.00    -0.190 N 
ATOM      4  N   UNL     1      32.180 -14.346 -20.008  0.00  0.00    -0.127 NA
ATOM      5  N   UNL     1      32.589 -15.071 -21.109  0.00  0.00    -0.127 NA
ATOM      6  C   UNL     1      32.100 -10.743 -21.808  0.00  0.00    +0.149 C 
ATOM      7  C   UNL     1      31.708 -10.749 -20.354  0.00  0.00    +0.039 C 
ATOM      8  C   UNL     1      32.080 -13.086 -20.372  0.00  0.00    +0.187 A 
ATOM      9  C   UNL     1      31.712 -11.911 -19.690  0.00  0.00    +0.044 C 
ATOM     10  C   UNL     1      32.728 -14.229 -22.109  0.00  0.00    +0.187 A 
ATOM     11  H   UNL     1      31.844  -8.756 -21.952  0.00  0.00    +0.148 HD
ENDROOT
BRANCH   1  12
ATOM     12  C   UNL     1      32.426  -9.438 -23.859  0.00  0.00    +0.070 C 
ATOM     13  C   UNL     1      31.801  -8.163 -24.435  0.00  0.00    +0.020 C 
ATOM     14  C   UNL     1      33.948  -9.449 -24.039  0.00  0.00    +0.020 C 
ATOM     15  C   UNL     1      32.476  -6.890 -23.921  0.00  0.00    +0.002 C 
ATOM     16  C   UNL     1      34.614  -8.172 -23.527  0.00  0.00    +0.002 C 
ATOM     17  C   UNL     1      33.984  -6.924 -24.139  0.00  0.00    +0.000 C 
ENDBRANCH   1  12
BRANCH  10  18
ATOM     18  C   UNL     1      33.141 -14.563 -23.451  0.00  0.00    +0.038 C 
ATOM     19  C   UNL     1      32.999 -13.630 -24.478  0.00  0.00    +0.007 C 
ATOM     20  C   UNL     1      33.681 -15.820 -23.720  0.00  0.00    +0.003 C 
ATOM     21  C   UNL     1      33.397 -13.954 -25.774  0.00  0.00    +0.072 C 
ATOM     22  C   UNL     1      34.079 -16.145 -25.017  0.00  0.00    +0.000 C 
ATOM     23  C   UNL     1      33.937 -15.211 -26.045  0.00  0.00    +0.004 C 
BRANCH  21  27
ATOM     24  F   UNL     1      34.194 -13.072 -27.850  0.00  0.00    -0.166 F 
ATOM     25  F   UNL     1      32.050 -13.036 -27.525  0.00  0.00    -0.166 F 
ATOM     26  F   UNL     1      33.336 -11.668 -26.428  0.00  0.00    -0.166 F 
ATOM     27  C   UNL     1      33.247 -12.956 -26.873  0.00  0.00    +0.419 C 
ENDBRANCH  21  27
ENDBRANCH  10  18
TORSDOF 3
ENDMDL
MODEL 8
REMARK VINA RESULT:      -9.9     10.519     14.591
REMARK  Name = 10361208
REMARK  3 active torsions:
REMARK  status: ('A' for Active; 'I' for Inactive)
REMARK    1  A    between atoms: N_1  and  C_12
REMARK    2  A    between atoms: C_10  and  C_18
REMARK    3  A    between atoms: C_21  and  C_27
REMARK                            x       y       z     vdW  Elec       q    Type
REMARK                         _______ _______ _______ _____ _____    ______ ____
ROOT
ATOM      1  N   UNL     1      34.477  -9.773 -25.050  0.00  0.00    -0.318 N 
ATOM      2  N   UNL     1      33.796 -11.875 -24.422  0.00  0.00    -0.147 NA
ATOM      3  N   UNL     1      33.550 -13.140 -24.847  0.00  0.00    -0.190 N 
ATOM      4  N   UNL     1      33.344 -14.910 -26.129  0.00  0.00    -0.127 NA
ATOM      5  N   UNL     1      32.991 -15.259 -24.841  0.00  0.00    -0.127 NA
ATOM      6  C   UNL     1      34.204 -11.050 -25.359  0.00  0.00    +0.149 C 
ATOM      7  C   UNL     1      34.383 -11.480 -26.791  0.00  0.00    +0.039 C 
ATOM      8  C   UNL     1      33.678 -13.637 -26.122  0.00  0.00    +0.187 A 
ATOM      9  C   UNL     1      34.115 -12.749 -27.122  0.00  0.00    +0.044 C 
ATOM     10  C   UNL     1      33.119 -14.189 -24.090  0.00  0.00    +0.187 A 
ATOM     11  H   UNL     1      34.767  -9.166 -25.770  0.00  0.00    +0.148 HD
ENDROOT
BRANCH   1  12
ATOM     12  C   UNL     1      34.364  -9.247 -23.703  0.00  0.00    +0.070 C 
ATOM     13  C   UNL     1      34.956  -7.836 -23.637  0.00  0.00    +0.020 C 
ATOM     14  C   UNL     1      32.900  -9.266 -23.252  0.00  0.00    +0.020 C 
ATOM     15  C   UNL     1      34.093  -6.799 -24.359  0.00  0.00    +0.002 C 
ATOM     16  C   UNL     1      32.046  -8.224 -23.976  0.00  0.00    +0.002 C 
ATOM     17  C   UNL     1      32.650  -6.827 -23.869  0.00  0.00    +0.000 C 
ENDBRANCH   1  12
BRANCH  10  18
ATOM     18  C   UNL     1      32.854 -14.106 -22.673  0.00  0.00    +0.038 C 
ATOM     19  C   UNL     1      32.311 -12.942 -22.131  0.00  0.00    +0.007 C 
ATOM     20  C   UNL     1      33.144 -15.192 -21.847  0.00  0.00    +0.003 C 
ATOM     21  C   UNL     1      32.056 -12.863 -20.763  0.00  0.00    +0.072 C 
ATOM     22  C   UNL     1      32.890 -15.114 -20.478  0.00  0.00    +0.000 C 
ATOM     23  C   UNL     1      32.345 -13.948 -19.935  0.00  0.00    +0.004 C 
BRANCH  21  27
ATOM     24  F   UNL     1      31.384 -11.642 -18.819  0.00  0.00    -0.166 F 
ATOM     25  F   UNL     1      32.188 -10.493 -20.473  0.00  0.00    -0.166 F 
ATOM     26  F   UNL     1      30.206 -11.375 -20.628  0.00  0.00    -0.166 F 
ATOM     27  C   UNL     1      31.473 -11.619 -20.181  0.00  0.00    +0.419 C 
ENDBRANCH  21  27
ENDBRANCH  10  18
TORSDOF 3
ENDMDL
MODEL 9
REMARK VINA RESULT:      -9.9     12.082     15.088
REMARK  Name = 10361208
REMARK  3 active torsions:
REMARK  status: ('A' for Active; 'I' for Inactive)
REMARK    1  A    between atoms: N_1  and  C_12
REMARK    2  A    between atoms: C_10  and  C_18
REMARK    3  A    between atoms: C_21  and  C_27
REMARK                            x       y       z     vdW  Elec       q    Type
REMARK                         _______ _______ _______ _____ _____    ______ ____
ROOT
ATOM      1  N   UNL     1      31.769  -8.767 -21.769  0.00  0.00    -0.318 N 
ATOM      2  N   UNL     1      32.314 -10.837 -22.603  0.00  0.00    -0.147 NA
ATOM      3  N   UNL     1      32.369 -12.166 -22.337  0.00  0.00    -0.190 N 
ATOM      4  N   UNL     1      32.211 -14.099 -21.308  0.00  0.00    -0.127 NA
ATOM      5  N   UNL     1      32.704 -14.319 -22.578  0.00  0.00    -0.127 NA
ATOM      6  C   UNL     1      31.864 -10.098 -21.616  0.00  0.00    +0.149 C 
ATOM      7  C   UNL     1      31.444 -10.684 -20.294  0.00  0.00    +0.039 C 
ATOM      8  C   UNL     1      32.012 -12.805 -21.174  0.00  0.00    +0.187 A 
ATOM      9  C   UNL     1      31.532 -12.007 -20.119  0.00  0.00    +0.044 C 
ATOM     10  C   UNL     1      32.793 -13.153 -23.178  0.00  0.00    +0.187 A 
ATOM     11  H   UNL     1      31.444  -8.228 -21.011  0.00  0.00    +0.148 HD
ENDROOT
BRANCH   1  12
ATOM     12  C   UNL     1      32.123  -8.090 -23.002  0.00  0.00    +0.070 C 
ATOM     13  C   UNL     1      30.859  -7.590 -23.710  0.00  0.00    +0.020 C 
ATOM     14  C   UNL     1      33.096  -6.942 -22.711  0.00  0.00    +0.020 C 
ATOM     15  C   UNL     1      30.201  -6.415 -22.985  0.00  0.00    +0.002 C 
ATOM     16  C   UNL     1      32.429  -5.770 -21.990  0.00  0.00    +0.002 C 
ATOM     17  C   UNL     1      31.190  -5.282 -22.735  0.00  0.00    +0.000 C 
ENDBRANCH   1  12
BRANCH  10  18
ATOM     18  C   UNL     1      33.261 -12.921 -24.523  0.00  0.00    +0.038 C 
ATOM     19  C   UNL     1      34.122 -11.856 -24.789  0.00  0.00    +0.007 C 
ATOM     20  C   UNL     1      32.852 -13.762 -25.557  0.00  0.00    +0.003 C 
ATOM     21  C   UNL     1      34.574 -11.632 -26.089  0.00  0.00    +0.072 C 
ATOM     22  C   UNL     1      33.302 -13.538 -26.859  0.00  0.00    +0.000 C 
ATOM     23  C   UNL     1      34.164 -12.472 -27.124  0.00  0.00    +0.004 C 
BRANCH  21  27
ATOM     24  F   UNL     1      34.988  -9.277 -26.020  0.00  0.00    -0.166 F 
ATOM     25  F   UNL     1      36.693 -10.585 -25.724  0.00  0.00    -0.166 F 
ATOM     26  F   UNL     1      35.806 -10.391 -27.700  0.00  0.00    -0.166 F 
ATOM     27  C   UNL     1      35.496 -10.495 -26.374  0.00  0.00    +0.419 C 
ENDBRANCH  21  27
ENDBRANCH  10  18
TORSDOF 3
ENDMDL
