MODEL 1
REMARK VINA RESULT:      -7.6      0.000      0.000
REMARK  Name = 449582
REMARK  4 active torsions:
REMARK  status: ('A' for Active; 'I' for Inactive)
REMARK    1  A    between atoms: N_2  and  C_12
REMARK    2  A    between atoms: N_4  and  C_18
REMARK    3  A    between atoms: C_12  and  C_15
REMARK    4  A    between atoms: C_12  and  C_16
REMARK                            x       y       z     vdW  Elec       q    Type
REMARK                         _______ _______ _______ _____ _____    ______ ____
ROOT
ATOM      1 CL   UNL     1      34.765 -21.996 -19.791  0.00  0.00    +0.026 Cl
ATOM      2  N   UNL     1      30.759 -22.754 -16.989  0.00  0.00    -0.248 N 
ATOM      3  N   UNL     1      32.840 -23.355 -16.089  0.00  0.00    -0.247 NA
ATOM      4  N   UNL     1      34.950 -23.937 -15.244  0.00  0.00    -0.258 N 
ATOM      5  N   UNL     1      32.680 -22.410 -18.289  0.00  0.00    -0.249 NA
ATOM      6  N   UNL     1      34.823 -23.016 -17.396  0.00  0.00    -0.249 NA
ATOM      7  C   UNL     1      32.131 -22.843 -17.126  0.00  0.00    +0.222 C 
ATOM      8  C   UNL     1      34.166 -23.410 -16.294  0.00  0.00    +0.221 C 
ATOM      9  C   UNL     1      34.016 -22.527 -18.352  0.00  0.00    +0.227 C 
ATOM     10  H   UNL     1      30.239 -22.381 -17.737  0.00  0.00    +0.161 HD
ATOM     11  H   UNL     1      35.925 -23.990 -15.366  0.00  0.00    +0.160 HD
ENDROOT
BRANCH   2  12
ATOM     12  C   UNL     1      30.045 -23.180 -15.799  0.00  0.00    +0.144 C 
ATOM     13  C   UNL     1      29.914 -24.708 -15.855  0.00  0.00    +0.036 C 
BRANCH  12  15
ATOM     14  N   UNL     1      27.637 -22.105 -15.773  0.00  0.00    -0.194 NA
ATOM     15  C   UNL     1      28.697 -22.579 -15.785  0.00  0.00    +0.090 C 
ENDBRANCH  12  15
BRANCH  12  16
ATOM     16  C   UNL     1      30.844 -22.778 -14.540  0.00  0.00    +0.033 C 
ATOM     17  C   UNL     1      30.717 -23.745 -13.364  0.00  0.00    +0.003 C 
ENDBRANCH  12  16
ENDBRANCH   2  12
BRANCH   4  18
ATOM     18  C   UNL     1      34.388 -24.396 -14.013  0.00  0.00    +0.099 C 
ATOM     19  C   UNL     1      35.296 -24.029 -12.855  0.00  0.00    +0.024 C 
ENDBRANCH   4  18
TORSDOF 4
ENDMDL
MODEL 2
REMARK VINA RESULT:      -7.4      1.053      1.987
REMARK  Name = 449582
REMARK  4 active torsions:
REMARK  status: ('A' for Active; 'I' for Inactive)
REMARK    1  A    between atoms: N_2  and  C_12
REMARK    2  A    between atoms: N_4  and  C_18
REMARK    3  A    between atoms: C_12  and  C_15
REMARK    4  A    between atoms: C_12  and  C_16
REMARK                            x       y       z     vdW  Elec       q    Type
REMARK                         _______ _______ _______ _____ _____    ______ ____
ROOT
ATOM      1 CL   UNL     1      34.710 -22.330 -19.533  0.00  0.00    +0.026 Cl
ATOM      2  N   UNL     1      30.636 -22.939 -16.794  0.00  0.00    -0.248 N 
ATOM      3  N   UNL     1      32.702 -23.385 -15.776  0.00  0.00    -0.247 NA
ATOM      4  N   UNL     1      34.799 -23.814 -14.815  0.00  0.00    -0.258 N 
ATOM      5  N   UNL     1      32.589 -22.663 -18.062  0.00  0.00    -0.249 NA
ATOM      6  N   UNL     1      34.717 -23.110 -17.049  0.00  0.00    -0.249 NA
ATOM      7  C   UNL     1      32.014 -22.998 -16.879  0.00  0.00    +0.222 C 
ATOM      8  C   UNL     1      34.035 -23.417 -15.934  0.00  0.00    +0.221 C 
ATOM      9  C   UNL     1      33.929 -22.743 -18.072  0.00  0.00    +0.227 C 
ATOM     10  H   UNL     1      30.131 -22.658 -17.589  0.00  0.00    +0.161 HD
ATOM     11  H   UNL     1      35.779 -23.848 -14.901  0.00  0.00    +0.160 HD
ENDROOT
BRANCH   2  12
ATOM     12  C   UNL     1      29.895 -23.271 -15.590  0.00  0.00    +0.144 C 
ATOM     13  C   UNL     1      30.509 -22.475 -14.429  0.00  0.00    +0.036 C 
BRANCH  12  15
ATOM     14  N   UNL     1      30.122 -25.849 -15.087  0.00  0.00    -0.194 NA
ATOM     15  C   UNL     1      30.022 -24.714 -15.308  0.00  0.00    +0.090 C 
ENDBRANCH  12  15
BRANCH  12  16
ATOM     16  C   UNL     1      28.414 -22.868 -15.763  0.00  0.00    +0.033 C 
ATOM     17  C   UNL     1      27.896 -22.927 -17.199  0.00  0.00    +0.003 C 
ENDBRANCH  12  16
ENDBRANCH   2  12
BRANCH   4  18
ATOM     18  C   UNL     1      34.209 -24.169 -13.562  0.00  0.00    +0.099 C 
ATOM     19  C   UNL     1      35.227 -24.027 -12.446  0.00  0.00    +0.024 C 
ENDBRANCH   4  18
TORSDOF 4
ENDMDL
MODEL 3
REMARK VINA RESULT:      -7.4      2.368      5.363
REMARK  Name = 449582
REMARK  4 active torsions:
REMARK  status: ('A' for Active; 'I' for Inactive)
REMARK    1  A    between atoms: N_2  and  C_12
REMARK    2  A    between atoms: N_4  and  C_18
REMARK    3  A    between atoms: C_12  and  C_15
REMARK    4  A    between atoms: C_12  and  C_16
REMARK                            x       y       z     vdW  Elec       q    Type
REMARK                         _______ _______ _______ _____ _____    ______ ____
ROOT
ATOM      1 CL   UNL     1      29.204 -22.825 -15.294  0.00  0.00    +0.026 Cl
ATOM      2  N   UNL     1      33.947 -23.645 -14.153  0.00  0.00    -0.248 N 
ATOM      3  N   UNL     1      33.445 -23.117 -16.382  0.00  0.00    -0.247 NA
ATOM      4  N   UNL     1      32.880 -22.585 -18.596  0.00  0.00    -0.258 N 
ATOM      5  N   UNL     1      31.709 -23.251 -14.731  0.00  0.00    -0.249 NA
ATOM      6  N   UNL     1      31.164 -22.709 -17.004  0.00  0.00    -0.249 NA
ATOM      7  C   UNL     1      33.008 -23.329 -15.116  0.00  0.00    +0.222 C 
ATOM      8  C   UNL     1      32.477 -22.814 -17.262  0.00  0.00    +0.221 C 
ATOM      9  C   UNL     1      30.854 -22.941 -15.718  0.00  0.00    +0.227 C 
ATOM     10  H   UNL     1      33.637 -23.799 -13.232  0.00  0.00    +0.161 HD
ATOM     11  H   UNL     1      32.192 -22.361 -19.264  0.00  0.00    +0.160 HD
ENDROOT
BRANCH   2  12
ATOM     12  C   UNL     1      35.368 -23.761 -14.429  0.00  0.00    +0.144 C 
ATOM     13  C   UNL     1      35.745 -22.645 -15.413  0.00  0.00    +0.036 C 
BRANCH  12  15
ATOM     14  N   UNL     1      35.870 -26.100 -15.538  0.00  0.00    -0.194 NA
ATOM     15  C   UNL     1      35.649 -25.070 -15.050  0.00  0.00    +0.090 C 
ENDBRANCH  12  15
BRANCH  12  16
ATOM     16  C   UNL     1      36.169 -23.586 -13.120  0.00  0.00    +0.033 C 
ATOM     17  C   UNL     1      35.550 -24.255 -11.894  0.00  0.00    +0.003 C 
ENDBRANCH  12  16
ENDBRANCH   2  12
BRANCH   4  18
ATOM     18  C   UNL     1      34.243 -22.662 -19.018  0.00  0.00    +0.099 C 
ATOM     19  C   UNL     1      34.684 -21.336 -19.609  0.00  0.00    +0.024 C 
ENDBRANCH   4  18
TORSDOF 4
ENDMDL
MODEL 4
REMARK VINA RESULT:      -7.3      2.489      5.745
REMARK  Name = 449582
REMARK  4 active torsions:
REMARK  status: ('A' for Active; 'I' for Inactive)
REMARK    1  A    between atoms: N_2  and  C_12
REMARK    2  A    between atoms: N_4  and  C_18
REMARK    3  A    between atoms: C_12  and  C_15
REMARK    4  A    between atoms: C_12  and  C_16
REMARK                            x       y       z     vdW  Elec       q    Type
REMARK                         _______ _______ _______ _____ _____    ______ ____
ROOT
ATOM      1 CL   UNL     1      29.597 -22.890 -15.025  0.00  0.00    +0.026 Cl
ATOM      2  N   UNL     1      34.454 -23.513 -14.323  0.00  0.00    -0.248 N 
ATOM      3  N   UNL     1      33.723 -23.077 -16.509  0.00  0.00    -0.247 NA
ATOM      4  N   UNL     1      32.931 -22.638 -18.673  0.00  0.00    -0.258 N 
ATOM      5  N   UNL     1      32.158 -23.213 -14.694  0.00  0.00    -0.249 NA
ATOM      6  N   UNL     1      31.380 -22.766 -16.919  0.00  0.00    -0.249 NA
ATOM      7  C   UNL     1      33.417 -23.261 -15.200  0.00  0.00    +0.222 C 
ATOM      8  C   UNL     1      32.665 -22.836 -17.299  0.00  0.00    +0.221 C 
ATOM      9  C   UNL     1      31.202 -22.964 -15.603  0.00  0.00    +0.227 C 
ATOM     10  H   UNL     1      34.239 -23.646 -13.372  0.00  0.00    +0.161 HD
ATOM     11  H   UNL     1      32.175 -22.460 -19.278  0.00  0.00    +0.160 HD
ENDROOT
BRANCH   2  12
ATOM     12  C   UNL     1      35.845 -23.591 -14.731  0.00  0.00    +0.144 C 
ATOM     13  C   UNL     1      36.111 -25.023 -15.214  0.00  0.00    +0.036 C 
BRANCH  12  15
ATOM     14  N   UNL     1      37.408 -23.068 -12.673  0.00  0.00    -0.194 NA
ATOM     15  C   UNL     1      36.720 -23.298 -13.579  0.00  0.00    +0.090 C 
ENDBRANCH  12  15
BRANCH  12  16
ATOM     16  C   UNL     1      36.105 -22.601 -15.888  0.00  0.00    +0.033 C 
ATOM     17  C   UNL     1      37.577 -22.401 -16.244  0.00  0.00    +0.003 C 
ENDBRANCH  12  16
ENDBRANCH   2  12
BRANCH   4  18
ATOM     18  C   UNL     1      34.250 -22.684 -19.221  0.00  0.00    +0.099 C 
ATOM     19  C   UNL     1      34.692 -21.294 -19.636  0.00  0.00    +0.024 C 
ENDBRANCH   4  18
TORSDOF 4
ENDMDL
MODEL 5
REMARK VINA RESULT:      -7.1      1.674      4.876
REMARK  Name = 449582
REMARK  4 active torsions:
REMARK  status: ('A' for Active; 'I' for Inactive)
REMARK    1  A    between atoms: N_2  and  C_12
REMARK    2  A    between atoms: N_4  and  C_18
REMARK    3  A    between atoms: C_12  and  C_15
REMARK    4  A    between atoms: C_12  and  C_16
REMARK                            x       y       z     vdW  Elec       q    Type
REMARK                         _______ _______ _______ _____ _____    ______ ____
ROOT
ATOM      1 CL   UNL     1      33.422 -21.396 -19.946  0.00  0.00    +0.026 Cl
ATOM      2  N   UNL     1      35.943 -23.387 -16.184  0.00  0.00    -0.248 N 
ATOM      3  N   UNL     1      33.604 -23.553 -16.128  0.00  0.00    -0.247 NA
ATOM      4  N   UNL     1      31.262 -23.686 -16.129  0.00  0.00    -0.258 N 
ATOM      5  N   UNL     1      34.715 -22.454 -17.950  0.00  0.00    -0.249 NA
ATOM      6  N   UNL     1      32.321 -22.607 -17.921  0.00  0.00    -0.249 NA
ATOM      7  C   UNL     1      34.720 -23.124 -16.770  0.00  0.00    +0.222 C 
ATOM      8  C   UNL     1      32.454 -23.261 -16.757  0.00  0.00    +0.221 C 
ATOM      9  C   UNL     1      33.493 -22.233 -18.460  0.00  0.00    +0.227 C 
ATOM     10  H   UNL     1      36.757 -23.081 -16.645  0.00  0.00    +0.161 HD
ATOM     11  H   UNL     1      30.403 -23.486 -16.566  0.00  0.00    +0.160 HD
ENDROOT
BRANCH   2  12
ATOM     12  C   UNL     1      36.091 -24.094 -14.925  0.00  0.00    +0.144 C 
ATOM     13  C   UNL     1      37.415 -23.648 -14.290  0.00  0.00    +0.036 C 
BRANCH  12  15
ATOM     14  N   UNL     1      36.176 -26.692 -15.366  0.00  0.00    -0.194 NA
ATOM     15  C   UNL     1      36.139 -25.549 -15.172  0.00  0.00    +0.090 C 
ENDBRANCH  12  15
BRANCH  12  16
ATOM     16  C   UNL     1      34.921 -23.731 -13.983  0.00  0.00    +0.033 C 
ATOM     17  C   UNL     1      35.043 -24.286 -12.565  0.00  0.00    +0.003 C 
ENDBRANCH  12  16
ENDBRANCH   2  12
BRANCH   4  18
ATOM     18  C   UNL     1      31.249 -24.393 -14.887  0.00  0.00    +0.099 C 
ATOM     19  C   UNL     1      30.107 -25.391 -14.866  0.00  0.00    +0.024 C 
ENDBRANCH   4  18
TORSDOF 4
ENDMDL
MODEL 6
REMARK VINA RESULT:      -7.1      2.172      5.122
REMARK  Name = 449582
REMARK  4 active torsions:
REMARK  status: ('A' for Active; 'I' for Inactive)
REMARK    1  A    between atoms: N_2  and  C_12
REMARK    2  A    between atoms: N_4  and  C_18
REMARK    3  A    between atoms: C_12  and  C_15
REMARK    4  A    between atoms: C_12  and  C_16
REMARK                            x       y       z     vdW  Elec       q    Type
REMARK                         _______ _______ _______ _____ _____    ______ ____
ROOT
ATOM      1 CL   UNL     1      36.597 -20.719 -20.196  0.00  0.00    +0.026 Cl
ATOM      2  N   UNL     1      36.940 -23.108 -15.878  0.00  0.00    -0.248 N 
ATOM      3  N   UNL     1      34.824 -22.989 -16.885  0.00  0.00    -0.247 NA
ATOM      4  N   UNL     1      32.736 -22.836 -17.942  0.00  0.00    -0.258 N 
ATOM      5  N   UNL     1      36.739 -21.982 -17.925  0.00  0.00    -0.249 NA
ATOM      6  N   UNL     1      34.588 -21.844 -18.980  0.00  0.00    -0.249 NA
ATOM      7  C   UNL     1      36.145 -22.682 -16.925  0.00  0.00    +0.222 C 
ATOM      8  C   UNL     1      34.117 -22.543 -17.936  0.00  0.00    +0.221 C 
ATOM      9  C   UNL     1      35.907 -21.601 -18.907  0.00  0.00    +0.227 C 
ATOM     10  H   UNL     1      37.898 -22.890 -15.901  0.00  0.00    +0.161 HD
ATOM     11  H   UNL     1      32.191 -22.521 -18.699  0.00  0.00    +0.160 HD
ENDROOT
BRANCH   2  12
ATOM     12  C   UNL     1      36.433 -23.863 -14.746  0.00  0.00    +0.144 C 
ATOM     13  C   UNL     1      37.490 -23.807 -13.635  0.00  0.00    +0.036 C 
BRANCH  12  15
ATOM     14  N   UNL     1      36.051 -26.375 -15.451  0.00  0.00    -0.194 NA
ATOM     15  C   UNL     1      36.220 -25.270 -15.141  0.00  0.00    +0.090 C 
ENDBRANCH  12  15
BRANCH  12  16
ATOM     16  C   UNL     1      35.120 -23.225 -14.240  0.00  0.00    +0.033 C 
ATOM     17  C   UNL     1      34.188 -24.180 -13.497  0.00  0.00    +0.003 C 
ENDBRANCH  12  16
ENDBRANCH   2  12
BRANCH   4  18
ATOM     18  C   UNL     1      32.095 -23.572 -16.898  0.00  0.00    +0.099 C 
ATOM     19  C   UNL     1      30.841 -22.850 -16.443  0.00  0.00    +0.024 C 
ENDBRANCH   4  18
TORSDOF 4
ENDMDL
MODEL 7
REMARK VINA RESULT:      -7.0      9.024     10.967
REMARK  Name = 449582
REMARK  4 active torsions:
REMARK  status: ('A' for Active; 'I' for Inactive)
REMARK    1  A    between atoms: N_2  and  C_12
REMARK    2  A    between atoms: N_4  and  C_18
REMARK    3  A    between atoms: C_12  and  C_15
REMARK    4  A    between atoms: C_12  and  C_16
REMARK                            x       y       z     vdW  Elec       q    Type
REMARK                         _______ _______ _______ _____ _____    ______ ____
ROOT
ATOM      1 CL   UNL     1      33.095 -14.208 -27.470  0.00  0.00    +0.026 Cl
ATOM      2  N   UNL     1      32.706 -13.935 -22.546  0.00  0.00    -0.248 N 
ATOM      3  N   UNL     1      33.949 -15.713 -23.437  0.00  0.00    -0.247 NA
ATOM      4  N   UNL     1      35.180 -17.469 -24.389  0.00  0.00    -0.258 N 
ATOM      5  N   UNL     1      32.911 -14.098 -24.877  0.00  0.00    -0.249 NA
ATOM      6  N   UNL     1      34.176 -15.906 -25.818  0.00  0.00    -0.249 NA
ATOM      7  C   UNL     1      33.203 -14.601 -23.650  0.00  0.00    +0.222 C 
ATOM      8  C   UNL     1      34.397 -16.306 -24.556  0.00  0.00    +0.221 C 
ATOM      9  C   UNL     1      33.426 -14.795 -25.902  0.00  0.00    +0.227 C 
ATOM     10  H   UNL     1      32.165 -13.126 -22.694  0.00  0.00    +0.161 HD
ATOM     11  H   UNL     1      35.522 -17.926 -25.191  0.00  0.00    +0.160 HD
ENDROOT
BRANCH   2  12
ATOM     12  C   UNL     1      32.942 -14.365 -21.180  0.00  0.00    +0.144 C 
ATOM     13  C   UNL     1      34.456 -14.541 -21.000  0.00  0.00    +0.036 C 
BRANCH  12  15
ATOM     14  N   UNL     1      31.745 -16.676 -20.756  0.00  0.00    -0.194 NA
ATOM     15  C   UNL     1      32.272 -15.659 -20.943  0.00  0.00    +0.090 C 
ENDBRANCH  12  15
BRANCH  12  16
ATOM     16  C   UNL     1      32.428 -13.288 -20.198  0.00  0.00    +0.033 C 
ATOM     17  C   UNL     1      31.716 -12.108 -20.856  0.00  0.00    +0.003 C 
ENDBRANCH  12  16
ENDBRANCH   2  12
BRANCH   4  18
ATOM     18  C   UNL     1      35.496 -18.012 -23.105  0.00  0.00    +0.099 C 
ATOM     19  C   UNL     1      34.640 -19.233 -22.828  0.00  0.00    +0.024 C 
ENDBRANCH   4  18
TORSDOF 4
ENDMDL
MODEL 8
REMARK VINA RESULT:      -6.9      2.654      6.141
REMARK  Name = 449582
REMARK  4 active torsions:
REMARK  status: ('A' for Active; 'I' for Inactive)
REMARK    1  A    between atoms: N_2  and  C_12
REMARK    2  A    between atoms: N_4  and  C_18
REMARK    3  A    between atoms: C_12  and  C_15
REMARK    4  A    between atoms: C_12  and  C_16
REMARK                            x       y       z     vdW  Elec       q    Type
REMARK                         _______ _______ _______ _____ _____    ______ ____
ROOT
ATOM      1 CL   UNL     1      35.969 -21.665 -18.639  0.00  0.00    +0.026 Cl
ATOM      2  N   UNL     1      37.879 -23.850 -14.633  0.00  0.00    -0.248 N 
ATOM      3  N   UNL     1      35.542 -23.812 -14.835  0.00  0.00    -0.247 NA
ATOM      4  N   UNL     1      33.212 -23.741 -15.094  0.00  0.00    -0.258 N 
ATOM      5  N   UNL     1      36.937 -22.821 -16.518  0.00  0.00    -0.249 NA
ATOM      6  N   UNL     1      34.550 -22.766 -16.753  0.00  0.00    -0.249 NA
ATOM      7  C   UNL     1      36.755 -23.485 -15.348  0.00  0.00    +0.222 C 
ATOM      8  C   UNL     1      34.498 -23.424 -15.585  0.00  0.00    +0.221 C 
ATOM      9  C   UNL     1      35.803 -22.498 -17.158  0.00  0.00    +0.227 C 
ATOM     10  H   UNL     1      38.762 -23.618 -15.000  0.00  0.00    +0.161 HD
ATOM     11  H   UNL     1      32.426 -23.469 -15.622  0.00  0.00    +0.160 HD
ENDROOT
BRANCH   2  12
ATOM     12  C   UNL     1      37.826 -24.562 -13.368  0.00  0.00    +0.144 C 
ATOM     13  C   UNL     1      36.605 -25.491 -13.406  0.00  0.00    +0.036 C 
BRANCH  12  15
ATOM     14  N   UNL     1      37.543 -22.841 -11.391  0.00  0.00    -0.194 NA
ATOM     15  C   UNL     1      37.668 -23.598 -12.261  0.00  0.00    +0.090 C 
ENDBRANCH  12  15
BRANCH  12  16
ATOM     16  C   UNL     1      39.108 -25.405 -13.190  0.00  0.00    +0.033 C 
ATOM     17  C   UNL     1      40.010 -25.469 -14.422  0.00  0.00    +0.003 C 
ENDBRANCH  12  16
ENDBRANCH   2  12
BRANCH   4  18
ATOM     18  C   UNL     1      33.002 -24.439 -13.864  0.00  0.00    +0.099 C 
ATOM     19  C   UNL     1      31.590 -24.990 -13.811  0.00  0.00    +0.024 C 
ENDBRANCH   4  18
TORSDOF 4
ENDMDL
MODEL 9
REMARK VINA RESULT:      -6.9      8.375     10.788
REMARK  Name = 449582
REMARK  4 active torsions:
REMARK  status: ('A' for Active; 'I' for Inactive)
REMARK    1  A    between atoms: N_2  and  C_12
REMARK    2  A    between atoms: N_4  and  C_18
REMARK    3  A    between atoms: C_12  and  C_15
REMARK    4  A    between atoms: C_12  and  C_16
REMARK                            x       y       z     vdW  Elec       q    Type
REMARK                         _______ _______ _______ _____ _____    ______ ____
ROOT
ATOM      1 CL   UNL     1      33.336 -14.521 -26.859  0.00  0.00    +0.026 Cl
ATOM      2  N   UNL     1      34.600 -17.202 -22.898  0.00  0.00    -0.248 N 
ATOM      3  N   UNL     1      33.437 -15.199 -22.524  0.00  0.00    -0.247 NA
ATOM      4  N   UNL     1      32.273 -13.186 -22.215  0.00  0.00    -0.258 N 
ATOM      5  N   UNL     1      33.986 -15.904 -24.752  0.00  0.00    -0.249 NA
ATOM      6  N   UNL     1      32.795 -13.850 -24.402  0.00  0.00    -0.249 NA
ATOM      7  C   UNL     1      33.991 -16.070 -23.405  0.00  0.00    +0.222 C 
ATOM      8  C   UNL     1      32.864 -14.125 -23.090  0.00  0.00    +0.221 C 
ATOM      9  C   UNL     1      33.377 -14.784 -25.172  0.00  0.00    +0.227 C 
ATOM     10  H   UNL     1      35.002 -17.838 -23.531  0.00  0.00    +0.161 HD
ATOM     11  H   UNL     1      31.845 -12.388 -22.601  0.00  0.00    +0.160 HD
ENDROOT
BRANCH   2  12
ATOM     12  C   UNL     1      34.677 -17.501 -21.479  0.00  0.00    +0.144 C 
ATOM     13  C   UNL     1      34.832 -16.172 -20.729  0.00  0.00    +0.036 C 
BRANCH  12  15
ATOM     14  N   UNL     1      36.782 -19.016 -21.003  0.00  0.00    -0.194 NA
ATOM     15  C   UNL     1      35.855 -18.349 -21.212  0.00  0.00    +0.090 C 
ENDBRANCH  12  15
BRANCH  12  16
ATOM     16  C   UNL     1      33.377 -18.201 -21.024  0.00  0.00    +0.033 C 
ATOM     17  C   UNL     1      33.445 -19.726 -20.996  0.00  0.00    +0.003 C 
ENDBRANCH  12  16
ENDBRANCH   2  12
BRANCH   4  18
ATOM     18  C   UNL     1      32.269 -13.346 -20.795  0.00  0.00    +0.099 C 
ATOM     19  C   UNL     1      31.822 -12.060 -20.126  0.00  0.00    +0.024 C 
ENDBRANCH   4  18
TORSDOF 4
ENDMDL
