MODEL 1
REMARK VINA RESULT:     -11.3      0.000      0.000
REMARK  Name = 447653
REMARK  8 active torsions:
REMARK  status: ('A' for Active; 'I' for Inactive)
REMARK    1  A    between atoms: N_2  and  C_20
REMARK    2  A    between atoms: C_4  and  C_11
REMARK    3  A    between atoms: C_19  and  O_25
REMARK    4  A    between atoms: O_25  and  C_26
REMARK    5  A    between atoms: C_26  and  C_27
REMARK    6  A    between atoms: C_27  and  O_28
REMARK    7  A    between atoms: C_27  and  C_30
REMARK    8  A    between atoms: C_30  and  N_31
REMARK                            x       y       z     vdW  Elec       q    Type
REMARK                         _______ _______ _______ _____ _____    ______ ____
ROOT
ATOM      1  N   UNL     1      34.478 -22.795 -17.166  0.00  0.00    -0.340 NA
ATOM      2  N   UNL     1      32.753 -22.018 -18.553  0.00  0.00    -0.247 N 
ATOM      3  N   UNL     1      32.179 -23.361 -16.716  0.00  0.00    -0.170 NA
ATOM      4  C   UNL     1      34.822 -23.515 -16.081  0.00  0.00    +0.148 C 
ATOM      5  C   UNL     1      33.925 -24.176 -15.274  0.00  0.00    +0.052 C 
ATOM      6  C   UNL     1      33.156 -22.761 -17.423  0.00  0.00    +0.148 C 
ATOM      7  C   UNL     1      32.600 -24.063 -15.645  0.00  0.00    +0.114 C 
ATOM      8  H   UNL     1      31.779 -22.020 -18.701  0.00  0.00    +0.165 HD
ENDROOT
BRANCH   4  11
ATOM      9  N   UNL     1      36.890 -24.579 -15.177  0.00  0.00    -0.251 N 
ATOM     10  N   UNL     1      38.449 -23.051 -15.661  0.00  0.00    -0.393 NA
ATOM     11  C   UNL     1      36.241 -23.549 -15.809  0.00  0.00    +0.181 C 
ATOM     12  C   UNL     1      38.236 -24.228 -15.110  0.00  0.00    +0.187 C 
ATOM     13  C   UNL     1      37.219 -22.626 -16.095  0.00  0.00    +0.114 C 
ATOM     14  C   UNL     1      36.378 -25.771 -14.673  0.00  0.00    +0.068 C 
ATOM     15  C   UNL     1      39.117 -25.160 -14.486  0.00  0.00    +0.048 C 
ATOM     16  C   UNL     1      37.085 -21.324 -16.770  0.00  0.00    +0.064 C 
ATOM     17  C   UNL     1      37.214 -26.643 -14.086  0.00  0.00    +0.016 C 
ATOM     18  C   UNL     1      38.628 -26.315 -13.996  0.00  0.00    +0.005 C 
ENDBRANCH   4  11
BRANCH   2  20
ATOM     19  C   UNL     1      34.887 -19.792 -21.404  0.00  0.00    +0.139 C 
ATOM     20  C   UNL     1      33.468 -21.273 -19.508  0.00  0.00    +0.058 C 
ATOM     21  C   UNL     1      35.552 -20.722 -20.604  0.00  0.00    +0.038 C 
ATOM     22  C   UNL     1      33.513 -19.601 -21.256  0.00  0.00    +0.038 C 
ATOM     23  C   UNL     1      34.843 -21.461 -19.658  0.00  0.00    +0.018 C 
ATOM     24  C   UNL     1      32.804 -20.340 -20.309  0.00  0.00    +0.018 C 
BRANCH  19  25
ATOM     25  O   UNL     1      35.579 -19.070 -22.328  0.00  0.00    -0.473 OA
BRANCH  25  26
ATOM     26  C   UNL     1      35.065 -19.057 -23.658  0.00  0.00    +0.232 C 
BRANCH  26  27
ATOM     27  C   UNL     1      35.059 -17.618 -24.170  0.00  0.00    +0.133 C 
BRANCH  27  28
ATOM     28  O   UNL     1      34.646 -17.620 -25.539  0.00  0.00    -0.383 OA
ATOM     29  H   UNL     1      33.727 -17.924 -25.600  0.00  0.00    +0.210 HD
ENDBRANCH  27  28
BRANCH  27  30
ATOM     30  C   UNL     1      34.114 -16.702 -23.388  0.00  0.00    -0.044 C 
BRANCH  30  31
ATOM     31  N   UNL     1      34.839 -15.731 -22.578  0.00  0.00    +0.386 N 
ATOM     32  C   UNL     1      34.413 -14.368 -22.902  0.00  0.00    -0.101 C 
ATOM     33  C   UNL     1      34.640 -15.998 -21.152  0.00  0.00    -0.101 C 
ATOM     34  H   UNL     1      35.832 -15.820 -22.791  0.00  0.00    -0.080 HD
ENDBRANCH  30  31
ENDBRANCH  27  30
ENDBRANCH  26  27
ENDBRANCH  25  26
ENDBRANCH  19  25
ENDBRANCH   2  20
TORSDOF 8
ENDMDL
MODEL 2
REMARK VINA RESULT:     -10.8      1.201      1.801
REMARK  Name = 447653
REMARK  8 active torsions:
REMARK  status: ('A' for Active; 'I' for Inactive)
REMARK    1  A    between atoms: N_2  and  C_20
REMARK    2  A    between atoms: C_4  and  C_11
REMARK    3  A    between atoms: C_19  and  O_25
REMARK    4  A    between atoms: O_25  and  C_26
REMARK    5  A    between atoms: C_26  and  C_27
REMARK    6  A    between atoms: C_27  and  O_28
REMARK    7  A    between atoms: C_27  and  C_30
REMARK    8  A    between atoms: C_30  and  N_31
REMARK                            x       y       z     vdW  Elec       q    Type
REMARK                         _______ _______ _______ _____ _____    ______ ____
ROOT
ATOM      1  N   UNL     1      34.432 -22.968 -16.872  0.00  0.00    -0.340 NA
ATOM      2  N   UNL     1      32.701 -22.250 -18.284  0.00  0.00    -0.247 N 
ATOM      3  N   UNL     1      32.142 -23.582 -16.433  0.00  0.00    -0.170 NA
ATOM      4  C   UNL     1      34.783 -23.664 -15.773  0.00  0.00    +0.148 C 
ATOM      5  C   UNL     1      33.894 -24.335 -14.965  0.00  0.00    +0.052 C 
ATOM      6  C   UNL     1      33.111 -22.969 -17.140  0.00  0.00    +0.148 C 
ATOM      7  C   UNL     1      32.571 -24.259 -15.349  0.00  0.00    +0.114 C 
ATOM      8  H   UNL     1      31.729 -22.277 -18.440  0.00  0.00    +0.165 HD
ENDROOT
BRANCH   4  11
ATOM      9  N   UNL     1      36.823 -24.524 -14.624  0.00  0.00    -0.251 N 
ATOM     10  N   UNL     1      38.418 -23.189 -15.445  0.00  0.00    -0.393 NA
ATOM     11  C   UNL     1      36.200 -23.662 -15.489  0.00  0.00    +0.181 C 
ATOM     12  C   UNL     1      38.176 -24.195 -14.631  0.00  0.00    +0.187 C 
ATOM     13  C   UNL     1      37.199 -22.854 -15.979  0.00  0.00    +0.114 C 
ATOM     14  C   UNL     1      36.284 -25.550 -13.853  0.00  0.00    +0.068 C 
ATOM     15  C   UNL     1      39.034 -24.968 -13.794  0.00  0.00    +0.048 C 
ATOM     16  C   UNL     1      37.096 -21.750 -16.947  0.00  0.00    +0.064 C 
ATOM     17  C   UNL     1      37.098 -26.273 -13.068  0.00  0.00    +0.016 C 
ATOM     18  C   UNL     1      38.519 -25.962 -13.046  0.00  0.00    +0.005 C 
ENDBRANCH   4  11
BRANCH   2  20
ATOM     19  C   UNL     1      34.811 -20.019 -21.149  0.00  0.00    +0.139 C 
ATOM     20  C   UNL     1      33.408 -21.502 -19.243  0.00  0.00    +0.058 C 
ATOM     21  C   UNL     1      33.460 -19.758 -20.917  0.00  0.00    +0.038 C 
ATOM     22  C   UNL     1      35.460 -21.021 -20.429  0.00  0.00    +0.038 C 
ATOM     23  C   UNL     1      32.760 -20.499 -19.965  0.00  0.00    +0.018 C 
ATOM     24  C   UNL     1      34.760 -21.763 -19.477  0.00  0.00    +0.018 C 
BRANCH  19  25
ATOM     25  O   UNL     1      35.495 -19.296 -22.078  0.00  0.00    -0.473 OA
BRANCH  25  26
ATOM     26  C   UNL     1      35.632 -17.896 -21.837  0.00  0.00    +0.232 C 
BRANCH  26  27
ATOM     27  C   UNL     1      34.629 -17.145 -22.709  0.00  0.00    +0.133 C 
BRANCH  27  28
ATOM     28  O   UNL     1      33.868 -16.264 -21.878  0.00  0.00    -0.383 OA
ATOM     29  H   UNL     1      34.278 -16.212 -21.000  0.00  0.00    +0.210 HD
ENDBRANCH  27  28
BRANCH  27  30
ATOM     30  C   UNL     1      35.287 -16.312 -23.811  0.00  0.00    -0.044 C 
BRANCH  30  31
ATOM     31  N   UNL     1      34.774 -16.648 -25.132  0.00  0.00    +0.386 N 
ATOM     32  C   UNL     1      34.352 -18.049 -25.181  0.00  0.00    -0.101 C 
ATOM     33  C   UNL     1      33.659 -15.770 -25.492  0.00  0.00    -0.101 C 
ATOM     34  H   UNL     1      35.526 -16.512 -25.807  0.00  0.00    -0.080 HD
ENDBRANCH  30  31
ENDBRANCH  27  30
ENDBRANCH  26  27
ENDBRANCH  25  26
ENDBRANCH  19  25
ENDBRANCH   2  20
TORSDOF 8
ENDMDL
MODEL 3
REMARK VINA RESULT:     -10.7      2.826     11.155
REMARK  Name = 447653
REMARK  8 active torsions:
REMARK  status: ('A' for Active; 'I' for Inactive)
REMARK    1  A    between atoms: N_2  and  C_20
REMARK    2  A    between atoms: C_4  and  C_11
REMARK    3  A    between atoms: C_19  and  O_25
REMARK    4  A    between atoms: O_25  and  C_26
REMARK    5  A    between atoms: C_26  and  C_27
REMARK    6  A    between atoms: C_27  and  O_28
REMARK    7  A    between atoms: C_27  and  C_30
REMARK    8  A    between atoms: C_30  and  N_31
REMARK                            x       y       z     vdW  Elec       q    Type
REMARK                         _______ _______ _______ _____ _____    ______ ____
ROOT
ATOM      1  N   UNL     1      33.763 -15.676 -23.527  0.00  0.00    -0.340 NA
ATOM      2  N   UNL     1      34.790 -17.633 -24.315  0.00  0.00    -0.247 N 
ATOM      3  N   UNL     1      34.126 -16.021 -25.885  0.00  0.00    -0.170 NA
ATOM      4  C   UNL     1      33.204 -14.489 -23.831  0.00  0.00    +0.148 C 
ATOM      5  C   UNL     1      33.069 -14.002 -25.111  0.00  0.00    +0.052 C 
ATOM      6  C   UNL     1      34.198 -16.382 -24.590  0.00  0.00    +0.148 C 
ATOM      7  C   UNL     1      33.554 -14.821 -26.110  0.00  0.00    +0.114 C 
ATOM      8  H   UNL     1      35.093 -18.113 -25.120  0.00  0.00    +0.165 HD
ENDROOT
BRANCH   4  11
ATOM      9  N   UNL     1      32.573 -12.374 -22.669  0.00  0.00    -0.251 N 
ATOM     10  N   UNL     1      31.991 -13.113 -20.640  0.00  0.00    -0.393 NA
ATOM     11  C   UNL     1      32.740 -13.735 -22.689  0.00  0.00    +0.181 C 
ATOM     12  C   UNL     1      32.115 -12.042 -21.396  0.00  0.00    +0.187 C 
ATOM     13  C   UNL     1      32.376 -14.164 -21.434  0.00  0.00    +0.114 C 
ATOM     14  C   UNL     1      32.794 -11.439 -23.676  0.00  0.00    +0.068 C 
ATOM     15  C   UNL     1      31.868 -10.662 -21.137  0.00  0.00    +0.048 C 
ATOM     16  C   UNL     1      32.362 -15.536 -20.900  0.00  0.00    +0.064 C 
ATOM     17  C   UNL     1      32.559 -10.141 -23.424  0.00  0.00    +0.016 C 
ATOM     18  C   UNL     1      32.080  -9.752 -22.107  0.00  0.00    +0.005 C 
ENDBRANCH   4  11
BRANCH   2  20
ATOM     19  C   UNL     1      35.518 -19.713 -20.739  0.00  0.00    +0.139 C 
ATOM     20  C   UNL     1      35.035 -18.330 -23.116  0.00  0.00    +0.058 C 
ATOM     21  C   UNL     1      36.534 -18.958 -21.326  0.00  0.00    +0.038 C 
ATOM     22  C   UNL     1      34.261 -19.778 -21.340  0.00  0.00    +0.038 C 
ATOM     23  C   UNL     1      36.292 -18.267 -22.513  0.00  0.00    +0.018 C 
ATOM     24  C   UNL     1      34.019 -19.087 -22.528  0.00  0.00    +0.018 C 
BRANCH  19  25
ATOM     25  O   UNL     1      35.755 -20.387 -19.580  0.00  0.00    -0.473 OA
BRANCH  25  26
ATOM     26  C   UNL     1      35.752 -21.812 -19.647  0.00  0.00    +0.232 C 
BRANCH  26  27
ATOM     27  C   UNL     1      34.508 -22.337 -18.935  0.00  0.00    +0.133 C 
BRANCH  27  28
ATOM     28  O   UNL     1      34.133 -23.584 -19.527  0.00  0.00    -0.383 OA
ATOM     29  H   UNL     1      34.826 -23.873 -20.141  0.00  0.00    +0.210 HD
ENDBRANCH  27  28
BRANCH  27  30
ATOM     30  C   UNL     1      34.718 -22.564 -17.436  0.00  0.00    -0.044 C 
BRANCH  30  31
ATOM     31  N   UNL     1      33.777 -23.534 -16.892  0.00  0.00    +0.386 N 
ATOM     32  C   UNL     1      34.176 -23.940 -15.543  0.00  0.00    -0.101 C 
ATOM     33  C   UNL     1      32.420 -22.982 -16.874  0.00  0.00    -0.101 C 
ATOM     34  H   UNL     1      33.786 -24.356 -17.494  0.00  0.00    -0.080 HD
ENDBRANCH  30  31
ENDBRANCH  27  30
ENDBRANCH  26  27
ENDBRANCH  25  26
ENDBRANCH  19  25
ENDBRANCH   2  20
TORSDOF 8
ENDMDL
MODEL 4
REMARK VINA RESULT:      -9.6      7.361     11.979
REMARK  Name = 447653
REMARK  8 active torsions:
REMARK  status: ('A' for Active; 'I' for Inactive)
REMARK    1  A    between atoms: N_2  and  C_20
REMARK    2  A    between atoms: C_4  and  C_11
REMARK    3  A    between atoms: C_19  and  O_25
REMARK    4  A    between atoms: O_25  and  C_26
REMARK    5  A    between atoms: C_26  and  C_27
REMARK    6  A    between atoms: C_27  and  O_28
REMARK    7  A    between atoms: C_27  and  C_30
REMARK    8  A    between atoms: C_30  and  N_31
REMARK                            x       y       z     vdW  Elec       q    Type
REMARK                         _______ _______ _______ _____ _____    ______ ____
ROOT
ATOM      1  N   UNL     1      33.500 -13.184 -24.261  0.00  0.00    -0.340 NA
ATOM      2  N   UNL     1      33.372 -11.148 -25.422  0.00  0.00    -0.247 N 
ATOM      3  N   UNL     1      33.393 -13.136 -26.669  0.00  0.00    -0.170 NA
ATOM      4  C   UNL     1      33.548 -14.528 -24.333  0.00  0.00    +0.148 C 
ATOM      5  C   UNL     1      33.523 -15.241 -25.509  0.00  0.00    +0.052 C 
ATOM      6  C   UNL     1      33.424 -12.559 -25.453  0.00  0.00    +0.148 C 
ATOM      7  C   UNL     1      33.445 -14.484 -26.660  0.00  0.00    +0.114 C 
ATOM      8  H   UNL     1      33.316 -10.735 -26.314  0.00  0.00    +0.165 HD
ENDROOT
BRANCH   4  11
ATOM      9  N   UNL     1      34.295 -16.372 -22.828  0.00  0.00    -0.251 N 
ATOM     10  N   UNL     1      33.415 -15.757 -20.867  0.00  0.00    -0.393 NA
ATOM     11  C   UNL     1      33.629 -15.194 -23.053  0.00  0.00    +0.181 C 
ATOM     12  C   UNL     1      34.135 -16.675 -21.479  0.00  0.00    +0.187 C 
ATOM     13  C   UNL     1      33.099 -14.838 -21.836  0.00  0.00    +0.114 C 
ATOM     14  C   UNL     1      35.012 -17.168 -23.717  0.00  0.00    +0.068 C 
ATOM     15  C   UNL     1      34.749 -17.872 -21.007  0.00  0.00    +0.048 C 
ATOM     16  C   UNL     1      32.287 -13.659 -21.496  0.00  0.00    +0.064 C 
ATOM     17  C   UNL     1      35.587 -18.294 -23.265  0.00  0.00    +0.016 C 
ATOM     18  C   UNL     1      35.444 -18.647 -21.862  0.00  0.00    +0.005 C 
ENDBRANCH   4  11
BRANCH   2  20
ATOM     19  C   UNL     1      33.403  -8.371 -22.271  0.00  0.00    +0.139 C 
ATOM     20  C   UNL     1      33.383 -10.217 -24.367  0.00  0.00    +0.058 C 
ATOM     21  C   UNL     1      34.369  -8.298 -23.275  0.00  0.00    +0.038 C 
ATOM     22  C   UNL     1      32.428  -9.367 -22.314  0.00  0.00    +0.038 C 
ATOM     23  C   UNL     1      34.358  -9.220 -24.322  0.00  0.00    +0.018 C 
ATOM     24  C   UNL     1      32.417 -10.289 -23.360  0.00  0.00    +0.018 C 
BRANCH  19  25
ATOM     25  O   UNL     1      33.414  -7.471 -21.250  0.00  0.00    -0.473 OA
BRANCH  25  26
ATOM     26  C   UNL     1      32.151  -7.093 -20.705  0.00  0.00    +0.232 C 
BRANCH  26  27
ATOM     27  C   UNL     1      31.419  -6.217 -21.718  0.00  0.00    +0.133 C 
BRANCH  27  28
ATOM     28  O   UNL     1      30.525  -5.351 -21.015  0.00  0.00    -0.383 OA
ATOM     29  H   UNL     1      29.647  -5.760 -20.967  0.00  0.00    +0.210 HD
ENDBRANCH  27  28
BRANCH  27  30
ATOM     30  C   UNL     1      32.358  -5.351 -22.561  0.00  0.00    -0.044 C 
BRANCH  30  31
ATOM     31  N   UNL     1      31.960  -5.314 -23.962  0.00  0.00    +0.386 N 
ATOM     32  C   UNL     1      31.114  -6.464 -24.289  0.00  0.00    -0.101 C 
ATOM     33  C   UNL     1      31.258  -4.066 -24.266  0.00  0.00    -0.101 C 
ATOM     34  H   UNL     1      32.804  -5.360 -24.532  0.00  0.00    -0.080 HD
ENDBRANCH  30  31
ENDBRANCH  27  30
ENDBRANCH  26  27
ENDBRANCH  25  26
ENDBRANCH  19  25
ENDBRANCH   2  20
TORSDOF 8
ENDMDL
MODEL 5
REMARK VINA RESULT:      -9.6      1.625      3.991
REMARK  Name = 447653
REMARK  8 active torsions:
REMARK  status: ('A' for Active; 'I' for Inactive)
REMARK    1  A    between atoms: N_2  and  C_20
REMARK    2  A    between atoms: C_4  and  C_11
REMARK    3  A    between atoms: C_19  and  O_25
REMARK    4  A    between atoms: O_25  and  C_26
REMARK    5  A    between atoms: C_26  and  C_27
REMARK    6  A    between atoms: C_27  and  O_28
REMARK    7  A    between atoms: C_27  and  C_30
REMARK    8  A    between atoms: C_30  and  N_31
REMARK                            x       y       z     vdW  Elec       q    Type
REMARK                         _______ _______ _______ _____ _____    ______ ____
ROOT
ATOM      1  N   UNL     1      35.030 -22.339 -17.366  0.00  0.00    -0.340 NA
ATOM      2  N   UNL     1      36.915 -21.457 -18.449  0.00  0.00    -0.247 N 
ATOM      3  N   UNL     1      37.252 -22.795 -16.551  0.00  0.00    -0.170 NA
ATOM      4  C   UNL     1      34.552 -23.089 -16.355  0.00  0.00    +0.148 C 
ATOM      5  C   UNL     1      35.340 -23.715 -15.416  0.00  0.00    +0.052 C 
ATOM      6  C   UNL     1      36.373 -22.235 -17.404  0.00  0.00    +0.148 C 
ATOM      7  C   UNL     1      36.699 -23.530 -15.565  0.00  0.00    +0.114 C 
ATOM      8  H   UNL     1      37.899 -21.409 -18.438  0.00  0.00    +0.165 HD
ENDROOT
BRANCH   4  11
ATOM      9  N   UNL     1      32.403 -23.826 -15.326  0.00  0.00    -0.251 N 
ATOM     10  N   UNL     1      30.898 -23.054 -16.788  0.00  0.00    -0.393 NA
ATOM     11  C   UNL     1      33.112 -23.199 -16.318  0.00  0.00    +0.181 C 
ATOM     12  C   UNL     1      31.056 -23.712 -15.658  0.00  0.00    +0.187 C 
ATOM     13  C   UNL     1      32.167 -22.733 -17.201  0.00  0.00    +0.114 C 
ATOM     14  C   UNL     1      32.862 -24.474 -14.182  0.00  0.00    +0.068 C 
ATOM     15  C   UNL     1      30.115 -24.299 -14.761  0.00  0.00    +0.048 C 
ATOM     16  C   UNL     1      32.367 -21.984 -18.452  0.00  0.00    +0.064 C 
ATOM     17  C   UNL     1      31.970 -25.024 -13.342  0.00  0.00    +0.016 C 
ATOM     18  C   UNL     1      30.553 -24.927 -13.653  0.00  0.00    +0.005 C 
ENDBRANCH   4  11
BRANCH   2  20
ATOM     19  C   UNL     1      35.156 -19.306 -21.599  0.00  0.00    +0.139 C 
ATOM     20  C   UNL     1      36.327 -20.736 -19.505  0.00  0.00    +0.058 C 
ATOM     21  C   UNL     1      36.469 -19.033 -21.216  0.00  0.00    +0.038 C 
ATOM     22  C   UNL     1      34.427 -20.292 -20.935  0.00  0.00    +0.038 C 
ATOM     23  C   UNL     1      37.054 -19.748 -20.170  0.00  0.00    +0.018 C 
ATOM     24  C   UNL     1      35.011 -21.007 -19.889  0.00  0.00    +0.018 C 
BRANCH  19  25
ATOM     25  O   UNL     1      34.586 -18.608 -22.619  0.00  0.00    -0.473 OA
BRANCH  25  26
ATOM     26  C   UNL     1      35.394 -18.365 -23.769  0.00  0.00    +0.232 C 
BRANCH  26  27
ATOM     27  C   UNL     1      35.012 -17.012 -24.363  0.00  0.00    +0.133 C 
BRANCH  27  28
ATOM     28  O   UNL     1      34.438 -17.224 -25.656  0.00  0.00    -0.383 OA
ATOM     29  H   UNL     1      33.478 -17.089 -25.610  0.00  0.00    +0.210 HD
ENDBRANCH  27  28
BRANCH  27  30
ATOM     30  C   UNL     1      34.001 -16.241 -23.512  0.00  0.00    -0.044 C 
BRANCH  30  31
ATOM     31  N   UNL     1      34.639 -15.217 -22.696  0.00  0.00    +0.386 N 
ATOM     32  C   UNL     1      34.145 -13.887 -23.056  0.00  0.00    -0.101 C 
ATOM     33  C   UNL     1      34.410 -15.474 -21.272  0.00  0.00    -0.101 C 
ATOM     34  H   UNL     1      35.642 -15.249 -22.875  0.00  0.00    -0.080 HD
ENDBRANCH  30  31
ENDBRANCH  27  30
ENDBRANCH  26  27
ENDBRANCH  25  26
ENDBRANCH  19  25
ENDBRANCH   2  20
TORSDOF 8
ENDMDL
MODEL 6
REMARK VINA RESULT:      -9.6      1.814      4.359
REMARK  Name = 447653
REMARK  8 active torsions:
REMARK  status: ('A' for Active; 'I' for Inactive)
REMARK    1  A    between atoms: N_2  and  C_20
REMARK    2  A    between atoms: C_4  and  C_11
REMARK    3  A    between atoms: C_19  and  O_25
REMARK    4  A    between atoms: O_25  and  C_26
REMARK    5  A    between atoms: C_26  and  C_27
REMARK    6  A    between atoms: C_27  and  O_28
REMARK    7  A    between atoms: C_27  and  C_30
REMARK    8  A    between atoms: C_30  and  N_31
REMARK                            x       y       z     vdW  Elec       q    Type
REMARK                         _______ _______ _______ _____ _____    ______ ____
ROOT
ATOM      1  N   UNL     1      35.965 -22.999 -16.022  0.00  0.00    -0.340 NA
ATOM      2  N   UNL     1      37.415 -22.212 -17.689  0.00  0.00    -0.247 N 
ATOM      3  N   UNL     1      38.346 -23.336 -15.851  0.00  0.00    -0.170 NA
ATOM      4  C   UNL     1      35.833 -23.644 -14.847  0.00  0.00    +0.148 C 
ATOM      5  C   UNL     1      36.886 -24.157 -14.123  0.00  0.00    +0.052 C 
ATOM      6  C   UNL     1      37.234 -22.882 -16.461  0.00  0.00    +0.148 C 
ATOM      7  C   UNL     1      38.134 -23.970 -14.680  0.00  0.00    +0.114 C 
ATOM      8  H   UNL     1      38.357 -22.151 -17.971  0.00  0.00    +0.165 HD
ENDROOT
BRANCH   4  11
ATOM      9  N   UNL     1      33.359 -23.573 -15.157  0.00  0.00    -0.251 N 
ATOM     10  N   UNL     1      32.618 -24.099 -13.114  0.00  0.00    -0.393 NA
ATOM     11  C   UNL     1      34.472 -23.768 -14.379  0.00  0.00    +0.181 C 
ATOM     12  C   UNL     1      32.253 -23.785 -14.340  0.00  0.00    +0.187 C 
ATOM     13  C   UNL     1      33.990 -24.090 -13.132  0.00  0.00    +0.114 C 
ATOM     14  C   UNL     1      33.269 -23.229 -16.503  0.00  0.00    +0.068 C 
ATOM     15  C   UNL     1      30.967 -23.636 -14.939  0.00  0.00    +0.048 C 
ATOM     16  C   UNL     1      34.746 -24.400 -11.907  0.00  0.00    +0.064 C 
ATOM     17  C   UNL     1      32.055 -23.090 -17.060  0.00  0.00    +0.016 C 
ATOM     18  C   UNL     1      30.872 -23.303 -16.241  0.00  0.00    +0.005 C 
ENDBRANCH   4  11
BRANCH   2  20
ATOM     19  C   UNL     1      34.731 -20.431 -20.385  0.00  0.00    +0.139 C 
ATOM     20  C   UNL     1      36.515 -21.615 -18.592  0.00  0.00    +0.058 C 
ATOM     21  C   UNL     1      34.297 -21.453 -19.540  0.00  0.00    +0.038 C 
ATOM     22  C   UNL     1      36.057 -20.002 -20.335  0.00  0.00    +0.038 C 
ATOM     23  C   UNL     1      35.188 -22.044 -18.644  0.00  0.00    +0.018 C 
ATOM     24  C   UNL     1      36.949 -20.593 -19.440  0.00  0.00    +0.018 C 
BRANCH  19  25
ATOM     25  O   UNL     1      33.861 -19.854 -21.258  0.00  0.00    -0.473 OA
BRANCH  25  26
ATOM     26  C   UNL     1      34.413 -19.294 -22.449  0.00  0.00    +0.232 C 
BRANCH  26  27
ATOM     27  C   UNL     1      34.200 -17.783 -22.427  0.00  0.00    +0.133 C 
BRANCH  27  28
ATOM     28  O   UNL     1      33.773 -17.399 -21.117  0.00  0.00    -0.383 OA
ATOM     29  H   UNL     1      34.533 -17.403 -20.514  0.00  0.00    +0.210 HD
ENDBRANCH  27  28
BRANCH  27  30
ATOM     30  C   UNL     1      35.464 -16.989 -22.768  0.00  0.00    -0.044 C 
BRANCH  30  31
ATOM     31  N   UNL     1      35.259 -16.094 -23.900  0.00  0.00    +0.386 N 
ATOM     32  C   UNL     1      34.741 -16.832 -25.054  0.00  0.00    -0.101 C 
ATOM     33  C   UNL     1      34.346 -15.008 -23.541  0.00  0.00    -0.101 C 
ATOM     34  H   UNL     1      36.161 -15.692 -24.151  0.00  0.00    -0.080 HD
ENDBRANCH  30  31
ENDBRANCH  27  30
ENDBRANCH  26  27
ENDBRANCH  25  26
ENDBRANCH  19  25
ENDBRANCH   2  20
TORSDOF 8
ENDMDL
MODEL 7
REMARK VINA RESULT:      -9.4      6.515     14.669
REMARK  Name = 447653
REMARK  8 active torsions:
REMARK  status: ('A' for Active; 'I' for Inactive)
REMARK    1  A    between atoms: N_2  and  C_20
REMARK    2  A    between atoms: C_4  and  C_11
REMARK    3  A    between atoms: C_19  and  O_25
REMARK    4  A    between atoms: O_25  and  C_26
REMARK    5  A    between atoms: C_26  and  C_27
REMARK    6  A    between atoms: C_27  and  O_28
REMARK    7  A    between atoms: C_27  and  C_30
REMARK    8  A    between atoms: C_30  and  N_31
REMARK                            x       y       z     vdW  Elec       q    Type
REMARK                         _______ _______ _______ _____ _____    ______ ____
ROOT
ATOM      1  N   UNL     1      32.526  -9.083 -21.930  0.00  0.00    -0.340 NA
ATOM      2  N   UNL     1      32.038 -10.987 -20.649  0.00  0.00    -0.247 N 
ATOM      3  N   UNL     1      31.705  -8.878 -19.674  0.00  0.00    -0.170 NA
ATOM      4  C   UNL     1      32.564  -7.738 -21.993  0.00  0.00    +0.148 C 
ATOM      5  C   UNL     1      32.197  -6.905 -20.961  0.00  0.00    +0.052 C 
ATOM      6  C   UNL     1      32.092  -9.580 -20.756  0.00  0.00    +0.148 C 
ATOM      7  C   UNL     1      31.771  -7.538 -19.811  0.00  0.00    +0.114 C 
ATOM      8  H   UNL     1      31.715 -11.305 -19.774  0.00  0.00    +0.165 HD
ENDROOT
BRANCH   4  11
ATOM      9  N   UNL     1      32.480  -6.130 -23.898  0.00  0.00    -0.251 N 
ATOM     10  N   UNL     1      34.169  -6.839 -25.180  0.00  0.00    -0.393 NA
ATOM     11  C   UNL     1      33.030  -7.209 -23.254  0.00  0.00    +0.181 C 
ATOM     12  C   UNL     1      33.210  -5.944 -25.069  0.00  0.00    +0.187 C 
ATOM     13  C   UNL     1      34.063  -7.625 -24.060  0.00  0.00    +0.114 C 
ATOM     14  C   UNL     1      31.406  -5.327 -23.523  0.00  0.00    +0.068 C 
ATOM     15  C   UNL     1      32.814  -4.864 -25.913  0.00  0.00    +0.048 C 
ATOM     16  C   UNL     1      34.995  -8.745 -23.855  0.00  0.00    +0.064 C 
ATOM     17  C   UNL     1      31.040  -4.313 -24.323  0.00  0.00    +0.016 C 
ATOM     18  C   UNL     1      31.776  -4.084 -25.556  0.00  0.00    +0.005 C 
ENDBRANCH   4  11
BRANCH   2  20
ATOM     19  C   UNL     1      32.978 -14.083 -23.326  0.00  0.00    +0.139 C 
ATOM     20  C   UNL     1      32.354 -12.024 -21.546  0.00  0.00    +0.058 C 
ATOM     21  C   UNL     1      33.004 -12.757 -23.757  0.00  0.00    +0.038 C 
ATOM     22  C   UNL     1      32.640 -14.381 -22.006  0.00  0.00    +0.038 C 
ATOM     23  C   UNL     1      32.692 -11.728 -22.867  0.00  0.00    +0.018 C 
ATOM     24  C   UNL     1      32.328 -13.353 -21.117  0.00  0.00    +0.018 C 
BRANCH  19  25
ATOM     25  O   UNL     1      33.283 -15.087 -24.194  0.00  0.00    -0.473 OA
BRANCH  25  26
ATOM     26  C   UNL     1      34.401 -15.910 -23.867  0.00  0.00    +0.232 C 
BRANCH  26  27
ATOM     27  C   UNL     1      34.287 -17.224 -24.635  0.00  0.00    +0.133 C 
BRANCH  27  28
ATOM     28  O   UNL     1      34.826 -17.037 -25.946  0.00  0.00    -0.383 OA
ATOM     29  H   UNL     1      35.441 -16.287 -25.940  0.00  0.00    +0.210 HD
ENDBRANCH  27  28
BRANCH  27  30
ATOM     30  C   UNL     1      35.036 -18.382 -23.971  0.00  0.00    -0.044 C 
BRANCH  30  31
ATOM     31  N   UNL     1      34.987 -18.304 -22.517  0.00  0.00    +0.386 N 
ATOM     32  C   UNL     1      34.119 -19.351 -21.974  0.00  0.00    -0.101 C 
ATOM     33  C   UNL     1      36.331 -18.414 -21.948  0.00  0.00    -0.101 C 
ATOM     34  H   UNL     1      34.598 -17.396 -22.262  0.00  0.00    -0.080 HD
ENDBRANCH  30  31
ENDBRANCH  27  30
ENDBRANCH  26  27
ENDBRANCH  25  26
ENDBRANCH  19  25
ENDBRANCH   2  20
TORSDOF 8
ENDMDL
MODEL 8
REMARK VINA RESULT:      -9.3      4.895      8.606
REMARK  Name = 447653
REMARK  8 active torsions:
REMARK  status: ('A' for Active; 'I' for Inactive)
REMARK    1  A    between atoms: N_2  and  C_20
REMARK    2  A    between atoms: C_4  and  C_11
REMARK    3  A    between atoms: C_19  and  O_25
REMARK    4  A    between atoms: O_25  and  C_26
REMARK    5  A    between atoms: C_26  and  C_27
REMARK    6  A    between atoms: C_27  and  O_28
REMARK    7  A    between atoms: C_27  and  C_30
REMARK    8  A    between atoms: C_30  and  N_31
REMARK                            x       y       z     vdW  Elec       q    Type
REMARK                         _______ _______ _______ _____ _____    ______ ____
ROOT
ATOM      1  N   UNL     1      34.368 -17.048 -23.159  0.00  0.00    -0.340 NA
ATOM      2  N   UNL     1      33.380 -15.154 -24.127  0.00  0.00    -0.247 N 
ATOM      3  N   UNL     1      34.175 -16.840 -25.553  0.00  0.00    -0.170 NA
ATOM      4  C   UNL     1      34.961 -18.242 -23.354  0.00  0.00    +0.148 C 
ATOM      5  C   UNL     1      35.195 -18.797 -24.592  0.00  0.00    +0.052 C 
ATOM      6  C   UNL     1      34.005 -16.409 -24.288  0.00  0.00    +0.148 C 
ATOM      7  C   UNL     1      34.776 -18.041 -25.668  0.00  0.00    +0.114 C 
ATOM      8  H   UNL     1      33.131 -14.723 -24.978  0.00  0.00    +0.165 HD
ENDROOT
BRANCH   4  11
ATOM      9  N   UNL     1      34.495 -19.639 -21.341  0.00  0.00    -0.251 N 
ATOM     10  N   UNL     1      36.513 -19.770 -20.388  0.00  0.00    -0.393 NA
ATOM     11  C   UNL     1      35.349 -18.925 -22.141  0.00  0.00    +0.181 C 
ATOM     12  C   UNL     1      35.252 -20.135 -20.283  0.00  0.00    +0.187 C 
ATOM     13  C   UNL     1      36.580 -19.021 -21.535  0.00  0.00    +0.114 C 
ATOM     14  C   UNL     1      33.130 -19.870 -21.487  0.00  0.00    +0.068 C 
ATOM     15  C   UNL     1      34.567 -20.920 -19.309  0.00  0.00    +0.048 C 
ATOM     16  C   UNL     1      37.863 -18.442 -21.964  0.00  0.00    +0.064 C 
ATOM     17  C   UNL     1      32.492 -20.610 -20.565  0.00  0.00    +0.016 C 
ATOM     18  C   UNL     1      33.247 -21.147 -19.444  0.00  0.00    +0.005 C 
ENDBRANCH   4  11
BRANCH   2  20
ATOM     19  C   UNL     1      32.365 -12.893 -20.736  0.00  0.00    +0.139 C 
ATOM     20  C   UNL     1      33.040 -14.396 -22.990  0.00  0.00    +0.058 C 
ATOM     21  C   UNL     1      33.109 -14.065 -20.596  0.00  0.00    +0.038 C 
ATOM     22  C   UNL     1      31.957 -12.473 -22.002  0.00  0.00    +0.038 C 
ATOM     23  C   UNL     1      33.447 -14.815 -21.723  0.00  0.00    +0.018 C 
ATOM     24  C   UNL     1      32.294 -13.224 -23.128  0.00  0.00    +0.018 C 
BRANCH  19  25
ATOM     25  O   UNL     1      32.036 -12.161 -19.636  0.00  0.00    -0.473 OA
BRANCH  25  26
ATOM     26  C   UNL     1      31.014 -11.178 -19.794  0.00  0.00    +0.232 C 
BRANCH  26  27
ATOM     27  C   UNL     1      31.645  -9.791 -19.690  0.00  0.00    +0.133 C 
BRANCH  27  28
ATOM     28  O   UNL     1      32.828  -9.884 -18.892  0.00  0.00    -0.383 OA
ATOM     29  H   UNL     1      33.450  -9.188 -19.153  0.00  0.00    +0.210 HD
ENDBRANCH  27  28
BRANCH  27  30
ATOM     30  C   UNL     1      32.030  -9.198 -21.047  0.00  0.00    -0.044 C 
BRANCH  30  31
ATOM     31  N   UNL     1      32.849  -8.001 -20.909  0.00  0.00    +0.386 N 
ATOM     32  C   UNL     1      33.582  -7.732 -22.148  0.00  0.00    -0.101 C 
ATOM     33  C   UNL     1      32.022  -6.848 -20.549  0.00  0.00    -0.101 C 
ATOM     34  H   UNL     1      33.524  -8.164 -20.163  0.00  0.00    -0.080 HD
ENDBRANCH  30  31
ENDBRANCH  27  30
ENDBRANCH  26  27
ENDBRANCH  25  26
ENDBRANCH  19  25
ENDBRANCH   2  20
TORSDOF 8
ENDMDL
MODEL 9
REMARK VINA RESULT:      -9.3      3.462     11.695
REMARK  Name = 447653
REMARK  8 active torsions:
REMARK  status: ('A' for Active; 'I' for Inactive)
REMARK    1  A    between atoms: N_2  and  C_20
REMARK    2  A    between atoms: C_4  and  C_11
REMARK    3  A    between atoms: C_19  and  O_25
REMARK    4  A    between atoms: O_25  and  C_26
REMARK    5  A    between atoms: C_26  and  C_27
REMARK    6  A    between atoms: C_27  and  O_28
REMARK    7  A    between atoms: C_27  and  C_30
REMARK    8  A    between atoms: C_30  and  N_31
REMARK                            x       y       z     vdW  Elec       q    Type
REMARK                         _______ _______ _______ _____ _____    ______ ____
ROOT
ATOM      1  N   UNL     1      33.487 -14.420 -24.323  0.00  0.00    -0.340 NA
ATOM      2  N   UNL     1      34.332 -16.275 -25.484  0.00  0.00    -0.247 N 
ATOM      3  N   UNL     1      33.948 -14.296 -26.685  0.00  0.00    -0.170 NA
ATOM      4  C   UNL     1      33.084 -13.136 -24.378  0.00  0.00    +0.148 C 
ATOM      5  C   UNL     1      33.081 -12.375 -25.524  0.00  0.00    +0.052 C 
ATOM      6  C   UNL     1      33.902 -14.931 -25.499  0.00  0.00    +0.148 C 
ATOM      7  C   UNL     1      33.529 -13.015 -26.662  0.00  0.00    +0.114 C 
ATOM      8  H   UNL     1      34.627 -16.606 -26.364  0.00  0.00    +0.165 HD
ENDROOT
BRANCH   4  11
ATOM      9  N   UNL     1      32.461 -11.256 -22.862  0.00  0.00    -0.251 N 
ATOM     10  N   UNL     1      31.937 -12.334 -20.974  0.00  0.00    -0.393 NA
ATOM     11  C   UNL     1      32.641 -12.592 -23.115  0.00  0.00    +0.181 C 
ATOM     12  C   UNL     1      32.031 -11.150 -21.541  0.00  0.00    +0.187 C 
ATOM     13  C   UNL     1      32.313 -13.231 -21.943  0.00  0.00    +0.114 C 
ATOM     14  C   UNL     1      32.648 -10.162 -23.702  0.00  0.00    +0.068 C 
ATOM     15  C   UNL     1      31.777  -9.836 -21.048  0.00  0.00    +0.048 C 
ATOM     16  C   UNL     1      32.326 -14.673 -21.647  0.00  0.00    +0.064 C 
ATOM     17  C   UNL     1      32.406  -8.928 -23.229  0.00  0.00    +0.016 C 
ATOM     18  C   UNL     1      31.956  -8.773 -21.855  0.00  0.00    +0.005 C 
ENDBRANCH   4  11
BRANCH   2  20
ATOM     19  C   UNL     1      34.608 -19.139 -22.425  0.00  0.00    +0.139 C 
ATOM     20  C   UNL     1      34.425 -17.236 -24.460  0.00  0.00    +0.058 C 
ATOM     21  C   UNL     1      34.323 -19.539 -23.731  0.00  0.00    +0.038 C 
ATOM     22  C   UNL     1      34.801 -17.789 -22.135  0.00  0.00    +0.038 C 
ATOM     23  C   UNL     1      34.232 -18.588 -24.747  0.00  0.00    +0.018 C 
ATOM     24  C   UNL     1      34.710 -16.838 -23.151  0.00  0.00    +0.018 C 
BRANCH  19  25
ATOM     25  O   UNL     1      34.697 -20.068 -21.433  0.00  0.00    -0.473 OA
BRANCH  25  26
ATOM     26  C   UNL     1      33.500 -20.369 -20.717  0.00  0.00    +0.232 C 
BRANCH  26  27
ATOM     27  C   UNL     1      33.844 -21.281 -19.543  0.00  0.00    +0.133 C 
BRANCH  27  28
ATOM     28  O   UNL     1      32.936 -22.386 -19.538  0.00  0.00    -0.383 OA
ATOM     29  H   UNL     1      33.430 -23.212 -19.664  0.00  0.00    +0.210 HD
ENDBRANCH  27  28
BRANCH  27  30
ATOM     30  C   UNL     1      35.270 -21.836 -19.604  0.00  0.00    -0.044 C 
BRANCH  30  31
ATOM     31  N   UNL     1      36.223 -20.972 -18.921  0.00  0.00    +0.386 N 
ATOM     32  C   UNL     1      36.862 -21.683 -17.812  0.00  0.00    -0.101 C 
ATOM     33  C   UNL     1      37.236 -20.479 -19.857  0.00  0.00    -0.101 C 
ATOM     34  H   UNL     1      35.713 -20.174 -18.544  0.00  0.00    -0.080 HD
ENDBRANCH  30  31
ENDBRANCH  27  30
ENDBRANCH  26  27
ENDBRANCH  25  26
ENDBRANCH  19  25
ENDBRANCH   2  20
TORSDOF 8
ENDMDL
