MODEL 1
REMARK VINA RESULT:      -8.0      0.000      0.000
REMARK  Name = 446727
REMARK  5 active torsions:
REMARK  status: ('A' for Active; 'I' for Inactive)
REMARK    1  A    between atoms: N_3  and  C1*_12
REMARK    2  A    between atoms: C_7  and  C_21
REMARK    3  A    between atoms: C3*_11  and  O3*_15
REMARK    4  A    between atoms: C4*_14  and  C5*_17
REMARK    5  A    between atoms: C5*_17  and  O5*_18
REMARK                            x       y       z     vdW  Elec       q    Type
REMARK                         _______ _______ _______ _____ _____    ______ ____
ROOT
ATOM      1  O   UNL     1      37.642 -22.114 -16.731  0.00  0.00    -0.252 OA
ATOM      2  O   UNL     1      33.262 -22.847 -17.911  0.00  0.00    -0.270 OA
ATOM      3  N   UNL     1      36.209 -23.000 -15.115  0.00  0.00    -0.219 N 
ATOM      4  N   UNL     1      35.452 -22.487 -17.301  0.00  0.00    -0.236 N 
ATOM      5  C   UNL     1      34.919 -23.424 -14.819  0.00  0.00    +0.076 C 
ATOM      6  C   UNL     1      36.521 -22.506 -16.399  0.00  0.00    +0.315 C 
ATOM      7  C   UNL     1      33.895 -23.407 -15.683  0.00  0.00    +0.069 C 
ATOM      8  C   UNL     1      34.149 -22.897 -17.061  0.00  0.00    +0.254 C 
ATOM      9  H   UNL     1      35.646 -22.146 -18.204  0.00  0.00    +0.159 HD
ENDROOT
BRANCH   3  12
ATOM     10  O4* UNL     1      38.058 -24.210 -14.346  0.00  0.00    -0.335 OA
ATOM     11  C3* UNL     1      37.713 -24.032 -12.007  0.00  0.00    +0.144 C 
ATOM     12  C1* UNL     1      37.229 -23.063 -14.109  0.00  0.00    +0.202 C 
ATOM     13  C2* UNL     1      36.664 -23.196 -12.704  0.00  0.00    +0.083 C 
ATOM     14  C4* UNL     1      38.220 -24.943 -13.116  0.00  0.00    +0.173 C 
BRANCH  11  15
ATOM     15  O3* UNL     1      38.770 -23.192 -11.548  0.00  0.00    -0.382 OA
ATOM     16  H3* UNL     1      39.502 -23.740 -11.226  0.00  0.00    +0.210 HD
ENDBRANCH  11  15
BRANCH  14  17
ATOM     17  C5* UNL     1      37.422 -26.236 -13.233  0.00  0.00    +0.169 C 
BRANCH  17  18
ATOM     18  O5* UNL     1      36.879 -26.556 -11.963  0.00  0.00    -0.379 OA
ATOM     19  H5* UNL     1      35.915 -26.445 -11.986  0.00  0.00    +0.211 HD
ENDBRANCH  17  18
ENDBRANCH  14  17
ENDBRANCH   3  12
BRANCH   7  21
ATOM     20 BR   UNL     1      30.499 -24.573 -13.540  0.00  0.00    -0.048 Br
ATOM     21  C   UNL     1      32.580 -23.861 -15.314  0.00  0.00    +0.013 C 
ATOM     22  C   UNL     1      32.185 -23.990 -14.046  0.00  0.00    +0.041 C 
ENDBRANCH   7  21
TORSDOF 5
ENDMDL
MODEL 2
REMARK VINA RESULT:      -8.0      8.934     11.170
REMARK  Name = 446727
REMARK  5 active torsions:
REMARK  status: ('A' for Active; 'I' for Inactive)
REMARK    1  A    between atoms: N_3  and  C1*_12
REMARK    2  A    between atoms: C_7  and  C_21
REMARK    3  A    between atoms: C3*_11  and  O3*_15
REMARK    4  A    between atoms: C4*_14  and  C5*_17
REMARK    5  A    between atoms: C5*_17  and  O5*_18
REMARK                            x       y       z     vdW  Elec       q    Type
REMARK                         _______ _______ _______ _____ _____    ______ ____
ROOT
ATOM      1  O   UNL     1      34.703 -18.182 -25.596  0.00  0.00    -0.252 OA
ATOM      2  O   UNL     1      32.821 -13.991 -25.509  0.00  0.00    -0.270 OA
ATOM      3  N   UNL     1      34.656 -17.048 -23.556  0.00  0.00    -0.219 N 
ATOM      4  N   UNL     1      33.768 -16.089 -25.533  0.00  0.00    -0.236 N 
ATOM      5  C   UNL     1      34.284 -15.890 -22.884  0.00  0.00    +0.076 C 
ATOM      6  C   UNL     1      34.401 -17.184 -24.937  0.00  0.00    +0.315 C 
ATOM      7  C   UNL     1      33.676 -14.840 -23.454  0.00  0.00    +0.069 C 
ATOM      8  C   UNL     1      33.374 -14.912 -24.912  0.00  0.00    +0.254 C 
ATOM      9  H   UNL     1      33.580 -16.161 -26.496  0.00  0.00    +0.159 HD
ENDROOT
BRANCH   3  12
ATOM     10  O4* UNL     1      34.443 -19.258 -22.819  0.00  0.00    -0.335 OA
ATOM     11  C3* UNL     1      35.472 -19.074 -20.691  0.00  0.00    +0.144 C 
ATOM     12  C1* UNL     1      35.303 -18.110 -22.843  0.00  0.00    +0.202 C 
ATOM     13  C2* UNL     1      35.614 -17.747 -21.400  0.00  0.00    +0.083 C 
ATOM     14  C4* UNL     1      34.364 -19.766 -21.473  0.00  0.00    +0.173 C 
BRANCH  11  15
ATOM     15  O3* UNL     1      36.685 -19.815 -20.810  0.00  0.00    -0.382 OA
ATOM     16  H3* UNL     1      36.497 -20.684 -21.196  0.00  0.00    +0.210 HD
ENDBRANCH  11  15
BRANCH  14  17
ATOM     17  C5* UNL     1      32.973 -19.452 -20.935  0.00  0.00    +0.169 C 
BRANCH  17  18
ATOM     18  O5* UNL     1      32.629 -20.424 -19.961  0.00  0.00    -0.379 OA
ATOM     19  H5* UNL     1      32.303 -19.980 -19.162  0.00  0.00    +0.211 HD
ENDBRANCH  17  18
ENDBRANCH  14  17
ENDBRANCH   3  12
BRANCH   7  21
ATOM     20 BR   UNL     1      31.750 -12.114 -20.935  0.00  0.00    -0.048 Br
ATOM     21  C   UNL     1      33.316 -13.668 -22.700  0.00  0.00    +0.013 C 
ATOM     22  C   UNL     1      32.238 -13.610 -21.918  0.00  0.00    +0.041 C 
ENDBRANCH   7  21
TORSDOF 5
ENDMDL
MODEL 3
REMARK VINA RESULT:      -7.9      2.977      4.121
REMARK  Name = 446727
REMARK  5 active torsions:
REMARK  status: ('A' for Active; 'I' for Inactive)
REMARK    1  A    between atoms: N_3  and  C1*_12
REMARK    2  A    between atoms: C_7  and  C_21
REMARK    3  A    between atoms: C3*_11  and  O3*_15
REMARK    4  A    between atoms: C4*_14  and  C5*_17
REMARK    5  A    between atoms: C5*_17  and  O5*_18
REMARK                            x       y       z     vdW  Elec       q    Type
REMARK                         _______ _______ _______ _____ _____    ______ ____
ROOT
ATOM      1  O   UNL     1      32.441 -24.723 -13.352  0.00  0.00    -0.252 OA
ATOM      2  O   UNL     1      30.939 -22.629 -17.156  0.00  0.00    -0.270 OA
ATOM      3  N   UNL     1      34.009 -24.194 -14.999  0.00  0.00    -0.219 N 
ATOM      4  N   UNL     1      31.710 -23.678 -15.258  0.00  0.00    -0.236 N 
ATOM      5  C   UNL     1      34.228 -23.626 -16.248  0.00  0.00    +0.076 C 
ATOM      6  C   UNL     1      32.708 -24.236 -14.453  0.00  0.00    +0.315 C 
ATOM      7  C   UNL     1      33.272 -23.090 -17.019  0.00  0.00    +0.069 C 
ATOM      8  C   UNL     1      31.872 -23.099 -16.508  0.00  0.00    +0.254 C 
ATOM      9  H   UNL     1      30.794 -23.696 -14.898  0.00  0.00    +0.159 HD
ENDROOT
BRANCH   3  12
ATOM     10  O4* UNL     1      35.992 -23.678 -13.869  0.00  0.00    -0.335 OA
ATOM     11  C3* UNL     1      37.323 -25.526 -14.526  0.00  0.00    +0.144 C 
ATOM     12  C1* UNL     1      35.109 -24.739 -14.260  0.00  0.00    +0.202 C 
ATOM     13  C2* UNL     1      35.927 -25.733 -15.068  0.00  0.00    +0.083 C 
ATOM     14  C4* UNL     1      37.347 -24.040 -14.196  0.00  0.00    +0.173 C 
BRANCH  11  15
ATOM     15  O3* UNL     1      37.494 -26.291 -13.335  0.00  0.00    -0.382 OA
ATOM     16  H3* UNL     1      37.423 -25.707 -12.563  0.00  0.00    +0.210 HD
ENDBRANCH  11  15
BRANCH  14  17
ATOM     17  C5* UNL     1      37.792 -23.178 -15.371  0.00  0.00    +0.169 C 
BRANCH  17  18
ATOM     18  O5* UNL     1      39.004 -23.701 -15.889  0.00  0.00    -0.379 OA
ATOM     19  H5* UNL     1      39.640 -22.978 -16.015  0.00  0.00    +0.211 HD
ENDBRANCH  17  18
ENDBRANCH  14  17
ENDBRANCH   3  12
BRANCH   7  21
ATOM     20 BR   UNL     1      35.148 -21.215 -20.252  0.00  0.00    -0.048 Br
ATOM     21  C   UNL     1      33.566 -22.517 -18.306  0.00  0.00    +0.013 C 
ATOM     22  C   UNL     1      34.741 -21.960 -18.603  0.00  0.00    +0.041 C 
ENDBRANCH   7  21
TORSDOF 5
ENDMDL
MODEL 4
REMARK VINA RESULT:      -7.6      9.520     12.170
REMARK  Name = 446727
REMARK  5 active torsions:
REMARK  status: ('A' for Active; 'I' for Inactive)
REMARK    1  A    between atoms: N_3  and  C1*_12
REMARK    2  A    between atoms: C_7  and  C_21
REMARK    3  A    between atoms: C3*_11  and  O3*_15
REMARK    4  A    between atoms: C4*_14  and  C5*_17
REMARK    5  A    between atoms: C5*_17  and  O5*_18
REMARK                            x       y       z     vdW  Elec       q    Type
REMARK                         _______ _______ _______ _____ _____    ______ ____
ROOT
ATOM      1  O   UNL     1      33.866 -15.750 -26.249  0.00  0.00    -0.252 OA
ATOM      2  O   UNL     1      34.920 -19.951 -24.714  0.00  0.00    -0.270 OA
ATOM      3  N   UNL     1      34.354 -15.993 -23.979  0.00  0.00    -0.219 N 
ATOM      4  N   UNL     1      34.394 -17.839 -25.464  0.00  0.00    -0.236 N 
ATOM      5  C   UNL     1      34.712 -16.867 -22.959  0.00  0.00    +0.076 C 
ATOM      6  C   UNL     1      34.182 -16.468 -25.297  0.00  0.00    +0.315 C 
ATOM      7  C   UNL     1      34.917 -18.181 -23.120  0.00  0.00    +0.069 C 
ATOM      8  C   UNL     1      34.752 -18.755 -24.486  0.00  0.00    +0.254 C 
ATOM      9  H   UNL     1      34.279 -18.193 -26.376  0.00  0.00    +0.159 HD
ENDROOT
BRANCH   3  12
ATOM     10  O4* UNL     1      34.480 -14.353 -22.316  0.00  0.00    -0.335 OA
ATOM     11  C3* UNL     1      32.555 -13.080 -22.857  0.00  0.00    +0.144 C 
ATOM     12  C1* UNL     1      34.160 -14.602 -23.692  0.00  0.00    +0.202 C 
ATOM     13  C2* UNL     1      32.726 -14.149 -23.911  0.00  0.00    +0.083 C 
ATOM     14  C4* UNL     1      33.422 -13.584 -21.712  0.00  0.00    +0.173 C 
BRANCH  11  15
ATOM     15  O3* UNL     1      33.065 -11.840 -23.343  0.00  0.00    -0.382 OA
ATOM     16  H3* UNL     1      33.219 -11.907 -24.298  0.00  0.00    +0.210 HD
ENDBRANCH  11  15
BRANCH  14  17
ATOM     17  C5* UNL     1      32.668 -14.498 -20.754  0.00  0.00    +0.169 C 
BRANCH  17  18
ATOM     18  O5* UNL     1      33.567 -15.470 -20.245  0.00  0.00    -0.379 OA
ATOM     19  H5* UNL     1      34.449 -15.323 -20.622  0.00  0.00    +0.211 HD
ENDBRANCH  17  18
ENDBRANCH  14  17
ENDBRANCH   3  12
BRANCH   7  21
ATOM     20 BR   UNL     1      34.848 -20.864 -19.912  0.00  0.00    -0.048 Br
ATOM     21  C   UNL     1      35.286 -19.033 -22.019  0.00  0.00    +0.013 C 
ATOM     22  C   UNL     1      34.402 -19.758 -21.333  0.00  0.00    +0.041 C 
ENDBRANCH   7  21
TORSDOF 5
ENDMDL
MODEL 5
REMARK VINA RESULT:      -7.5      2.771      3.613
REMARK  Name = 446727
REMARK  5 active torsions:
REMARK  status: ('A' for Active; 'I' for Inactive)
REMARK    1  A    between atoms: N_3  and  C1*_12
REMARK    2  A    between atoms: C_7  and  C_21
REMARK    3  A    between atoms: C3*_11  and  O3*_15
REMARK    4  A    between atoms: C4*_14  and  C5*_17
REMARK    5  A    between atoms: C5*_17  and  O5*_18
REMARK                            x       y       z     vdW  Elec       q    Type
REMARK                         _______ _______ _______ _____ _____    ______ ____
ROOT
ATOM      1  O   UNL     1      34.806 -24.841 -12.009  0.00  0.00    -0.252 OA
ATOM      2  O   UNL     1      31.829 -22.567 -14.669  0.00  0.00    -0.270 OA
ATOM      3  N   UNL     1      35.228 -24.765 -14.304  0.00  0.00    -0.219 N 
ATOM      4  N   UNL     1      33.331 -23.711 -13.353  0.00  0.00    -0.236 N 
ATOM      5  C   UNL     1      34.801 -24.309 -15.545  0.00  0.00    +0.076 C 
ATOM      6  C   UNL     1      34.486 -24.470 -13.141  0.00  0.00    +0.315 C 
ATOM      7  C   UNL     1      33.695 -23.580 -15.748  0.00  0.00    +0.069 C 
ATOM      8  C   UNL     1      32.858 -23.230 -14.565  0.00  0.00    +0.254 C 
ATOM      9  H   UNL     1      32.797 -23.493 -12.556  0.00  0.00    +0.159 HD
ENDROOT
BRANCH   3  12
ATOM     10  O4* UNL     1      36.795 -25.675 -12.823  0.00  0.00    -0.335 OA
ATOM     11  C3* UNL     1      38.781 -25.320 -14.067  0.00  0.00    +0.144 C 
ATOM     12  C1* UNL     1      36.431 -25.540 -14.204  0.00  0.00    +0.202 C 
ATOM     13  C2* UNL     1      37.607 -24.897 -14.921  0.00  0.00    +0.083 C 
ATOM     14  C4* UNL     1      38.191 -25.358 -12.665  0.00  0.00    +0.173 C 
BRANCH  11  15
ATOM     15  O3* UNL     1      39.207 -26.626 -14.450  0.00  0.00    -0.382 OA
ATOM     16  H3* UNL     1      38.439 -27.217 -14.494  0.00  0.00    +0.210 HD
ENDBRANCH  11  15
BRANCH  14  17
ATOM     17  C5* UNL     1      38.287 -24.019 -11.944  0.00  0.00    +0.169 C 
BRANCH  17  18
ATOM     18  O5* UNL     1      37.354 -24.005 -10.877  0.00  0.00    -0.379 OA
ATOM     19  H5* UNL     1      37.016 -23.103 -10.755  0.00  0.00    +0.211 HD
ENDBRANCH  17  18
ENDBRANCH  14  17
ENDBRANCH   3  12
BRANCH   7  21
ATOM     20 BR   UNL     1      33.675 -21.953 -19.601  0.00  0.00    -0.048 Br
ATOM     21  C   UNL     1      33.307 -23.138 -17.062  0.00  0.00    +0.013 C 
ATOM     22  C   UNL     1      34.147 -22.533 -17.903  0.00  0.00    +0.041 C 
ENDBRANCH   7  21
TORSDOF 5
ENDMDL
MODEL 6
REMARK VINA RESULT:      -7.5      3.350      4.176
REMARK  Name = 446727
REMARK  5 active torsions:
REMARK  status: ('A' for Active; 'I' for Inactive)
REMARK    1  A    between atoms: N_3  and  C1*_12
REMARK    2  A    between atoms: C_7  and  C_21
REMARK    3  A    between atoms: C3*_11  and  O3*_15
REMARK    4  A    between atoms: C4*_14  and  C5*_17
REMARK    5  A    between atoms: C5*_17  and  O5*_18
REMARK                            x       y       z     vdW  Elec       q    Type
REMARK                         _______ _______ _______ _____ _____    ______ ____
ROOT
ATOM      1  O   UNL     1      33.914 -23.946 -15.584  0.00  0.00    -0.252 OA
ATOM      2  O   UNL     1      32.939 -22.323 -19.770  0.00  0.00    -0.270 OA
ATOM      3  N   UNL     1      35.556 -22.704 -16.683  0.00  0.00    -0.219 N 
ATOM      4  N   UNL     1      33.446 -23.128 -17.674  0.00  0.00    -0.236 N 
ATOM      5  C   UNL     1      35.898 -21.996 -17.828  0.00  0.00    +0.076 C 
ATOM      6  C   UNL     1      34.285 -23.306 -16.570  0.00  0.00    +0.315 C 
ATOM      7  C   UNL     1      35.094 -21.825 -18.886  0.00  0.00    +0.069 C 
ATOM      8  C   UNL     1      33.734 -22.433 -18.839  0.00  0.00    +0.254 C 
ATOM      9  H   UNL     1      32.553 -23.539 -17.617  0.00  0.00    +0.159 HD
ENDROOT
BRANCH   3  12
ATOM     10  O4* UNL     1      37.337 -23.965 -15.839  0.00  0.00    -0.335 OA
ATOM     11  C3* UNL     1      36.823 -23.894 -13.527  0.00  0.00    +0.144 C 
ATOM     12  C1* UNL     1      36.499 -22.824 -15.609  0.00  0.00    +0.202 C 
ATOM     13  C2* UNL     1      35.832 -23.017 -14.258  0.00  0.00    +0.083 C 
ATOM     14  C4* UNL     1      37.405 -24.756 -14.638  0.00  0.00    +0.173 C 
BRANCH  11  15
ATOM     15  O3* UNL     1      37.847 -23.085 -12.952  0.00  0.00    -0.382 OA
ATOM     16  H3* UNL     1      37.465 -22.521 -12.261  0.00  0.00    +0.210 HD
ENDBRANCH  11  15
BRANCH  14  17
ATOM     17  C5* UNL     1      36.611 -26.035 -14.874  0.00  0.00    +0.169 C 
BRANCH  17  18
ATOM     18  O5* UNL     1      37.211 -26.756 -15.938  0.00  0.00    -0.379 OA
ATOM     19  H5* UNL     1      38.172 -26.783 -15.809  0.00  0.00    +0.211 HD
ENDBRANCH  17  18
ENDBRANCH  14  17
ENDBRANCH   3  12
BRANCH   7  21
ATOM     20 BR   UNL     1      35.333 -19.067 -22.021  0.00  0.00    -0.048 Br
ATOM     21  C   UNL     1      35.511 -21.079 -20.045  0.00  0.00    +0.013 C 
ATOM     22  C   UNL     1      34.821 -20.046 -20.531  0.00  0.00    +0.041 C 
ENDBRANCH   7  21
TORSDOF 5
ENDMDL
MODEL 7
REMARK VINA RESULT:      -7.5      2.779      3.535
REMARK  Name = 446727
REMARK  5 active torsions:
REMARK  status: ('A' for Active; 'I' for Inactive)
REMARK    1  A    between atoms: N_3  and  C1*_12
REMARK    2  A    between atoms: C_7  and  C_21
REMARK    3  A    between atoms: C3*_11  and  O3*_15
REMARK    4  A    between atoms: C4*_14  and  C5*_17
REMARK    5  A    between atoms: C5*_17  and  O5*_18
REMARK                            x       y       z     vdW  Elec       q    Type
REMARK                         _______ _______ _______ _____ _____    ______ ____
ROOT
ATOM      1  O   UNL     1      33.556 -24.290 -12.748  0.00  0.00    -0.252 OA
ATOM      2  O   UNL     1      32.202 -23.226 -17.008  0.00  0.00    -0.270 OA
ATOM      3  N   UNL     1      35.189 -23.631 -14.280  0.00  0.00    -0.219 N 
ATOM      4  N   UNL     1      32.900 -23.755 -14.879  0.00  0.00    -0.236 N 
ATOM      5  C   UNL     1      35.457 -23.217 -15.579  0.00  0.00    +0.076 C 
ATOM      6  C   UNL     1      33.867 -23.919 -13.882  0.00  0.00    +0.315 C 
ATOM      7  C   UNL     1      34.531 -23.059 -16.534  0.00  0.00    +0.069 C 
ATOM      8  C   UNL     1      33.110 -23.345 -16.187  0.00  0.00    +0.254 C 
ATOM      9  H   UNL     1      31.969 -23.951 -14.624  0.00  0.00    +0.159 HD
ENDROOT
BRANCH   3  12
ATOM     10  O4* UNL     1      37.512 -23.553 -14.010  0.00  0.00    -0.335 OA
ATOM     11  C3* UNL     1      37.801 -25.345 -12.485  0.00  0.00    +0.144 C 
ATOM     12  C1* UNL     1      36.262 -23.767 -13.339  0.00  0.00    +0.202 C 
ATOM     13  C2* UNL     1      36.319 -25.146 -12.705  0.00  0.00    +0.083 C 
ATOM     14  C4* UNL     1      38.425 -24.612 -13.665  0.00  0.00    +0.173 C 
BRANCH  11  15
ATOM     15  O3* UNL     1      38.194 -24.722 -11.264  0.00  0.00    -0.382 OA
ATOM     16  H3* UNL     1      38.907 -24.088 -11.439  0.00  0.00    +0.210 HD
ENDBRANCH  11  15
BRANCH  14  17
ATOM     17  C5* UNL     1      38.598 -25.501 -14.891  0.00  0.00    +0.169 C 
BRANCH  17  18
ATOM     18  O5* UNL     1      39.280 -26.683 -14.507  0.00  0.00    -0.379 OA
ATOM     19  H5* UNL     1      39.251 -26.774 -13.541  0.00  0.00    +0.211 HD
ENDBRANCH  17  18
ENDBRANCH  14  17
ENDBRANCH   3  12
BRANCH   7  21
ATOM     20 BR   UNL     1      36.364 -21.235 -19.821  0.00  0.00    -0.048 Br
ATOM     21  C   UNL     1      34.875 -22.626 -17.864  0.00  0.00    +0.013 C 
ATOM     22  C   UNL     1      35.897 -21.809 -18.120  0.00  0.00    +0.041 C 
ENDBRANCH   7  21
TORSDOF 5
ENDMDL
MODEL 8
REMARK VINA RESULT:      -7.4      3.047      6.070
REMARK  Name = 446727
REMARK  5 active torsions:
REMARK  status: ('A' for Active; 'I' for Inactive)
REMARK    1  A    between atoms: N_3  and  C1*_12
REMARK    2  A    between atoms: C_7  and  C_21
REMARK    3  A    between atoms: C3*_11  and  O3*_15
REMARK    4  A    between atoms: C4*_14  and  C5*_17
REMARK    5  A    between atoms: C5*_17  and  O5*_18
REMARK                            x       y       z     vdW  Elec       q    Type
REMARK                         _______ _______ _______ _____ _____    ______ ____
ROOT
ATOM      1  O   UNL     1      34.490 -24.621 -12.129  0.00  0.00    -0.252 OA
ATOM      2  O   UNL     1      37.798 -22.691 -14.667  0.00  0.00    -0.270 OA
ATOM      3  N   UNL     1      33.952 -23.952 -14.300  0.00  0.00    -0.219 N 
ATOM      4  N   UNL     1      36.128 -23.656 -13.411  0.00  0.00    -0.236 N 
ATOM      5  C   UNL     1      34.405 -23.372 -15.478  0.00  0.00    +0.076 C 
ATOM      6  C   UNL     1      34.824 -24.115 -13.203  0.00  0.00    +0.315 C 
ATOM      7  C   UNL     1      35.655 -22.933 -15.678  0.00  0.00    +0.069 C 
ATOM      8  C   UNL     1      36.635 -23.071 -14.563  0.00  0.00    +0.254 C 
ATOM      9  H   UNL     1      36.755 -23.759 -12.659  0.00  0.00    +0.159 HD
ENDROOT
BRANCH   3  12
ATOM     10  O4* UNL     1      32.070 -24.635 -15.511  0.00  0.00    -0.335 OA
ATOM     11  C3* UNL     1      30.368 -23.578 -14.243  0.00  0.00    +0.144 C 
ATOM     12  C1* UNL     1      32.589 -24.387 -14.197  0.00  0.00    +0.202 C 
ATOM     13  C2* UNL     1      31.688 -23.353 -13.542  0.00  0.00    +0.083 C 
ATOM     14  C4* UNL     1      30.790 -23.988 -15.647  0.00  0.00    +0.173 C 
BRANCH  11  15
ATOM     15  O3* UNL     1      29.667 -24.648 -13.615  0.00  0.00    -0.382 OA
ATOM     16  H3* UNL     1      29.774 -25.457 -14.139  0.00  0.00    +0.210 HD
ENDBRANCH  11  15
BRANCH  14  17
ATOM     17  C5* UNL     1      30.963 -22.800 -16.586  0.00  0.00    +0.169 C 
BRANCH  17  18
ATOM     18  O5* UNL     1      29.687 -22.397 -17.054  0.00  0.00    -0.379 OA
ATOM     19  H5* UNL     1      29.224 -23.163 -17.431  0.00  0.00    +0.211 HD
ENDBRANCH  17  18
ENDBRANCH  14  17
ENDBRANCH   3  12
BRANCH   7  21
ATOM     20 BR   UNL     1      35.754 -21.495 -19.604  0.00  0.00    -0.048 Br
ATOM     21  C   UNL     1      36.062 -22.340 -16.926  0.00  0.00    +0.013 C 
ATOM     22  C   UNL     1      35.258 -22.253 -17.986  0.00  0.00    +0.041 C 
ENDBRANCH   7  21
TORSDOF 5
ENDMDL
MODEL 9
REMARK VINA RESULT:      -7.2      3.452      5.935
REMARK  Name = 446727
REMARK  5 active torsions:
REMARK  status: ('A' for Active; 'I' for Inactive)
REMARK    1  A    between atoms: N_3  and  C1*_12
REMARK    2  A    between atoms: C_7  and  C_21
REMARK    3  A    between atoms: C3*_11  and  O3*_15
REMARK    4  A    between atoms: C4*_14  and  C5*_17
REMARK    5  A    between atoms: C5*_17  and  O5*_18
REMARK                            x       y       z     vdW  Elec       q    Type
REMARK                         _______ _______ _______ _____ _____    ______ ____
ROOT
ATOM      1  O   UNL     1      35.104 -24.043 -14.261  0.00  0.00    -0.252 OA
ATOM      2  O   UNL     1      36.260 -22.050 -18.236  0.00  0.00    -0.270 OA
ATOM      3  N   UNL     1      33.409 -23.642 -15.815  0.00  0.00    -0.219 N 
ATOM      4  N   UNL     1      35.662 -23.049 -16.251  0.00  0.00    -0.236 N 
ATOM      5  C   UNL     1      33.084 -23.137 -17.068  0.00  0.00    +0.076 C 
ATOM      6  C   UNL     1      34.744 -23.612 -15.359  0.00  0.00    +0.315 C 
ATOM      7  C   UNL     1      33.963 -22.598 -17.924  0.00  0.00    +0.069 C 
ATOM      8  C   UNL     1      35.394 -22.531 -17.510  0.00  0.00    +0.254 C 
ATOM      9  H   UNL     1      36.600 -23.017 -15.954  0.00  0.00    +0.159 HD
ENDROOT
BRANCH   3  12
ATOM     10  O4* UNL     1      31.165 -24.300 -15.732  0.00  0.00    -0.335 OA
ATOM     11  C3* UNL     1      30.613 -23.574 -13.545  0.00  0.00    +0.144 C 
ATOM     12  C1* UNL     1      32.384 -24.197 -14.981  0.00  0.00    +0.202 C 
ATOM     13  C2* UNL     1      32.091 -23.342 -13.760  0.00  0.00    +0.083 C 
ATOM     14  C4* UNL     1      30.082 -23.747 -14.961  0.00  0.00    +0.173 C 
BRANCH  11  15
ATOM     15  O3* UNL     1      30.418 -24.775 -12.802  0.00  0.00    -0.382 OA
ATOM     16  H3* UNL     1      29.468 -24.923 -12.670  0.00  0.00    +0.210 HD
ENDBRANCH  11  15
BRANCH  14  17
ATOM     17  C5* UNL     1      29.672 -22.430 -15.607  0.00  0.00    +0.169 C 
BRANCH  17  18
ATOM     18  O5* UNL     1      29.598 -22.611 -17.011  0.00  0.00    -0.379 OA
ATOM     19  H5* UNL     1      30.098 -23.405 -17.261  0.00  0.00    +0.211 HD
ENDBRANCH  17  18
ENDBRANCH  14  17
ENDBRANCH   3  12
BRANCH   7  21
ATOM     20 BR   UNL     1      32.833 -20.114 -21.093  0.00  0.00    -0.048 Br
ATOM     21  C   UNL     1      33.560 -22.091 -19.209  0.00  0.00    +0.013 C 
ATOM     22  C   UNL     1      33.352 -20.795 -19.447  0.00  0.00    +0.041 C 
ENDBRANCH   7  21
TORSDOF 5
ENDMDL
