MODEL 1
REMARK VINA RESULT:      -8.0      0.000      0.000
REMARK  Name = 23640750
REMARK  6 active torsions:
REMARK  status: ('A' for Active; 'I' for Inactive)
REMARK    1  A    between atoms: C_4  and  C_16
REMARK    2  A    between atoms: C_5  and  C_11
REMARK    3  A    between atoms: C_11  and  C_12
REMARK    4  A    between atoms: C_12  and  C_13
REMARK    5  A    between atoms: C_13  and  O_14
REMARK    6  A    between atoms: C_16  and  N_17
REMARK                            x       y       z     vdW  Elec       q    Type
REMARK                         _______ _______ _______ _____ _____    ______ ____
ROOT
ATOM      1  N   UNL     1      34.775 -16.856 -20.576  0.00  0.00    -0.312 N 
ATOM      2  C   UNL     1      34.786 -17.571 -21.751  0.00  0.00    +0.044 C 
ATOM      3  C   UNL     1      34.629 -16.654 -22.792  0.00  0.00    +0.008 C 
ATOM      4  C   UNL     1      34.523 -15.364 -22.201  0.00  0.00    -0.027 C 
ATOM      5  C   UNL     1      34.923 -18.947 -21.971  0.00  0.00    -0.009 C 
ATOM      6  C   UNL     1      34.616 -15.521 -20.836  0.00  0.00    +0.055 C 
ATOM      7  C   UNL     1      34.605 -17.130 -24.118  0.00  0.00    +0.001 C 
ATOM      8  C   UNL     1      34.896 -19.396 -23.295  0.00  0.00    -0.003 C 
ATOM      9  C   UNL     1      34.740 -18.503 -24.353  0.00  0.00    -0.000 C 
ATOM     10  H   UNL     1      34.868 -17.246 -19.677  0.00  0.00    +0.152 HD
ENDROOT
BRANCH   5  11
ATOM     11  C   UNL     1      35.091 -19.930 -20.862  0.00  0.00    +0.030 C 
BRANCH  11  12
ATOM     12  C   UNL     1      33.747 -20.425 -20.315  0.00  0.00    +0.036 C 
BRANCH  12  13
ATOM     13  C   UNL     1      33.900 -21.686 -19.475  0.00  0.00    +0.138 C 
BRANCH  13  14
ATOM     14  O   UNL     1      32.634 -22.026 -18.925  0.00  0.00    -0.382 OA
ATOM     15  H   UNL     1      32.508 -21.550 -18.088  0.00  0.00    +0.210 HD
ENDBRANCH  13  14
ENDBRANCH  12  13
ENDBRANCH  11  12
ENDBRANCH   5  11
BRANCH   4  16
ATOM     16  C   UNL     1      34.343 -14.083 -22.912  0.00  0.00    -0.049 C 
BRANCH  16  17
ATOM     17  N   UNL     1      32.972 -13.982 -23.417  0.00  0.00    +0.387 N 
ATOM     18  C   UNL     1      32.974 -13.854 -24.874  0.00  0.00    -0.100 C 
ATOM     19  C   UNL     1      32.286 -12.847 -22.804  0.00  0.00    -0.100 C 
ATOM     20  H   UNL     1      32.469 -14.834 -23.169  0.00  0.00    -0.079 HD
ENDBRANCH  16  17
ENDBRANCH   4  16
TORSDOF 6
ENDMDL
MODEL 2
REMARK VINA RESULT:      -7.9      2.649      3.968
REMARK  Name = 23640750
REMARK  6 active torsions:
REMARK  status: ('A' for Active; 'I' for Inactive)
REMARK    1  A    between atoms: C_4  and  C_16
REMARK    2  A    between atoms: C_5  and  C_11
REMARK    3  A    between atoms: C_11  and  C_12
REMARK    4  A    between atoms: C_12  and  C_13
REMARK    5  A    between atoms: C_13  and  O_14
REMARK    6  A    between atoms: C_16  and  N_17
REMARK                            x       y       z     vdW  Elec       q    Type
REMARK                         _______ _______ _______ _____ _____    ______ ____
ROOT
ATOM      1  N   UNL     1      36.789 -19.363 -21.008  0.00  0.00    -0.312 N 
ATOM      2  C   UNL     1      35.581 -19.908 -20.640  0.00  0.00    +0.044 C 
ATOM      3  C   UNL     1      34.586 -19.199 -21.315  0.00  0.00    +0.008 C 
ATOM      4  C   UNL     1      35.239 -18.209 -22.102  0.00  0.00    -0.027 C 
ATOM      5  C   UNL     1      35.294 -20.966 -19.769  0.00  0.00    -0.009 C 
ATOM      6  C   UNL     1      36.594 -18.335 -21.891  0.00  0.00    +0.055 C 
ATOM      7  C   UNL     1      33.239 -19.560 -21.113  0.00  0.00    +0.001 C 
ATOM      8  C   UNL     1      33.951 -21.306 -19.584  0.00  0.00    -0.003 C 
ATOM      9  C   UNL     1      32.938 -20.616 -20.245  0.00  0.00    -0.000 C 
ATOM     10  H   UNL     1      37.667 -19.667 -20.684  0.00  0.00    +0.152 HD
ENDROOT
BRANCH   5  11
ATOM     11  C   UNL     1      36.354 -21.727 -19.045  0.00  0.00    +0.030 C 
BRANCH  11  12
ATOM     12  C   UNL     1      35.930 -22.103 -17.620  0.00  0.00    +0.036 C 
BRANCH  12  13
ATOM     13  C   UNL     1      36.995 -21.745 -16.592  0.00  0.00    +0.138 C 
BRANCH  13  14
ATOM     14  O   UNL     1      37.553 -20.483 -16.932  0.00  0.00    -0.382 OA
ATOM     15  H   UNL     1      38.062 -20.143 -16.179  0.00  0.00    +0.210 HD
ENDBRANCH  13  14
ENDBRANCH  12  13
ENDBRANCH  11  12
ENDBRANCH   5  11
BRANCH   4  16
ATOM     16  C   UNL     1      34.591 -17.220 -22.985  0.00  0.00    -0.049 C 
BRANCH  16  17
ATOM     17  N   UNL     1      34.977 -17.466 -24.377  0.00  0.00    +0.387 N 
ATOM     18  C   UNL     1      34.512 -16.377 -25.234  0.00  0.00    -0.100 C 
ATOM     19  C   UNL     1      34.438 -18.745 -24.835  0.00  0.00    -0.100 C 
ATOM     20  H   UNL     1      35.994 -17.508 -24.431  0.00  0.00    -0.079 HD
ENDBRANCH  16  17
ENDBRANCH   4  16
TORSDOF 6
ENDMDL
MODEL 3
REMARK VINA RESULT:      -7.7      0.840      1.020
REMARK  Name = 23640750
REMARK  6 active torsions:
REMARK  status: ('A' for Active; 'I' for Inactive)
REMARK    1  A    between atoms: C_4  and  C_16
REMARK    2  A    between atoms: C_5  and  C_11
REMARK    3  A    between atoms: C_11  and  C_12
REMARK    4  A    between atoms: C_12  and  C_13
REMARK    5  A    between atoms: C_13  and  O_14
REMARK    6  A    between atoms: C_16  and  N_17
REMARK                            x       y       z     vdW  Elec       q    Type
REMARK                         _______ _______ _______ _____ _____    ______ ____
ROOT
ATOM      1  N   UNL     1      34.703 -16.402 -21.256  0.00  0.00    -0.312 N 
ATOM      2  C   UNL     1      34.704 -17.274 -22.320  0.00  0.00    +0.044 C 
ATOM      3  C   UNL     1      34.493 -16.516 -23.473  0.00  0.00    +0.008 C 
ATOM      4  C   UNL     1      34.366 -15.159 -23.064  0.00  0.00    -0.027 C 
ATOM      5  C   UNL     1      34.875 -18.663 -22.351  0.00  0.00    -0.009 C 
ATOM      6  C   UNL     1      34.498 -15.121 -21.695  0.00  0.00    +0.055 C 
ATOM      7  C   UNL     1      34.449 -17.174 -24.719  0.00  0.00    +0.001 C 
ATOM      8  C   UNL     1      34.827 -19.294 -23.597  0.00  0.00    -0.003 C 
ATOM      9  C   UNL     1      34.618 -18.562 -24.765  0.00  0.00    -0.000 C 
ATOM     10  H   UNL     1      34.830 -16.660 -20.315  0.00  0.00    +0.152 HD
ENDROOT
BRANCH   5  11
ATOM     11  C   UNL     1      35.101 -19.477 -21.121  0.00  0.00    +0.030 C 
BRANCH  11  12
ATOM     12  C   UNL     1      33.805 -20.108 -20.595  0.00  0.00    +0.036 C 
BRANCH  12  13
ATOM     13  C   UNL     1      34.076 -21.310 -19.701  0.00  0.00    +0.138 C 
BRANCH  13  14
ATOM     14  O   UNL     1      32.838 -21.927 -19.376  0.00  0.00    -0.382 OA
ATOM     15  H   UNL     1      32.380 -22.180 -20.193  0.00  0.00    +0.210 HD
ENDBRANCH  13  14
ENDBRANCH  12  13
ENDBRANCH  11  12
ENDBRANCH   5  11
BRANCH   4  16
ATOM     16  C   UNL     1      34.130 -13.995 -23.941  0.00  0.00    -0.049 C 
BRANCH  16  17
ATOM     17  N   UNL     1      33.556 -12.894 -23.164  0.00  0.00    +0.387 N 
ATOM     18  C   UNL     1      32.155 -13.168 -22.851  0.00  0.00    -0.100 C 
ATOM     19  C   UNL     1      33.681 -11.635 -23.896  0.00  0.00    -0.100 C 
ATOM     20  H   UNL     1      34.072 -12.809 -22.288  0.00  0.00    -0.079 HD
ENDBRANCH  16  17
ENDBRANCH   4  16
TORSDOF 6
ENDMDL
MODEL 4
REMARK VINA RESULT:      -7.6      2.419      4.700
REMARK  Name = 23640750
REMARK  6 active torsions:
REMARK  status: ('A' for Active; 'I' for Inactive)
REMARK    1  A    between atoms: C_4  and  C_16
REMARK    2  A    between atoms: C_5  and  C_11
REMARK    3  A    between atoms: C_11  and  C_12
REMARK    4  A    between atoms: C_12  and  C_13
REMARK    5  A    between atoms: C_13  and  O_14
REMARK    6  A    between atoms: C_16  and  N_17
REMARK                            x       y       z     vdW  Elec       q    Type
REMARK                         _______ _______ _______ _____ _____    ______ ____
ROOT
ATOM      1  N   UNL     1      32.691 -20.741 -20.216  0.00  0.00    -0.312 N 
ATOM      2  C   UNL     1      33.921 -21.106 -19.718  0.00  0.00    +0.044 C 
ATOM      3  C   UNL     1      34.882 -20.370 -20.413  0.00  0.00    +0.008 C 
ATOM      4  C   UNL     1      34.187 -19.550 -21.346  0.00  0.00    -0.027 C 
ATOM      5  C   UNL     1      34.253 -22.023 -18.713  0.00  0.00    -0.009 C 
ATOM      6  C   UNL     1      32.841 -19.802 -21.202  0.00  0.00    +0.055 C 
ATOM      7  C   UNL     1      36.242 -20.556 -20.092  0.00  0.00    +0.001 C 
ATOM      8  C   UNL     1      35.608 -22.191 -18.413  0.00  0.00    -0.003 C 
ATOM      9  C   UNL     1      36.589 -21.469 -19.091  0.00  0.00    -0.000 C 
ATOM     10  H   UNL     1      31.829 -21.103 -19.910  0.00  0.00    +0.152 HD
ENDROOT
BRANCH   5  11
ATOM     11  C   UNL     1      33.229 -22.811 -17.968  0.00  0.00    +0.030 C 
BRANCH  11  12
ATOM     12  C   UNL     1      33.730 -23.258 -16.589  0.00  0.00    +0.036 C 
BRANCH  12  13
ATOM     13  C   UNL     1      32.589 -23.445 -15.598  0.00  0.00    +0.138 C 
BRANCH  13  14
ATOM     14  O   UNL     1      32.974 -22.891 -14.347  0.00  0.00    -0.382 OA
ATOM     15  H   UNL     1      32.768 -21.943 -14.338  0.00  0.00    +0.210 HD
ENDBRANCH  13  14
ENDBRANCH  12  13
ENDBRANCH  11  12
ENDBRANCH   5  11
BRANCH   4  16
ATOM     16  C   UNL     1      34.790 -18.601 -22.303  0.00  0.00    -0.049 C 
BRANCH  16  17
ATOM     17  N   UNL     1      34.279 -17.251 -22.053  0.00  0.00    +0.387 N 
ATOM     18  C   UNL     1      34.508 -16.398 -23.218  0.00  0.00    -0.100 C 
ATOM     19  C   UNL     1      34.912 -16.679 -20.867  0.00  0.00    -0.100 C 
ATOM     20  H   UNL     1      33.275 -17.307 -21.887  0.00  0.00    -0.079 HD
ENDBRANCH  16  17
ENDBRANCH   4  16
TORSDOF 6
ENDMDL
MODEL 5
REMARK VINA RESULT:      -7.6      2.326      5.594
REMARK  Name = 23640750
REMARK  6 active torsions:
REMARK  status: ('A' for Active; 'I' for Inactive)
REMARK    1  A    between atoms: C_4  and  C_16
REMARK    2  A    between atoms: C_5  and  C_11
REMARK    3  A    between atoms: C_11  and  C_12
REMARK    4  A    between atoms: C_12  and  C_13
REMARK    5  A    between atoms: C_13  and  O_14
REMARK    6  A    between atoms: C_16  and  N_17
REMARK                            x       y       z     vdW  Elec       q    Type
REMARK                         _______ _______ _______ _____ _____    ______ ____
ROOT
ATOM      1  N   UNL     1      34.854 -16.205 -21.537  0.00  0.00    -0.312 N 
ATOM      2  C   UNL     1      34.658 -16.525 -22.862  0.00  0.00    +0.044 C 
ATOM      3  C   UNL     1      34.842 -17.903 -22.984  0.00  0.00    +0.008 C 
ATOM      4  C   UNL     1      35.155 -18.400 -21.688  0.00  0.00    -0.027 C 
ATOM      5  C   UNL     1      34.334 -15.707 -23.950  0.00  0.00    -0.009 C 
ATOM      6  C   UNL     1      35.155 -17.332 -20.819  0.00  0.00    +0.055 C 
ATOM      7  C   UNL     1      34.697 -18.497 -24.254  0.00  0.00    +0.001 C 
ATOM      8  C   UNL     1      34.196 -16.318 -25.200  0.00  0.00    -0.003 C 
ATOM      9  C   UNL     1      34.374 -17.691 -25.351  0.00  0.00    -0.000 C 
ATOM     10  H   UNL     1      34.787 -15.299 -21.160  0.00  0.00    +0.152 HD
ENDROOT
BRANCH   5  11
ATOM     11  C   UNL     1      34.136 -14.233 -23.824  0.00  0.00    +0.030 C 
BRANCH  11  12
ATOM     12  C   UNL     1      32.661 -13.859 -23.630  0.00  0.00    +0.036 C 
BRANCH  12  13
ATOM     13  C   UNL     1      32.373 -13.379 -22.214  0.00  0.00    +0.138 C 
BRANCH  13  14
ATOM     14  O   UNL     1      32.283 -14.509 -21.357  0.00  0.00    -0.382 OA
ATOM     15  H   UNL     1      31.352 -14.676 -21.141  0.00  0.00    +0.210 HD
ENDBRANCH  13  14
ENDBRANCH  12  13
ENDBRANCH  11  12
ENDBRANCH   5  11
BRANCH   4  16
ATOM     16  C   UNL     1      35.434 -19.805 -21.328  0.00  0.00    -0.049 C 
BRANCH  16  17
ATOM     17  N   UNL     1      34.688 -20.167 -20.121  0.00  0.00    +0.387 N 
ATOM     18  C   UNL     1      35.267 -21.359 -19.504  0.00  0.00    -0.100 C 
ATOM     19  C   UNL     1      33.279 -20.389 -20.441  0.00  0.00    -0.100 C 
ATOM     20  H   UNL     1      34.749 -19.397 -19.456  0.00  0.00    -0.079 HD
ENDBRANCH  16  17
ENDBRANCH   4  16
TORSDOF 6
ENDMDL
MODEL 6
REMARK VINA RESULT:      -7.5      3.438      6.401
REMARK  Name = 23640750
REMARK  6 active torsions:
REMARK  status: ('A' for Active; 'I' for Inactive)
REMARK    1  A    between atoms: C_4  and  C_16
REMARK    2  A    between atoms: C_5  and  C_11
REMARK    3  A    between atoms: C_11  and  C_12
REMARK    4  A    between atoms: C_12  and  C_13
REMARK    5  A    between atoms: C_13  and  O_14
REMARK    6  A    between atoms: C_16  and  N_17
REMARK                            x       y       z     vdW  Elec       q    Type
REMARK                         _______ _______ _______ _____ _____    ______ ____
ROOT
ATOM      1  N   UNL     1      34.323 -15.314 -21.517  0.00  0.00    -0.312 N 
ATOM      2  C   UNL     1      34.196 -15.577 -22.862  0.00  0.00    +0.044 C 
ATOM      3  C   UNL     1      34.713 -16.856 -23.081  0.00  0.00    +0.008 C 
ATOM      4  C   UNL     1      35.153 -17.350 -21.821  0.00  0.00    -0.027 C 
ATOM      5  C   UNL     1      33.668 -14.790 -23.891  0.00  0.00    -0.009 C 
ATOM      6  C   UNL     1      34.900 -16.379 -20.879  0.00  0.00    +0.055 C 
ATOM      7  C   UNL     1      34.704 -17.375 -24.391  0.00  0.00    +0.001 C 
ATOM      8  C   UNL     1      33.671 -15.326 -25.182  0.00  0.00    -0.003 C 
ATOM      9  C   UNL     1      34.180 -16.599 -25.430  0.00  0.00    -0.000 C 
ATOM     10  H   UNL     1      34.039 -14.481 -21.076  0.00  0.00    +0.152 HD
ENDROOT
BRANCH   5  11
ATOM     11  C   UNL     1      33.115 -13.423 -23.661  0.00  0.00    +0.030 C 
BRANCH  11  12
ATOM     12  C   UNL     1      33.792 -12.366 -24.541  0.00  0.00    +0.036 C 
BRANCH  12  13
ATOM     13  C   UNL     1      33.739 -10.979 -23.914  0.00  0.00    +0.138 C 
BRANCH  13  14
ATOM     14  O   UNL     1      35.024 -10.381 -24.016  0.00  0.00    -0.382 OA
ATOM     15  H   UNL     1      35.677 -11.059 -24.254  0.00  0.00    +0.210 HD
ENDBRANCH  13  14
ENDBRANCH  12  13
ENDBRANCH  11  12
ENDBRANCH   5  11
BRANCH   4  16
ATOM     16  C   UNL     1      35.773 -18.665 -21.561  0.00  0.00    -0.049 C 
BRANCH  16  17
ATOM     17  N   UNL     1      34.971 -19.411 -20.588  0.00  0.00    +0.387 N 
ATOM     18  C   UNL     1      35.685 -20.609 -20.152  0.00  0.00    -0.100 C 
ATOM     19  C   UNL     1      33.676 -19.766 -21.164  0.00  0.00    -0.100 C 
ATOM     20  H   UNL     1      34.810 -18.817 -19.775  0.00  0.00    -0.079 HD
ENDBRANCH  16  17
ENDBRANCH   4  16
TORSDOF 6
ENDMDL
MODEL 7
REMARK VINA RESULT:      -7.4      2.847      6.151
REMARK  Name = 23640750
REMARK  6 active torsions:
REMARK  status: ('A' for Active; 'I' for Inactive)
REMARK    1  A    between atoms: C_4  and  C_16
REMARK    2  A    between atoms: C_5  and  C_11
REMARK    3  A    between atoms: C_11  and  C_12
REMARK    4  A    between atoms: C_12  and  C_13
REMARK    5  A    between atoms: C_13  and  O_14
REMARK    6  A    between atoms: C_16  and  N_17
REMARK                            x       y       z     vdW  Elec       q    Type
REMARK                         _______ _______ _______ _____ _____    ______ ____
ROOT
ATOM      1  N   UNL     1      35.302 -16.439 -23.718  0.00  0.00    -0.312 N 
ATOM      2  C   UNL     1      34.590 -15.692 -22.808  0.00  0.00    +0.044 C 
ATOM      3  C   UNL     1      34.641 -16.370 -21.589  0.00  0.00    +0.008 C 
ATOM      4  C   UNL     1      35.410 -17.549 -21.798  0.00  0.00    -0.027 C 
ATOM      5  C   UNL     1      33.910 -14.479 -22.969  0.00  0.00    -0.009 C 
ATOM      6  C   UNL     1      35.802 -17.564 -23.118  0.00  0.00    +0.055 C 
ATOM      7  C   UNL     1      33.983 -15.813 -20.474  0.00  0.00    +0.001 C 
ATOM      8  C   UNL     1      33.264 -13.946 -21.850  0.00  0.00    -0.003 C 
ATOM      9  C   UNL     1      33.299 -14.601 -20.621  0.00  0.00    -0.000 C 
ATOM     10  H   UNL     1      35.435 -16.200 -24.663  0.00  0.00    +0.152 HD
ENDROOT
BRANCH   5  11
ATOM     11  C   UNL     1      33.853 -13.751 -24.270  0.00  0.00    +0.030 C 
BRANCH  11  12
ATOM     12  C   UNL     1      32.685 -14.220 -25.147  0.00  0.00    +0.036 C 
BRANCH  12  13
ATOM     13  C   UNL     1      33.160 -14.781 -26.481  0.00  0.00    +0.138 C 
BRANCH  13  14
ATOM     14  O   UNL     1      33.876 -15.985 -26.241  0.00  0.00    -0.382 OA
ATOM     15  H   UNL     1      34.239 -16.315 -27.078  0.00  0.00    +0.210 HD
ENDBRANCH  13  14
ENDBRANCH  12  13
ENDBRANCH  11  12
ENDBRANCH   5  11
BRANCH   4  16
ATOM     16  C   UNL     1      35.732 -18.579 -20.791  0.00  0.00    -0.049 C 
BRANCH  16  17
ATOM     17  N   UNL     1      35.063 -19.838 -21.134  0.00  0.00    +0.387 N 
ATOM     18  C   UNL     1      33.625 -19.730 -20.899  0.00  0.00    -0.100 C 
ATOM     19  C   UNL     1      35.628 -20.940 -20.359  0.00  0.00    -0.100 C 
ATOM     20  H   UNL     1      35.216 -20.028 -22.123  0.00  0.00    -0.079 HD
ENDBRANCH  16  17
ENDBRANCH   4  16
TORSDOF 6
ENDMDL
MODEL 8
REMARK VINA RESULT:      -7.4      2.025      2.833
REMARK  Name = 23640750
REMARK  6 active torsions:
REMARK  status: ('A' for Active; 'I' for Inactive)
REMARK    1  A    between atoms: C_4  and  C_16
REMARK    2  A    between atoms: C_5  and  C_11
REMARK    3  A    between atoms: C_11  and  C_12
REMARK    4  A    between atoms: C_12  and  C_13
REMARK    5  A    between atoms: C_13  and  O_14
REMARK    6  A    between atoms: C_16  and  N_17
REMARK                            x       y       z     vdW  Elec       q    Type
REMARK                         _______ _______ _______ _____ _____    ______ ____
ROOT
ATOM      1  N   UNL     1      34.833 -15.505 -22.110  0.00  0.00    -0.312 N 
ATOM      2  C   UNL     1      34.544 -16.019 -23.354  0.00  0.00    +0.044 C 
ATOM      3  C   UNL     1      33.839 -15.036 -24.051  0.00  0.00    +0.008 C 
ATOM      4  C   UNL     1      33.715 -13.915 -23.183  0.00  0.00    -0.027 C 
ATOM      5  C   UNL     1      34.851 -17.266 -23.910  0.00  0.00    -0.009 C 
ATOM      6  C   UNL     1      34.336 -14.234 -21.997  0.00  0.00    +0.055 C 
ATOM      7  C   UNL     1      33.417 -15.310 -25.368  0.00  0.00    +0.001 C 
ATOM      8  C   UNL     1      34.422 -17.515 -25.217  0.00  0.00    -0.003 C 
ATOM      9  C   UNL     1      33.717 -16.553 -25.936  0.00  0.00    -0.000 C 
ATOM     10  H   UNL     1      35.327 -15.981 -21.404  0.00  0.00    +0.152 HD
ENDROOT
BRANCH   5  11
ATOM     11  C   UNL     1      35.605 -18.319 -23.168  0.00  0.00    +0.030 C 
BRANCH  11  12
ATOM     12  C   UNL     1      34.674 -19.307 -22.454  0.00  0.00    +0.036 C 
BRANCH  12  13
ATOM     13  C   UNL     1      34.783 -19.204 -20.939  0.00  0.00    +0.138 C 
BRANCH  13  14
ATOM     14  O   UNL     1      35.651 -18.126 -20.615  0.00  0.00    -0.382 OA
ATOM     15  H   UNL     1      36.373 -18.089 -21.261  0.00  0.00    +0.210 HD
ENDBRANCH  13  14
ENDBRANCH  12  13
ENDBRANCH  11  12
ENDBRANCH   5  11
BRANCH   4  16
ATOM     16  C   UNL     1      33.041 -12.638 -23.489  0.00  0.00    -0.049 C 
BRANCH  16  17
ATOM     17  N   UNL     1      34.002 -11.693 -24.065  0.00  0.00    +0.387 N 
ATOM     18  C   UNL     1      33.716 -10.335 -23.608  0.00  0.00    -0.100 C 
ATOM     19  C   UNL     1      33.968 -11.761 -25.525  0.00  0.00    -0.100 C 
ATOM     20  H   UNL     1      34.938 -11.949 -23.753  0.00  0.00    -0.079 HD
ENDBRANCH  16  17
ENDBRANCH   4  16
TORSDOF 6
ENDMDL
MODEL 9
REMARK VINA RESULT:      -7.4      8.656     11.014
REMARK  Name = 23640750
REMARK  6 active torsions:
REMARK  status: ('A' for Active; 'I' for Inactive)
REMARK    1  A    between atoms: C_4  and  C_16
REMARK    2  A    between atoms: C_5  and  C_11
REMARK    3  A    between atoms: C_11  and  C_12
REMARK    4  A    between atoms: C_12  and  C_13
REMARK    5  A    between atoms: C_13  and  O_14
REMARK    6  A    between atoms: C_16  and  N_17
REMARK                            x       y       z     vdW  Elec       q    Type
REMARK                         _______ _______ _______ _____ _____    ______ ____
ROOT
ATOM      1  N   UNL     1      32.723 -23.730 -13.474  0.00  0.00    -0.312 N 
ATOM      2  C   UNL     1      32.659 -23.465 -14.823  0.00  0.00    +0.044 C 
ATOM      3  C   UNL     1      33.931 -23.695 -15.348  0.00  0.00    +0.008 C 
ATOM      4  C   UNL     1      34.761 -24.108 -14.268  0.00  0.00    -0.027 C 
ATOM      5  C   UNL     1      31.581 -23.043 -15.611  0.00  0.00    -0.009 C 
ATOM      6  C   UNL     1      33.989 -24.119 -13.128  0.00  0.00    +0.055 C 
ATOM      7  C   UNL     1      34.142 -23.495 -16.727  0.00  0.00    +0.001 C 
ATOM      8  C   UNL     1      31.815 -22.851 -16.976  0.00  0.00    -0.003 C 
ATOM      9  C   UNL     1      33.075 -23.073 -17.527  0.00  0.00    -0.000 C 
ATOM     10  H   UNL     1      31.968 -23.652 -12.847  0.00  0.00    +0.152 HD
ENDROOT
BRANCH   5  11
ATOM     11  C   UNL     1      30.220 -22.797 -15.053  0.00  0.00    +0.030 C 
BRANCH  11  12
ATOM     12  C   UNL     1      29.191 -23.815 -15.559  0.00  0.00    +0.036 C 
BRANCH  12  13
ATOM     13  C   UNL     1      28.133 -23.169 -16.444  0.00  0.00    +0.138 C 
BRANCH  13  14
ATOM     14  O   UNL     1      27.770 -24.086 -17.467  0.00  0.00    -0.382 OA
ATOM     15  H   UNL     1      28.340 -23.949 -18.240  0.00  0.00    +0.210 HD
ENDBRANCH  13  14
ENDBRANCH  12  13
ENDBRANCH  11  12
ENDBRANCH   5  11
BRANCH   4  16
ATOM     16  C   UNL     1      36.193 -24.459 -14.344  0.00  0.00    -0.049 C 
BRANCH  16  17
ATOM     17  N   UNL     1      36.378 -25.873 -14.006  0.00  0.00    +0.387 N 
ATOM     18  C   UNL     1      37.378 -26.016 -12.949  0.00  0.00    -0.100 C 
ATOM     19  C   UNL     1      36.771 -26.632 -15.191  0.00  0.00    -0.100 C 
ATOM     20  H   UNL     1      35.492 -26.245 -13.664  0.00  0.00    -0.079 HD
ENDBRANCH  16  17
ENDBRANCH   4  16
TORSDOF 6
ENDMDL
