MODEL 1
REMARK VINA RESULT:      -8.8      0.000      0.000
REMARK  Name = 24795069
REMARK  9 active torsions:
REMARK  status: ('A' for Active; 'I' for Inactive)
REMARK    1  A    between atoms: C_2  and  C_31
REMARK    2  A    between atoms: C_4  and  O_20
REMARK    3  A    between atoms: C_13  and  O_16
REMARK    4  A    between atoms: C_14  and  O_18
REMARK    5  A    between atoms: O_20  and  C_22
REMARK    6  A    between atoms: C_22  and  C_23
REMARK    7  A    between atoms: C_23  and  N_24
REMARK    8  A    between atoms: C_23  and  C_28
REMARK    9  A    between atoms: C_31  and  C_32
REMARK                            x       y       z     vdW  Elec       q    Type
REMARK                         _______ _______ _______ _____ _____    ______ ____
ROOT
ATOM      1  N   UNL     1      32.064 -11.525 -20.786  0.00  0.00    +0.391 N 
ATOM      2  C   UNL     1      32.795 -13.704 -21.692  0.00  0.00    +0.019 C 
ATOM      3  C   UNL     1      31.855 -10.947 -22.138  0.00  0.00    -0.031 C 
ATOM      4  C   UNL     1      32.728 -13.133 -23.112  0.00  0.00    +0.165 C 
ATOM      5  C   UNL     1      31.808 -12.971 -20.773  0.00  0.00    -0.073 C 
ATOM      6  C   UNL     1      32.870 -11.609 -23.095  0.00  0.00    +0.027 C 
ATOM      7  C   UNL     1      31.229 -10.843 -19.793  0.00  0.00    -0.072 C 
ATOM      8  C   UNL     1      31.947  -9.422 -22.151  0.00  0.00    -0.042 C 
ATOM      9  C   UNL     1      31.723  -9.408 -19.628  0.00  0.00    +0.003 C 
ATOM     10  C   UNL     1      31.855  -8.694 -20.948  0.00  0.00    -0.027 C 
ATOM     11  C   UNL     1      32.031  -8.705 -23.357  0.00  0.00    +0.033 C 
ATOM     12  C   UNL     1      31.924  -7.292 -20.962  0.00  0.00    +0.035 C 
ATOM     13  C   UNL     1      32.086  -7.310 -23.363  0.00  0.00    +0.172 C 
ATOM     14  C   UNL     1      32.041  -6.603 -22.166  0.00  0.00    +0.172 C 
ATOM     15  H   UNL     1      33.042 -11.380 -20.537  0.00  0.00    -0.079 HD
ENDROOT
BRANCH  13  16
ATOM     16  O   UNL     1      32.180  -6.651 -24.552  0.00  0.00    -0.468 OA
ATOM     17  C   UNL     1      33.484  -6.259 -24.974  0.00  0.00    +0.253 C 
ENDBRANCH  13  16
BRANCH  14  18
ATOM     18  O   UNL     1      32.098  -5.243 -22.159  0.00  0.00    -0.468 OA
ATOM     19  C   UNL     1      30.875  -4.542 -22.373  0.00  0.00    +0.253 C 
ENDBRANCH  14  18
BRANCH   4  20
ATOM     20  O   UNL     1      33.774 -13.692 -23.900  0.00  0.00    -0.454 OA
BRANCH  20  22
ATOM     21  O   UNL     1      33.409 -13.167 -26.114  0.00  0.00    -0.252 OA
ATOM     22  C   UNL     1      33.453 -13.981 -25.201  0.00  0.00    +0.296 C 
BRANCH  22  23
ATOM     23  C   UNL     1      33.165 -15.468 -25.336  0.00  0.00    +0.036 C 
BRANCH  23  24
ATOM     24  N   UNL     1      32.453 -15.688 -26.597  0.00  0.00    +0.389 N 
ATOM     25  H   UNL     1      31.485 -15.384 -26.498  0.00  0.00    -0.088 HD
ATOM     26  H   UNL     1      32.477 -16.680 -26.833  0.00  0.00    -0.088 HD
ATOM     27  H   UNL     1      32.903 -15.152 -27.339  0.00  0.00    -0.088 HD
ENDBRANCH  23  24
BRANCH  23  28
ATOM     28  C   UNL     1      34.450 -16.318 -25.213  0.00  0.00    -0.010 C 
ATOM     29  C   UNL     1      34.142 -17.814 -25.336  0.00  0.00    -0.002 C 
ATOM     30  C   UNL     1      35.237 -16.058 -23.923  0.00  0.00    -0.002 C 
ENDBRANCH  23  28
ENDBRANCH  22  23
ENDBRANCH  20  22
ENDBRANCH   4  20
BRANCH   2  31
ATOM     31  C   UNL     1      32.519 -15.211 -21.685  0.00  0.00    +0.001 C 
BRANCH  31  32
ATOM     32  C   UNL     1      33.375 -15.980 -20.670  0.00  0.00    +0.000 C 
ATOM     33  C   UNL     1      33.687 -17.406 -21.127  0.00  0.00    +0.000 C 
ATOM     34  C   UNL     1      34.679 -15.220 -20.420  0.00  0.00    +0.000 C 
ENDBRANCH  31  32
ENDBRANCH   2  31
TORSDOF 9
ENDMDL
MODEL 2
REMARK VINA RESULT:      -8.3      9.671     14.078
REMARK  Name = 24795069
REMARK  9 active torsions:
REMARK  status: ('A' for Active; 'I' for Inactive)
REMARK    1  A    between atoms: C_2  and  C_31
REMARK    2  A    between atoms: C_4  and  O_20
REMARK    3  A    between atoms: C_13  and  O_16
REMARK    4  A    between atoms: C_14  and  O_18
REMARK    5  A    between atoms: O_20  and  C_22
REMARK    6  A    between atoms: C_22  and  C_23
REMARK    7  A    between atoms: C_23  and  N_24
REMARK    8  A    between atoms: C_23  and  C_28
REMARK    9  A    between atoms: C_31  and  C_32
REMARK                            x       y       z     vdW  Elec       q    Type
REMARK                         _______ _______ _______ _____ _____    ______ ____
ROOT
ATOM      1  N   UNL     1      36.020 -23.028 -15.832  0.00  0.00    +0.391 N 
ATOM      2  C   UNL     1      34.866 -24.455 -14.178  0.00  0.00    +0.019 C 
ATOM      3  C   UNL     1      34.745 -22.490 -16.371  0.00  0.00    -0.031 C 
ATOM      4  C   UNL     1      33.514 -24.043 -14.771  0.00  0.00    +0.165 C 
ATOM      5  C   UNL     1      35.908 -23.350 -14.404  0.00  0.00    -0.073 C 
ATOM      6  C   UNL     1      33.671 -23.588 -16.224  0.00  0.00    +0.027 C 
ATOM      7  C   UNL     1      37.122 -22.090 -16.065  0.00  0.00    -0.072 C 
ATOM      8  C   UNL     1      34.875 -21.986 -17.808  0.00  0.00    -0.042 C 
ATOM      9  C   UNL     1      37.396 -22.007 -17.565  0.00  0.00    +0.003 C 
ATOM     10  C   UNL     1      36.146 -21.732 -18.360  0.00  0.00    -0.027 C 
ATOM     11  C   UNL     1      33.741 -21.677 -18.579  0.00  0.00    +0.033 C 
ATOM     12  C   UNL     1      36.264 -21.255 -19.674  0.00  0.00    +0.035 C 
ATOM     13  C   UNL     1      33.867 -21.190 -19.881  0.00  0.00    +0.172 C 
ATOM     14  C   UNL     1      35.128 -20.986 -20.432  0.00  0.00    +0.172 C 
ATOM     15  H   UNL     1      36.225 -23.893 -16.332  0.00  0.00    -0.079 HD
ENDROOT
BRANCH  13  16
ATOM     16  O   UNL     1      32.745 -20.913 -20.602  0.00  0.00    -0.468 OA
ATOM     17  C   UNL     1      32.284 -19.564 -20.594  0.00  0.00    +0.253 C 
ENDBRANCH  13  16
BRANCH  14  18
ATOM     18  O   UNL     1      35.263 -20.516 -21.703  0.00  0.00    -0.468 OA
ATOM     19  C   UNL     1      35.593 -19.137 -21.852  0.00  0.00    +0.253 C 
ENDBRANCH  14  18
BRANCH   4  20
ATOM     20  O   UNL     1      32.616 -25.147 -14.719  0.00  0.00    -0.454 OA
BRANCH  20  22
ATOM     21  O   UNL     1      31.291 -24.582 -12.920  0.00  0.00    -0.252 OA
ATOM     22  C   UNL     1      31.421 -24.915 -14.091  0.00  0.00    +0.296 C 
BRANCH  22  23
ATOM     23  C   UNL     1      30.278 -25.132 -15.072  0.00  0.00    +0.036 C 
BRANCH  23  24
ATOM     24  N   UNL     1      29.109 -25.598 -14.326  0.00  0.00    +0.389 N 
ATOM     25  H   UNL     1      29.332 -26.477 -13.860  0.00  0.00    -0.088 HD
ATOM     26  H   UNL     1      28.329 -25.739 -14.967  0.00  0.00    -0.088 HD
ATOM     27  H   UNL     1      28.851 -24.899 -13.628  0.00  0.00    -0.088 HD
ENDBRANCH  23  24
BRANCH  23  28
ATOM     28  C   UNL     1      29.993 -23.865 -15.912  0.00  0.00    -0.010 C 
ATOM     29  C   UNL     1      30.087 -22.598 -15.056  0.00  0.00    -0.002 C 
ATOM     30  C   UNL     1      28.641 -23.899 -16.636  0.00  0.00    -0.002 C 
ENDBRANCH  23  28
ENDBRANCH  22  23
ENDBRANCH  20  22
ENDBRANCH   4  20
BRANCH   2  31
ATOM     31  C   UNL     1      34.743 -24.782 -12.687  0.00  0.00    +0.001 C 
BRANCH  31  32
ATOM     32  C   UNL     1      36.040 -24.540 -11.903  0.00  0.00    +0.000 C 
ATOM     33  C   UNL     1      35.797 -24.390 -10.400  0.00  0.00    +0.000 C 
ATOM     34  C   UNL     1      37.014 -25.694 -12.157  0.00  0.00    +0.000 C 
ENDBRANCH  31  32
ENDBRANCH   2  31
TORSDOF 9
ENDMDL
MODEL 3
REMARK VINA RESULT:      -7.5      8.639     13.096
REMARK  Name = 24795069
REMARK  9 active torsions:
REMARK  status: ('A' for Active; 'I' for Inactive)
REMARK    1  A    between atoms: C_2  and  C_31
REMARK    2  A    between atoms: C_4  and  O_20
REMARK    3  A    between atoms: C_13  and  O_16
REMARK    4  A    between atoms: C_14  and  O_18
REMARK    5  A    between atoms: O_20  and  C_22
REMARK    6  A    between atoms: C_22  and  C_23
REMARK    7  A    between atoms: C_23  and  N_24
REMARK    8  A    between atoms: C_23  and  C_28
REMARK    9  A    between atoms: C_31  and  C_32
REMARK                            x       y       z     vdW  Elec       q    Type
REMARK                         _______ _______ _______ _____ _____    ______ ____
ROOT
ATOM      1  N   UNL     1      33.629 -22.281 -18.044  0.00  0.00    +0.391 N 
ATOM      2  C   UNL     1      34.234 -23.354 -15.901  0.00  0.00    +0.019 C 
ATOM      3  C   UNL     1      35.047 -22.146 -18.463  0.00  0.00    -0.031 C 
ATOM      4  C   UNL     1      35.717 -23.127 -16.211  0.00  0.00    +0.165 C 
ATOM      5  C   UNL     1      33.427 -23.468 -17.202  0.00  0.00    -0.073 C 
ATOM      6  C   UNL     1      35.900 -21.965 -17.190  0.00  0.00    +0.027 C 
ATOM      7  C   UNL     1      32.741 -22.316 -19.209  0.00  0.00    -0.072 C 
ATOM      8  C   UNL     1      35.260 -21.020 -19.475  0.00  0.00    -0.042 C 
ATOM      9  C   UNL     1      32.763 -20.951 -19.893  0.00  0.00    +0.003 C 
ATOM     10  C   UNL     1      34.164 -20.475 -20.173  0.00  0.00    -0.027 C 
ATOM     11  C   UNL     1      36.549 -20.567 -19.803  0.00  0.00    +0.033 C 
ATOM     12  C   UNL     1      34.363 -19.453 -21.114  0.00  0.00    +0.035 C 
ATOM     13  C   UNL     1      36.739 -19.558 -20.749  0.00  0.00    +0.172 C 
ATOM     14  C   UNL     1      35.646 -18.995 -21.399  0.00  0.00    +0.172 C 
ATOM     15  H   UNL     1      33.393 -21.461 -17.486  0.00  0.00    -0.079 HD
ENDROOT
BRANCH  13  16
ATOM     16  O   UNL     1      38.003 -19.136 -21.031  0.00  0.00    -0.468 OA
ATOM     17  C   UNL     1      38.248 -18.656 -22.351  0.00  0.00    +0.253 C 
ENDBRANCH  13  16
BRANCH  14  18
ATOM     18  O   UNL     1      35.818 -18.008 -22.321  0.00  0.00    -0.468 OA
ATOM     19  C   UNL     1      34.953 -16.878 -22.229  0.00  0.00    +0.253 C 
ENDBRANCH  14  18
BRANCH   4  20
ATOM     20  O   UNL     1      36.416 -22.838 -15.004  0.00  0.00    -0.454 OA
BRANCH  20  22
ATOM     21  O   UNL     1      38.559 -23.561 -15.447  0.00  0.00    -0.252 OA
ATOM     22  C   UNL     1      37.539 -23.588 -14.770  0.00  0.00    +0.296 C 
BRANCH  22  23
ATOM     23  C   UNL     1      37.326 -24.455 -13.538  0.00  0.00    +0.036 C 
BRANCH  23  24
ATOM     24  N   UNL     1      38.635 -24.893 -13.049  0.00  0.00    +0.389 N 
ATOM     25  H   UNL     1      38.720 -24.668 -12.058  0.00  0.00    -0.088 HD
ATOM     26  H   UNL     1      39.370 -24.417 -13.571  0.00  0.00    -0.088 HD
ATOM     27  H   UNL     1      38.725 -25.901 -13.178  0.00  0.00    -0.088 HD
ENDBRANCH  23  24
BRANCH  23  28
ATOM     28  C   UNL     1      36.491 -23.727 -12.459  0.00  0.00    -0.010 C 
ATOM     29  C   UNL     1      37.363 -22.783 -11.626  0.00  0.00    -0.002 C 
ATOM     30  C   UNL     1      35.726 -24.678 -11.530  0.00  0.00    -0.002 C 
ENDBRANCH  23  28
ENDBRANCH  22  23
ENDBRANCH  20  22
ENDBRANCH   4  20
BRANCH   2  31
ATOM     31  C   UNL     1      34.030 -24.597 -15.031  0.00  0.00    +0.001 C 
BRANCH  31  32
ATOM     32  C   UNL     1      33.023 -24.384 -13.893  0.00  0.00    +0.000 C 
ATOM     33  C   UNL     1      32.644 -22.912 -13.715  0.00  0.00    +0.000 C 
ATOM     34  C   UNL     1      31.765 -25.213 -14.161  0.00  0.00    +0.000 C 
ENDBRANCH  31  32
ENDBRANCH   2  31
TORSDOF 9
ENDMDL
MODEL 4
REMARK VINA RESULT:      -7.5      5.580     11.493
REMARK  Name = 24795069
REMARK  9 active torsions:
REMARK  status: ('A' for Active; 'I' for Inactive)
REMARK    1  A    between atoms: C_2  and  C_31
REMARK    2  A    between atoms: C_4  and  O_20
REMARK    3  A    between atoms: C_13  and  O_16
REMARK    4  A    between atoms: C_14  and  O_18
REMARK    5  A    between atoms: O_20  and  C_22
REMARK    6  A    between atoms: C_22  and  C_23
REMARK    7  A    between atoms: C_23  and  N_24
REMARK    8  A    between atoms: C_23  and  C_28
REMARK    9  A    between atoms: C_31  and  C_32
REMARK                            x       y       z     vdW  Elec       q    Type
REMARK                         _______ _______ _______ _____ _____    ______ ____
ROOT
ATOM      1  N   UNL     1      36.012 -20.191 -20.153  0.00  0.00    +0.391 N 
ATOM      2  C   UNL     1      35.421 -18.336 -21.675  0.00  0.00    +0.019 C 
ATOM      3  C   UNL     1      34.641 -20.760 -20.193  0.00  0.00    -0.031 C 
ATOM      4  C   UNL     1      33.958 -18.791 -21.657  0.00  0.00    +0.165 C 
ATOM      5  C   UNL     1      36.356 -19.526 -21.417  0.00  0.00    -0.073 C 
ATOM      6  C   UNL     1      33.651 -19.592 -20.389  0.00  0.00    +0.027 C 
ATOM      7  C   UNL     1      36.997 -21.225 -19.829  0.00  0.00    -0.072 C 
ATOM      8  C   UNL     1      34.314 -21.603 -18.960  0.00  0.00    -0.042 C 
ATOM      9  C   UNL     1      36.780 -21.686 -18.389  0.00  0.00    +0.003 C 
ATOM     10  C   UNL     1      35.347 -22.064 -18.120  0.00  0.00    -0.027 C 
ATOM     11  C   UNL     1      32.999 -22.016 -18.686  0.00  0.00    +0.033 C 
ATOM     12  C   UNL     1      35.048 -22.850 -16.998  0.00  0.00    +0.035 C 
ATOM     13  C   UNL     1      32.711 -22.810 -17.574  0.00  0.00    +0.172 C 
ATOM     14  C   UNL     1      33.734 -23.221 -16.725  0.00  0.00    +0.172 C 
ATOM     15  H   UNL     1      36.032 -19.487 -19.416  0.00  0.00    -0.079 HD
ENDROOT
BRANCH  13  16
ATOM     16  O   UNL     1      31.422 -23.180 -17.333  0.00  0.00    -0.468 OA
ATOM     17  C   UNL     1      30.829 -22.711 -16.124  0.00  0.00    +0.253 C 
ENDBRANCH  13  16
BRANCH  14  18
ATOM     18  O   UNL     1      33.465 -23.992 -15.635  0.00  0.00    -0.468 OA
ATOM     19  C   UNL     1      34.561 -24.310 -14.780  0.00  0.00    +0.253 C 
ENDBRANCH  14  18
BRANCH   4  20
ATOM     20  O   UNL     1      33.105 -17.652 -21.710  0.00  0.00    -0.454 OA
BRANCH  20  22
ATOM     21  O   UNL     1      34.444 -16.563 -20.181  0.00  0.00    -0.252 OA
ATOM     22  C   UNL     1      33.503 -16.572 -20.965  0.00  0.00    +0.296 C 
BRANCH  22  23
ATOM     23  C   UNL     1      32.600 -15.385 -21.265  0.00  0.00    +0.036 C 
BRANCH  23  24
ATOM     24  N   UNL     1      32.598 -14.500 -20.099  0.00  0.00    +0.389 N 
ATOM     25  H   UNL     1      33.185 -13.688 -20.288  0.00  0.00    -0.088 HD
ATOM     26  H   UNL     1      32.961 -15.002 -19.289  0.00  0.00    -0.088 HD
ATOM     27  H   UNL     1      31.644 -14.192 -19.908  0.00  0.00    -0.088 HD
ENDBRANCH  23  24
BRANCH  23  28
ATOM     28  C   UNL     1      33.012 -14.664 -22.569  0.00  0.00    -0.010 C 
ATOM     29  C   UNL     1      34.513 -14.359 -22.586  0.00  0.00    -0.002 C 
ATOM     30  C   UNL     1      32.221 -13.377 -22.835  0.00  0.00    -0.002 C 
ENDBRANCH  23  28
ENDBRANCH  22  23
ENDBRANCH  20  22
ENDBRANCH   4  20
BRANCH   2  31
ATOM     31  C   UNL     1      35.775 -17.651 -22.998  0.00  0.00    +0.001 C 
BRANCH  31  32
ATOM     32  C   UNL     1      34.756 -17.921 -24.113  0.00  0.00    +0.000 C 
ATOM     33  C   UNL     1      34.808 -16.868 -25.222  0.00  0.00    +0.000 C 
ATOM     34  C   UNL     1      35.002 -19.310 -24.707  0.00  0.00    +0.000 C 
ENDBRANCH  31  32
ENDBRANCH   2  31
TORSDOF 9
ENDMDL
MODEL 5
REMARK VINA RESULT:      -7.4      3.124      5.841
REMARK  Name = 24795069
REMARK  9 active torsions:
REMARK  status: ('A' for Active; 'I' for Inactive)
REMARK    1  A    between atoms: C_2  and  C_31
REMARK    2  A    between atoms: C_4  and  O_20
REMARK    3  A    between atoms: C_13  and  O_16
REMARK    4  A    between atoms: C_14  and  O_18
REMARK    5  A    between atoms: O_20  and  C_22
REMARK    6  A    between atoms: C_22  and  C_23
REMARK    7  A    between atoms: C_23  and  N_24
REMARK    8  A    between atoms: C_23  and  C_28
REMARK    9  A    between atoms: C_31  and  C_32
REMARK                            x       y       z     vdW  Elec       q    Type
REMARK                         _______ _______ _______ _____ _____    ______ ____
ROOT
ATOM      1  N   UNL     1      31.691  -5.898 -23.478  0.00  0.00    +0.391 N 
ATOM      2  C   UNL     1      32.165  -8.077 -22.413  0.00  0.00    +0.019 C 
ATOM      3  C   UNL     1      32.298  -6.312 -24.769  0.00  0.00    -0.031 C 
ATOM      4  C   UNL     1      32.921  -8.522 -23.669  0.00  0.00    +0.165 C 
ATOM      5  C   UNL     1      31.092  -7.040 -22.774  0.00  0.00    -0.073 C 
ATOM      6  C   UNL     1      33.430  -7.313 -24.458  0.00  0.00    +0.027 C 
ATOM      7  C   UNL     1      30.699  -4.839 -23.683  0.00  0.00    -0.072 C 
ATOM      8  C   UNL     1      32.778  -5.125 -25.604  0.00  0.00    -0.042 C 
ATOM      9  C   UNL     1      31.413  -3.570 -24.143  0.00  0.00    +0.003 C 
ATOM     10  C   UNL     1      32.327  -3.822 -25.313  0.00  0.00    -0.027 C 
ATOM     11  C   UNL     1      33.600  -5.309 -26.729  0.00  0.00    +0.033 C 
ATOM     12  C   UNL     1      32.758  -2.735 -26.090  0.00  0.00    +0.035 C 
ATOM     13  C   UNL     1      34.012  -4.224 -27.505  0.00  0.00    +0.172 C 
ATOM     14  C   UNL     1      33.598  -2.936 -27.181  0.00  0.00    +0.172 C 
ATOM     15  H   UNL     1      32.438  -5.528 -22.891  0.00  0.00    -0.079 HD
ENDROOT
BRANCH  13  16
ATOM     16  O   UNL     1      34.819  -4.441 -28.581  0.00  0.00    -0.468 OA
ATOM     17  C   UNL     1      36.226  -4.444 -28.346  0.00  0.00    +0.253 C 
ENDBRANCH  13  16
BRANCH  14  18
ATOM     18  O   UNL     1      33.997  -1.870 -27.927  0.00  0.00    -0.468 OA
ATOM     19  C   UNL     1      33.505  -1.792 -29.263  0.00  0.00    +0.253 C 
ENDBRANCH  14  18
BRANCH   4  20
ATOM     20  O   UNL     1      34.028  -9.337 -23.294  0.00  0.00    -0.454 OA
BRANCH  20  22
ATOM     21  O   UNL     1      35.561 -10.062 -24.856  0.00  0.00    -0.252 OA
ATOM     22  C   UNL     1      34.498 -10.187 -24.261  0.00  0.00    +0.296 C 
BRANCH  22  23
ATOM     23  C   UNL     1      33.499 -11.313 -24.478  0.00  0.00    +0.036 C 
BRANCH  23  24
ATOM     24  N   UNL     1      33.757 -11.914 -25.788  0.00  0.00    +0.389 N 
ATOM     25  H   UNL     1      34.667 -11.605 -26.130  0.00  0.00    -0.088 HD
ATOM     26  H   UNL     1      33.030 -11.628 -26.444  0.00  0.00    -0.088 HD
ATOM     27  H   UNL     1      33.755 -12.931 -25.701  0.00  0.00    -0.088 HD
ENDBRANCH  23  24
BRANCH  23  28
ATOM     28  C   UNL     1      33.531 -12.343 -23.325  0.00  0.00    -0.010 C 
ATOM     29  C   UNL     1      34.046 -13.702 -23.807  0.00  0.00    -0.002 C 
ATOM     30  C   UNL     1      32.178 -12.522 -22.624  0.00  0.00    -0.002 C 
ENDBRANCH  23  28
ENDBRANCH  22  23
ENDBRANCH  20  22
ENDBRANCH   4  20
BRANCH   2  31
ATOM     31  C   UNL     1      31.536  -9.271 -21.689  0.00  0.00    +0.001 C 
BRANCH  31  32
ATOM     32  C   UNL     1      32.075  -9.471 -20.266  0.00  0.00    +0.000 C 
ATOM     33  C   UNL     1      32.180  -8.156 -19.490  0.00  0.00    +0.000 C 
ATOM     34  C   UNL     1      31.171 -10.447 -19.510  0.00  0.00    +0.000 C 
ENDBRANCH  31  32
ENDBRANCH   2  31
TORSDOF 9
ENDMDL
MODEL 6
REMARK VINA RESULT:      -7.2      0.952      1.721
REMARK  Name = 24795069
REMARK  9 active torsions:
REMARK  status: ('A' for Active; 'I' for Inactive)
REMARK    1  A    between atoms: C_2  and  C_31
REMARK    2  A    between atoms: C_4  and  O_20
REMARK    3  A    between atoms: C_13  and  O_16
REMARK    4  A    between atoms: C_14  and  O_18
REMARK    5  A    between atoms: O_20  and  C_22
REMARK    6  A    between atoms: C_22  and  C_23
REMARK    7  A    between atoms: C_23  and  N_24
REMARK    8  A    between atoms: C_23  and  C_28
REMARK    9  A    between atoms: C_31  and  C_32
REMARK                            x       y       z     vdW  Elec       q    Type
REMARK                         _______ _______ _______ _____ _____    ______ ____
ROOT
ATOM      1  N   UNL     1      32.147 -11.646 -20.923  0.00  0.00    +0.391 N 
ATOM      2  C   UNL     1      32.954 -13.781 -21.869  0.00  0.00    +0.019 C 
ATOM      3  C   UNL     1      31.921 -11.050 -22.264  0.00  0.00    -0.031 C 
ATOM      4  C   UNL     1      32.869 -13.185 -23.278  0.00  0.00    +0.165 C 
ATOM      5  C   UNL     1      31.941 -13.100 -20.938  0.00  0.00    -0.073 C 
ATOM      6  C   UNL     1      32.959 -11.657 -23.231  0.00  0.00    +0.027 C 
ATOM      7  C   UNL     1      31.289 -11.013 -19.918  0.00  0.00    -0.072 C 
ATOM      8  C   UNL     1      31.961  -9.522 -22.247  0.00  0.00    -0.042 C 
ATOM      9  C   UNL     1      31.733  -9.565 -19.724  0.00  0.00    +0.003 C 
ATOM     10  C   UNL     1      31.842  -8.822 -21.030  0.00  0.00    -0.027 C 
ATOM     11  C   UNL     1      32.021  -8.779 -23.438  0.00  0.00    +0.033 C 
ATOM     12  C   UNL     1      31.863  -7.418 -21.017  0.00  0.00    +0.035 C 
ATOM     13  C   UNL     1      32.029  -7.384 -23.417  0.00  0.00    +0.172 C 
ATOM     14  C   UNL     1      31.958  -6.702 -22.206  0.00  0.00    +0.172 C 
ATOM     15  H   UNL     1      33.119 -11.472 -20.669  0.00  0.00    -0.079 HD
ENDROOT
BRANCH  13  16
ATOM     16  O   UNL     1      32.102  -6.698 -24.592  0.00  0.00    -0.468 OA
ATOM     17  C   UNL     1      33.383  -6.205 -24.977  0.00  0.00    +0.253 C 
ENDBRANCH  13  16
BRANCH  14  18
ATOM     18  O   UNL     1      31.968  -5.341 -22.173  0.00  0.00    -0.468 OA
ATOM     19  C   UNL     1      30.710  -4.681 -22.286  0.00  0.00    +0.253 C 
ENDBRANCH  14  18
BRANCH   4  20
ATOM     20  O   UNL     1      33.936 -13.692 -24.075  0.00  0.00    -0.454 OA
BRANCH  20  22
ATOM     21  O   UNL     1      33.589 -15.958 -24.319  0.00  0.00    -0.252 OA
ATOM     22  C   UNL     1      33.659 -14.830 -24.788  0.00  0.00    +0.296 C 
BRANCH  22  23
ATOM     23  C   UNL     1      33.446 -14.474 -26.252  0.00  0.00    +0.036 C 
BRANCH  23  24
ATOM     24  N   UNL     1      32.318 -15.257 -26.759  0.00  0.00    +0.389 N 
ATOM     25  H   UNL     1      31.924 -15.815 -26.001  0.00  0.00    -0.088 HD
ATOM     26  H   UNL     1      32.639 -15.873 -27.505  0.00  0.00    -0.088 HD
ATOM     27  H   UNL     1      31.604 -14.626 -27.123  0.00  0.00    -0.088 HD
ENDBRANCH  23  24
BRANCH  23  28
ATOM     28  C   UNL     1      33.264 -12.952 -26.454  0.00  0.00    -0.010 C 
ATOM     29  C   UNL     1      32.079 -12.652 -27.378  0.00  0.00    -0.002 C 
ATOM     30  C   UNL     1      34.520 -12.247 -26.980  0.00  0.00    -0.002 C 
ENDBRANCH  23  28
ENDBRANCH  22  23
ENDBRANCH  20  22
ENDBRANCH   4  20
BRANCH   2  31
ATOM     31  C   UNL     1      32.730 -15.296 -21.892  0.00  0.00    +0.001 C 
BRANCH  31  32
ATOM     32  C   UNL     1      33.552 -16.047 -20.837  0.00  0.00    +0.000 C 
ATOM     33  C   UNL     1      34.054 -17.402 -21.341  0.00  0.00    +0.000 C 
ATOM     34  C   UNL     1      34.740 -15.184 -20.403  0.00  0.00    +0.000 C 
ENDBRANCH  31  32
ENDBRANCH   2  31
TORSDOF 9
ENDMDL
MODEL 7
REMARK VINA RESULT:      -7.1      3.034      8.906
REMARK  Name = 24795069
REMARK  9 active torsions:
REMARK  status: ('A' for Active; 'I' for Inactive)
REMARK    1  A    between atoms: C_2  and  C_31
REMARK    2  A    between atoms: C_4  and  O_20
REMARK    3  A    between atoms: C_13  and  O_16
REMARK    4  A    between atoms: C_14  and  O_18
REMARK    5  A    between atoms: O_20  and  C_22
REMARK    6  A    between atoms: C_22  and  C_23
REMARK    7  A    between atoms: C_23  and  N_24
REMARK    8  A    between atoms: C_23  and  C_28
REMARK    9  A    between atoms: C_31  and  C_32
REMARK                            x       y       z     vdW  Elec       q    Type
REMARK                         _______ _______ _______ _____ _____    ______ ____
ROOT
ATOM      1  N   UNL     1      31.760  -7.573 -21.963  0.00  0.00    +0.391 N 
ATOM      2  C   UNL     1      31.738  -5.442 -23.213  0.00  0.00    +0.019 C 
ATOM      3  C   UNL     1      32.753  -8.188 -22.879  0.00  0.00    -0.031 C 
ATOM      4  C   UNL     1      32.661  -6.057 -24.270  0.00  0.00    +0.165 C 
ATOM      5  C   UNL     1      31.953  -6.121 -21.854  0.00  0.00    -0.073 C 
ATOM      6  C   UNL     1      32.539  -7.583 -24.282  0.00  0.00    +0.027 C 
ATOM      7  C   UNL     1      31.810  -8.202 -20.640  0.00  0.00    -0.072 C 
ATOM      8  C   UNL     1      32.689  -9.715 -22.884  0.00  0.00    -0.042 C 
ATOM      9  C   UNL     1      31.318  -9.643 -20.755  0.00  0.00    +0.003 C 
ATOM     10  C   UNL     1      32.024 -10.402 -21.848  0.00  0.00    -0.027 C 
ATOM     11  C   UNL     1      33.362 -10.472 -23.858  0.00  0.00    +0.033 C 
ATOM     12  C   UNL     1      31.978 -11.804 -21.846  0.00  0.00    +0.035 C 
ATOM     13  C   UNL     1      33.323 -11.867 -23.841  0.00  0.00    +0.172 C 
ATOM     14  C   UNL     1      32.624 -12.534 -22.839  0.00  0.00    +0.172 C 
ATOM     15  H   UNL     1      30.834  -7.735 -22.360  0.00  0.00    -0.079 HD
ENDROOT
BRANCH  13  16
ATOM     16  O   UNL     1      33.977 -12.566 -24.810  0.00  0.00    -0.468 OA
ATOM     17  C   UNL     1      33.758 -12.163 -26.160  0.00  0.00    +0.253 C 
ENDBRANCH  13  16
BRANCH  14  18
ATOM     18  O   UNL     1      32.575 -13.894 -22.814  0.00  0.00    -0.468 OA
ATOM     19  C   UNL     1      32.671 -14.523 -21.538  0.00  0.00    +0.253 C 
ENDBRANCH  14  18
BRANCH   4  20
ATOM     20  O   UNL     1      32.318  -5.549 -25.556  0.00  0.00    -0.454 OA
BRANCH  20  22
ATOM     21  O   UNL     1      34.491  -5.670 -26.315  0.00  0.00    -0.252 OA
ATOM     22  C   UNL     1      33.370  -5.179 -26.352  0.00  0.00    +0.296 C 
BRANCH  22  23
ATOM     23  C   UNL     1      32.930  -4.068 -27.294  0.00  0.00    +0.036 C 
BRANCH  23  24
ATOM     24  N   UNL     1      33.726  -2.874 -27.003  0.00  0.00    +0.389 N 
ATOM     25  H   UNL     1      33.922  -2.376 -27.871  0.00  0.00    -0.088 HD
ATOM     26  H   UNL     1      34.603  -3.148 -26.560  0.00  0.00    -0.088 HD
ATOM     27  H   UNL     1      33.204  -2.264 -26.372  0.00  0.00    -0.088 HD
ENDBRANCH  23  24
BRANCH  23  28
ATOM     28  C   UNL     1      33.014  -4.502 -28.776  0.00  0.00    -0.010 C 
ATOM     29  C   UNL     1      34.385  -4.173 -29.375  0.00  0.00    -0.002 C 
ATOM     30  C   UNL     1      31.909  -3.901 -29.654  0.00  0.00    -0.002 C 
ENDBRANCH  23  28
ENDBRANCH  22  23
ENDBRANCH  20  22
ENDBRANCH   4  20
BRANCH   2  31
ATOM     31  C   UNL     1      31.951  -3.930 -23.099  0.00  0.00    +0.001 C 
BRANCH  31  32
ATOM     32  C   UNL     1      30.701  -3.112 -23.450  0.00  0.00    +0.000 C 
ATOM     33  C   UNL     1      30.497  -1.922 -22.511  0.00  0.00    +0.000 C 
ATOM     34  C   UNL     1      30.801  -2.619 -24.896  0.00  0.00    +0.000 C 
ENDBRANCH  31  32
ENDBRANCH   2  31
TORSDOF 9
ENDMDL
MODEL 8
REMARK VINA RESULT:      -7.0      4.095     10.273
REMARK  Name = 24795069
REMARK  9 active torsions:
REMARK  status: ('A' for Active; 'I' for Inactive)
REMARK    1  A    between atoms: C_2  and  C_31
REMARK    2  A    between atoms: C_4  and  O_20
REMARK    3  A    between atoms: C_13  and  O_16
REMARK    4  A    between atoms: C_14  and  O_18
REMARK    5  A    between atoms: O_20  and  C_22
REMARK    6  A    between atoms: C_22  and  C_23
REMARK    7  A    between atoms: C_23  and  N_24
REMARK    8  A    between atoms: C_23  and  C_28
REMARK    9  A    between atoms: C_31  and  C_32
REMARK                            x       y       z     vdW  Elec       q    Type
REMARK                         _______ _______ _______ _____ _____    ______ ____
ROOT
ATOM      1  N   UNL     1      35.677 -17.612 -21.967  0.00  0.00    +0.391 N 
ATOM      2  C   UNL     1      34.468 -15.575 -22.672  0.00  0.00    +0.019 C 
ATOM      3  C   UNL     1      34.420 -18.374 -21.753  0.00  0.00    -0.031 C 
ATOM      4  C   UNL     1      33.135 -16.257 -22.346  0.00  0.00    +0.165 C 
ATOM      5  C   UNL     1      35.529 -16.621 -23.042  0.00  0.00    -0.073 C 
ATOM      6  C   UNL     1      33.330 -17.373 -21.317  0.00  0.00    +0.027 C 
ATOM      7  C   UNL     1      36.795 -18.516 -22.248  0.00  0.00    -0.072 C 
ATOM      8  C   UNL     1      34.588 -19.526 -20.761  0.00  0.00    -0.042 C 
ATOM      9  C   UNL     1      37.103 -19.332 -20.994  0.00  0.00    +0.003 C 
ATOM     10  C   UNL     1      35.875 -19.993 -20.427  0.00  0.00    -0.027 C 
ATOM     11  C   UNL     1      33.476 -20.203 -20.233  0.00  0.00    +0.033 C 
ATOM     12  C   UNL     1      36.028 -21.061 -19.528  0.00  0.00    +0.035 C 
ATOM     13  C   UNL     1      33.637 -21.273 -19.350  0.00  0.00    +0.172 C 
ATOM     14  C   UNL     1      34.913 -21.697 -18.991  0.00  0.00    +0.172 C 
ATOM     15  H   UNL     1      35.881 -17.107 -21.105  0.00  0.00    -0.079 HD
ENDROOT
BRANCH  13  16
ATOM     16  O   UNL     1      32.535 -21.896 -18.849  0.00  0.00    -0.468 OA
ATOM     17  C   UNL     1      32.716 -22.693 -17.680  0.00  0.00    +0.253 C 
ENDBRANCH  13  16
BRANCH  14  18
ATOM     18  O   UNL     1      35.082 -22.735 -18.128  0.00  0.00    -0.468 OA
ATOM     19  C   UNL     1      35.961 -22.524 -17.025  0.00  0.00    +0.253 C 
ENDBRANCH  14  18
BRANCH   4  20
ATOM     20  O   UNL     1      32.222 -15.295 -21.827  0.00  0.00    -0.454 OA
BRANCH  20  22
ATOM     21  O   UNL     1      33.429 -14.632 -19.978  0.00  0.00    -0.252 OA
ATOM     22  C   UNL     1      32.755 -14.371 -20.966  0.00  0.00    +0.296 C 
BRANCH  22  23
ATOM     23  C   UNL     1      32.384 -12.969 -21.430  0.00  0.00    +0.036 C 
BRANCH  23  24
ATOM     24  N   UNL     1      31.801 -13.065 -22.769  0.00  0.00    +0.389 N 
ATOM     25  H   UNL     1      30.852 -12.691 -22.753  0.00  0.00    -0.088 HD
ATOM     26  H   UNL     1      31.777 -14.042 -23.061  0.00  0.00    -0.088 HD
ATOM     27  H   UNL     1      32.367 -12.528 -23.425  0.00  0.00    -0.088 HD
ENDBRANCH  23  24
BRANCH  23  28
ATOM     28  C   UNL     1      31.460 -12.254 -20.418  0.00  0.00    -0.010 C 
ATOM     29  C   UNL     1      30.408 -11.400 -21.133  0.00  0.00    -0.002 C 
ATOM     30  C   UNL     1      32.215 -11.394 -19.397  0.00  0.00    -0.002 C 
ENDBRANCH  23  28
ENDBRANCH  22  23
ENDBRANCH  20  22
ENDBRANCH   4  20
BRANCH   2  31
ATOM     31  C   UNL     1      34.308 -14.550 -23.798  0.00  0.00    +0.001 C 
BRANCH  31  32
ATOM     32  C   UNL     1      33.387 -15.028 -24.928  0.00  0.00    +0.000 C 
ATOM     33  C   UNL     1      33.048 -13.913 -25.919  0.00  0.00    +0.000 C 
ATOM     34  C   UNL     1      34.048 -16.194 -25.668  0.00  0.00    +0.000 C 
ENDBRANCH  31  32
ENDBRANCH   2  31
TORSDOF 9
ENDMDL
MODEL 9
REMARK VINA RESULT:      -6.6      2.453      8.589
REMARK  Name = 24795069
REMARK  9 active torsions:
REMARK  status: ('A' for Active; 'I' for Inactive)
REMARK    1  A    between atoms: C_2  and  C_31
REMARK    2  A    between atoms: C_4  and  O_20
REMARK    3  A    between atoms: C_13  and  O_16
REMARK    4  A    between atoms: C_14  and  O_18
REMARK    5  A    between atoms: O_20  and  C_22
REMARK    6  A    between atoms: C_22  and  C_23
REMARK    7  A    between atoms: C_23  and  N_24
REMARK    8  A    between atoms: C_23  and  C_28
REMARK    9  A    between atoms: C_31  and  C_32
REMARK                            x       y       z     vdW  Elec       q    Type
REMARK                         _______ _______ _______ _____ _____    ______ ____
ROOT
ATOM      1  N   UNL     1      31.865  -8.427 -21.497  0.00  0.00    +0.391 N 
ATOM      2  C   UNL     1      31.960  -6.277 -22.711  0.00  0.00    +0.019 C 
ATOM      3  C   UNL     1      32.810  -9.085 -22.434  0.00  0.00    -0.031 C 
ATOM      4  C   UNL     1      32.835  -6.927 -23.788  0.00  0.00    +0.165 C 
ATOM      5  C   UNL     1      32.147  -6.992 -21.365  0.00  0.00    -0.073 C 
ATOM      6  C   UNL     1      32.620  -8.443 -23.825  0.00  0.00    +0.027 C 
ATOM      7  C   UNL     1      31.889  -9.081 -20.186  0.00  0.00    -0.072 C 
ATOM      8  C   UNL     1      32.653 -10.605 -22.465  0.00  0.00    -0.042 C 
ATOM      9  C   UNL     1      31.310 -10.488 -20.321  0.00  0.00    +0.003 C 
ATOM     10  C   UNL     1      31.958 -11.268 -21.434  0.00  0.00    -0.027 C 
ATOM     11  C   UNL     1      33.270 -11.383 -23.459  0.00  0.00    +0.033 C 
ATOM     12  C   UNL     1      31.827 -12.665 -21.455  0.00  0.00    +0.035 C 
ATOM     13  C   UNL     1      33.147 -12.774 -23.465  0.00  0.00    +0.172 C 
ATOM     14  C   UNL     1      32.418 -13.415 -22.468  0.00  0.00    +0.172 C 
ATOM     15  H   UNL     1      30.927  -8.525 -21.887  0.00  0.00    -0.079 HD
ENDROOT
BRANCH  13  16
ATOM     16  O   UNL     1      33.748 -13.494 -24.453  0.00  0.00    -0.468 OA
ATOM     17  C   UNL     1      33.064 -13.580 -25.701  0.00  0.00    +0.253 C 
ENDBRANCH  13  16
BRANCH  14  18
ATOM     18  O   UNL     1      32.287 -14.770 -22.466  0.00  0.00    -0.468 OA
ATOM     19  C   UNL     1      32.710 -15.460 -21.292  0.00  0.00    +0.253 C 
ENDBRANCH  14  18
BRANCH   4  20
ATOM     20  O   UNL     1      32.510  -6.377 -25.061  0.00  0.00    -0.454 OA
BRANCH  20  22
ATOM     21  O   UNL     1      34.736  -6.124 -25.604  0.00  0.00    -0.252 OA
ATOM     22  C   UNL     1      33.557  -5.835 -25.761  0.00  0.00    +0.296 C 
BRANCH  22  23
ATOM     23  C   UNL     1      33.028  -4.823 -26.767  0.00  0.00    +0.036 C 
BRANCH  23  24
ATOM     24  N   UNL     1      31.911  -4.103 -26.153  0.00  0.00    +0.389 N 
ATOM     25  H   UNL     1      31.773  -4.438 -25.200  0.00  0.00    -0.088 HD
ATOM     26  H   UNL     1      31.063  -4.262 -26.697  0.00  0.00    -0.088 HD
ATOM     27  H   UNL     1      32.120  -3.104 -26.135  0.00  0.00    -0.088 HD
ENDBRANCH  23  24
BRANCH  23  28
ATOM     28  C   UNL     1      34.143  -3.884 -27.280  0.00  0.00    -0.010 C 
ATOM     29  C   UNL     1      33.754  -2.412 -27.106  0.00  0.00    -0.002 C 
ATOM     30  C   UNL     1      34.543  -4.143 -28.737  0.00  0.00    -0.002 C 
ENDBRANCH  23  28
ENDBRANCH  22  23
ENDBRANCH  20  22
ENDBRANCH   4  20
BRANCH   2  31
ATOM     31  C   UNL     1      32.266  -4.783 -22.573  0.00  0.00    +0.001 C 
BRANCH  31  32
ATOM     32  C   UNL     1      31.067  -3.960 -22.082  0.00  0.00    +0.000 C 
ATOM     33  C   UNL     1      30.675  -2.854 -23.063  0.00  0.00    +0.000 C 
ATOM     34  C   UNL     1      29.873  -4.888 -21.845  0.00  0.00    +0.000 C 
ENDBRANCH  31  32
ENDBRANCH   2  31
TORSDOF 9
ENDMDL
