MODEL 1
REMARK VINA RESULT:      -8.8      0.000      0.000
REMARK  Name = 8556
REMARK  8 active torsions:
REMARK  status: ('A' for Active; 'I' for Inactive)
REMARK    1  A    between atoms: C_3  and  O_12
REMARK    2  A    between atoms: C_5  and  O_19
REMARK    3  A    between atoms: O_12  and  P_13
REMARK    4  A    between atoms: P_13  and  O_15
REMARK    5  A    between atoms: P_13  and  O_17
REMARK    6  A    between atoms: O_19  and  P_20
REMARK    7  A    between atoms: P_20  and  O_22
REMARK    8  A    between atoms: P_20  and  O_24
REMARK                            x       y       z     vdW  Elec       q    Type
REMARK                         _______ _______ _______ _____ _____    ______ ____
ROOT
ATOM      1  C   UNL     1      35.362 -22.734 -16.585  0.00  0.00    +0.037 C 
ATOM      2  C   UNL     1      34.061 -22.868 -17.124  0.00  0.00    +0.037 C 
ATOM      3  C   UNL     1      35.611 -23.167 -15.272  0.00  0.00    +0.145 C 
ATOM      4  C   UNL     1      34.590 -23.725 -14.501  0.00  0.00    +0.016 C 
ATOM      5  C   UNL     1      33.045 -23.432 -16.334  0.00  0.00    +0.149 C 
ATOM      6  C   UNL     1      33.310 -23.857 -15.031  0.00  0.00    +0.036 C 
ATOM      7  C   UNL     1      36.377 -22.170 -17.376  0.00  0.00    +0.003 C 
ATOM      8  C   UNL     1      33.812 -22.435 -18.436  0.00  0.00    +0.003 C 
ATOM      9  C   UNL     1      34.850 -24.187 -13.105  0.00  0.00    +0.034 C 
ATOM     10  C   UNL     1      36.112 -21.745 -18.678  0.00  0.00    +0.000 C 
ATOM     11  C   UNL     1      34.832 -21.877 -19.207  0.00  0.00    +0.000 C 
ENDROOT
BRANCH   3  12
ATOM     12  O   UNL     1      36.858 -23.053 -14.725  0.00  0.00    -0.403 OA
BRANCH  12  13
ATOM     13  P   UNL     1      37.983 -24.212 -14.728  0.00  0.00    +0.528 P 
ATOM     14  O   UNL     1      38.596 -24.515 -13.391  0.00  0.00    -0.216 OA
BRANCH  13  15
ATOM     15  O   UNL     1      37.266 -25.458 -15.468  0.00  0.00    -0.293 OA
ATOM     16  H   UNL     1      36.892 -26.057 -14.804  0.00  0.00    +0.223 HD
ENDBRANCH  13  15
BRANCH  13  17
ATOM     17  O   UNL     1      39.031 -23.684 -15.841  0.00  0.00    -0.293 OA
ATOM     18  H   UNL     1      38.621 -23.728 -16.719  0.00  0.00    +0.223 HD
ENDBRANCH  13  17
ENDBRANCH  12  13
ENDBRANCH   3  12
BRANCH   5  19
ATOM     19  O   UNL     1      31.774 -23.582 -16.811  0.00  0.00    -0.403 OA
BRANCH  19  20
ATOM     20  P   UNL     1      30.428 -23.199 -16.002  0.00  0.00    +0.528 P 
ATOM     21  O   UNL     1      30.641 -22.480 -14.701  0.00  0.00    -0.216 OA
BRANCH  20  22
ATOM     22  O   UNL     1      29.518 -22.422 -17.091  0.00  0.00    -0.293 OA
ATOM     23  H   UNL     1      29.702 -22.773 -17.976  0.00  0.00    +0.223 HD
ENDBRANCH  20  22
BRANCH  20  24
ATOM     24  O   UNL     1      29.681 -24.628 -15.863  0.00  0.00    -0.293 OA
ATOM     25  H   UNL     1      29.395 -24.931 -16.738  0.00  0.00    +0.223 HD
ENDBRANCH  20  24
ENDBRANCH  19  20
ENDBRANCH   5  19
TORSDOF 8
ENDMDL
MODEL 2
REMARK VINA RESULT:      -8.5      0.739      5.798
REMARK  Name = 8556
REMARK  8 active torsions:
REMARK  status: ('A' for Active; 'I' for Inactive)
REMARK    1  A    between atoms: C_3  and  O_12
REMARK    2  A    between atoms: C_5  and  O_19
REMARK    3  A    between atoms: O_12  and  P_13
REMARK    4  A    between atoms: P_13  and  O_15
REMARK    5  A    between atoms: P_13  and  O_17
REMARK    6  A    between atoms: O_19  and  P_20
REMARK    7  A    between atoms: P_20  and  O_22
REMARK    8  A    between atoms: P_20  and  O_24
REMARK                            x       y       z     vdW  Elec       q    Type
REMARK                         _______ _______ _______ _____ _____    ______ ____
ROOT
ATOM      1  C   UNL     1      33.489 -23.209 -16.738  0.00  0.00    +0.037 C 
ATOM      2  C   UNL     1      34.827 -22.947 -16.358  0.00  0.00    +0.037 C 
ATOM      3  C   UNL     1      32.624 -23.831 -15.823  0.00  0.00    +0.145 C 
ATOM      4  C   UNL     1      33.072 -24.190 -14.551  0.00  0.00    +0.016 C 
ATOM      5  C   UNL     1      35.261 -23.315 -15.074  0.00  0.00    +0.149 C 
ATOM      6  C   UNL     1      34.387 -23.932 -14.177  0.00  0.00    +0.036 C 
ATOM      7  C   UNL     1      33.056 -22.841 -18.022  0.00  0.00    +0.003 C 
ATOM      8  C   UNL     1      35.692 -22.325 -17.273  0.00  0.00    +0.003 C 
ATOM      9  C   UNL     1      32.155 -24.852 -13.575  0.00  0.00    +0.034 C 
ATOM     10  C   UNL     1      33.929 -22.224 -18.918  0.00  0.00    +0.000 C 
ATOM     11  C   UNL     1      35.244 -21.966 -18.545  0.00  0.00    +0.000 C 
ENDROOT
BRANCH   3  12
ATOM     12  O   UNL     1      31.326 -24.095 -16.160  0.00  0.00    -0.403 OA
BRANCH  12  13
ATOM     13  P   UNL     1      30.061 -23.163 -15.784  0.00  0.00    +0.528 P 
ATOM     14  O   UNL     1      30.261 -22.256 -14.605  0.00  0.00    -0.216 OA
BRANCH  13  15
ATOM     15  O   UNL     1      29.681 -22.430 -17.175  0.00  0.00    -0.293 OA
ATOM     16  H   UNL     1      30.306 -21.708 -17.342  0.00  0.00    +0.223 HD
ENDBRANCH  13  15
BRANCH  13  17
ATOM     17  O   UNL     1      28.869 -24.241 -15.605  0.00  0.00    -0.293 OA
ATOM     18  H   UNL     1      28.043 -23.872 -15.954  0.00  0.00    +0.223 HD
ENDBRANCH  13  17
ENDBRANCH  12  13
ENDBRANCH   3  12
BRANCH   5  19
ATOM     19  O   UNL     1      36.543 -23.082 -14.663  0.00  0.00    -0.403 OA
BRANCH  19  20
ATOM     20  P   UNL     1      37.752 -24.150 -14.746  0.00  0.00    +0.528 P 
ATOM     21  O   UNL     1      38.441 -24.446 -13.445  0.00  0.00    -0.216 OA
BRANCH  20  22
ATOM     22  O   UNL     1      37.104 -25.426 -15.502  0.00  0.00    -0.293 OA
ATOM     23  H   UNL     1      37.747 -26.150 -15.524  0.00  0.00    +0.223 HD
ENDBRANCH  20  22
BRANCH  20  24
ATOM     24  O   UNL     1      38.712 -23.510 -15.880  0.00  0.00    -0.293 OA
ATOM     25  H   UNL     1      38.856 -22.569 -15.690  0.00  0.00    +0.223 HD
ENDBRANCH  20  24
ENDBRANCH  19  20
ENDBRANCH   5  19
TORSDOF 8
ENDMDL
MODEL 3
REMARK VINA RESULT:      -8.5      2.879      4.308
REMARK  Name = 8556
REMARK  8 active torsions:
REMARK  status: ('A' for Active; 'I' for Inactive)
REMARK    1  A    between atoms: C_3  and  O_12
REMARK    2  A    between atoms: C_5  and  O_19
REMARK    3  A    between atoms: O_12  and  P_13
REMARK    4  A    between atoms: P_13  and  O_15
REMARK    5  A    between atoms: P_13  and  O_17
REMARK    6  A    between atoms: O_19  and  P_20
REMARK    7  A    between atoms: P_20  and  O_22
REMARK    8  A    between atoms: P_20  and  O_24
REMARK                            x       y       z     vdW  Elec       q    Type
REMARK                         _______ _______ _______ _____ _____    ______ ____
ROOT
ATOM      1  C   UNL     1      33.972 -24.273 -14.484  0.00  0.00    +0.037 C 
ATOM      2  C   UNL     1      33.475 -23.540 -15.588  0.00  0.00    +0.037 C 
ATOM      3  C   UNL     1      35.360 -24.398 -14.311  0.00  0.00    +0.145 C 
ATOM      4  C   UNL     1      36.246 -23.808 -15.212  0.00  0.00    +0.016 C 
ATOM      5  C   UNL     1      34.381 -22.952 -16.486  0.00  0.00    +0.149 C 
ATOM      6  C   UNL     1      35.758 -23.086 -16.298  0.00  0.00    +0.036 C 
ATOM      7  C   UNL     1      33.064 -24.861 -13.587  0.00  0.00    +0.003 C 
ATOM      8  C   UNL     1      32.087 -23.416 -15.763  0.00  0.00    +0.003 C 
ATOM      9  C   UNL     1      37.723 -23.938 -15.031  0.00  0.00    +0.034 C 
ATOM     10  C   UNL     1      31.689 -24.727 -13.776  0.00  0.00    +0.000 C 
ATOM     11  C   UNL     1      31.201 -24.006 -14.861  0.00  0.00    +0.000 C 
ENDROOT
BRANCH   3  12
ATOM     12  O   UNL     1      35.869 -25.099 -13.253  0.00  0.00    -0.403 OA
BRANCH  12  13
ATOM     13  P   UNL     1      36.124 -24.495 -11.776  0.00  0.00    +0.528 P 
ATOM     14  O   UNL     1      35.215 -25.018 -10.703  0.00  0.00    -0.216 OA
BRANCH  13  15
ATOM     15  O   UNL     1      37.706 -24.718 -11.525  0.00  0.00    -0.293 OA
ATOM     16  H   UNL     1      37.854 -24.970 -10.600  0.00  0.00    +0.223 HD
ENDBRANCH  13  15
BRANCH  13  17
ATOM     17  O   UNL     1      36.018 -22.900 -12.025  0.00  0.00    -0.293 OA
ATOM     18  H   UNL     1      36.045 -22.719 -12.977  0.00  0.00    +0.223 HD
ENDBRANCH  13  17
ENDBRANCH  12  13
ENDBRANCH   3  12
BRANCH   5  19
ATOM     19  O   UNL     1      33.949 -22.235 -17.566  0.00  0.00    -0.403 OA
BRANCH  19  20
ATOM     20  P   UNL     1      34.150 -22.670 -19.109  0.00  0.00    +0.528 P 
ATOM     21  O   UNL     1      35.481 -22.317 -19.708  0.00  0.00    -0.216 OA
BRANCH  20  22
ATOM     22  O   UNL     1      33.765 -24.241 -19.133  0.00  0.00    -0.293 OA
ATOM     23  H   UNL     1      33.638 -24.529 -20.049  0.00  0.00    +0.223 HD
ENDBRANCH  20  22
BRANCH  20  24
ATOM     24  O   UNL     1      32.884 -21.977 -19.839  0.00  0.00    -0.293 OA
ATOM     25  H   UNL     1      33.112 -21.772 -20.759  0.00  0.00    +0.223 HD
ENDBRANCH  20  24
ENDBRANCH  19  20
ENDBRANCH   5  19
TORSDOF 8
ENDMDL
MODEL 4
REMARK VINA RESULT:      -8.3      2.914      5.655
REMARK  Name = 8556
REMARK  8 active torsions:
REMARK  status: ('A' for Active; 'I' for Inactive)
REMARK    1  A    between atoms: C_3  and  O_12
REMARK    2  A    between atoms: C_5  and  O_19
REMARK    3  A    between atoms: O_12  and  P_13
REMARK    4  A    between atoms: P_13  and  O_15
REMARK    5  A    between atoms: P_13  and  O_17
REMARK    6  A    between atoms: O_19  and  P_20
REMARK    7  A    between atoms: P_20  and  O_22
REMARK    8  A    between atoms: P_20  and  O_24
REMARK                            x       y       z     vdW  Elec       q    Type
REMARK                         _______ _______ _______ _____ _____    ______ ____
ROOT
ATOM      1  C   UNL     1      33.610 -23.371 -15.764  0.00  0.00    +0.037 C 
ATOM      2  C   UNL     1      33.928 -24.127 -14.610  0.00  0.00    +0.037 C 
ATOM      3  C   UNL     1      34.646 -22.776 -16.502  0.00  0.00    +0.145 C 
ATOM      4  C   UNL     1      35.977 -22.925 -16.110  0.00  0.00    +0.016 C 
ATOM      5  C   UNL     1      35.273 -24.267 -14.229  0.00  0.00    +0.149 C 
ATOM      6  C   UNL     1      36.290 -23.669 -14.976  0.00  0.00    +0.036 C 
ATOM      7  C   UNL     1      32.265 -23.232 -16.143  0.00  0.00    +0.003 C 
ATOM      8  C   UNL     1      32.893 -24.721 -13.871  0.00  0.00    +0.003 C 
ATOM      9  C   UNL     1      37.082 -22.295 -16.893  0.00  0.00    +0.034 C 
ATOM     10  C   UNL     1      31.249 -23.830 -15.397  0.00  0.00    +0.000 C 
ATOM     11  C   UNL     1      31.562 -24.573 -14.264  0.00  0.00    +0.000 C 
ENDROOT
BRANCH   3  12
ATOM     12  O   UNL     1      34.370 -22.042 -17.622  0.00  0.00    -0.403 OA
BRANCH  12  13
ATOM     13  P   UNL     1      34.077 -22.657 -19.086  0.00  0.00    +0.528 P 
ATOM     14  O   UNL     1      33.857 -24.142 -19.126  0.00  0.00    -0.216 OA
BRANCH  13  15
ATOM     15  O   UNL     1      32.865 -21.754 -19.661  0.00  0.00    -0.293 OA
ATOM     16  H   UNL     1      32.824 -20.918 -19.171  0.00  0.00    +0.223 HD
ENDBRANCH  13  15
BRANCH  13  17
ATOM     17  O   UNL     1      35.349 -22.145 -19.945  0.00  0.00    -0.293 OA
ATOM     18  H   UNL     1      35.616 -21.266 -19.634  0.00  0.00    +0.223 HD
ENDBRANCH  13  17
ENDBRANCH  12  13
ENDBRANCH   3  12
BRANCH   5  19
ATOM     19  O   UNL     1      35.628 -24.987 -13.124  0.00  0.00    -0.403 OA
BRANCH  19  20
ATOM     20  P   UNL     1      36.274 -24.365 -11.780  0.00  0.00    +0.528 P 
ATOM     21  O   UNL     1      36.435 -22.872 -11.774  0.00  0.00    -0.216 OA
BRANCH  20  22
ATOM     22  O   UNL     1      35.371 -24.978 -10.586  0.00  0.00    -0.293 OA
ATOM     23  H   UNL     1      34.579 -24.431 -10.466  0.00  0.00    +0.223 HD
ENDBRANCH  20  22
BRANCH  20  24
ATOM     24  O   UNL     1      37.660 -25.188 -11.641  0.00  0.00    -0.293 OA
ATOM     25  H   UNL     1      38.409 -24.574 -11.697  0.00  0.00    +0.223 HD
ENDBRANCH  20  24
ENDBRANCH  19  20
ENDBRANCH   5  19
TORSDOF 8
ENDMDL
MODEL 5
REMARK VINA RESULT:      -7.8      2.147      4.286
REMARK  Name = 8556
REMARK  8 active torsions:
REMARK  status: ('A' for Active; 'I' for Inactive)
REMARK    1  A    between atoms: C_3  and  O_12
REMARK    2  A    between atoms: C_5  and  O_19
REMARK    3  A    between atoms: O_12  and  P_13
REMARK    4  A    between atoms: P_13  and  O_15
REMARK    5  A    between atoms: P_13  and  O_17
REMARK    6  A    between atoms: O_19  and  P_20
REMARK    7  A    between atoms: P_20  and  O_22
REMARK    8  A    between atoms: P_20  and  O_24
REMARK                            x       y       z     vdW  Elec       q    Type
REMARK                         _______ _______ _______ _____ _____    ______ ____
ROOT
ATOM      1  C   UNL     1      32.388 -23.897 -15.393  0.00  0.00    +0.037 C 
ATOM      2  C   UNL     1      31.054 -23.430 -15.456  0.00  0.00    +0.037 C 
ATOM      3  C   UNL     1      33.270 -23.603 -16.446  0.00  0.00    +0.145 C 
ATOM      4  C   UNL     1      32.843 -22.857 -17.545  0.00  0.00    +0.016 C 
ATOM      5  C   UNL     1      30.641 -22.680 -16.570  0.00  0.00    +0.149 C 
ATOM      6  C   UNL     1      31.531 -22.396 -17.607  0.00  0.00    +0.036 C 
ATOM      7  C   UNL     1      32.800 -24.647 -14.279  0.00  0.00    +0.003 C 
ATOM      8  C   UNL     1      30.172 -23.725 -14.404  0.00  0.00    +0.003 C 
ATOM      9  C   UNL     1      33.778 -22.541 -18.666  0.00  0.00    +0.034 C 
ATOM     10  C   UNL     1      31.910 -24.930 -13.243  0.00  0.00    +0.000 C 
ATOM     11  C   UNL     1      30.599 -24.470 -13.305  0.00  0.00    +0.000 C 
ENDROOT
BRANCH   3  12
ATOM     12  O   UNL     1      34.566 -24.039 -16.412  0.00  0.00    -0.403 OA
BRANCH  12  13
ATOM     13  P   UNL     1      35.806 -23.217 -15.783  0.00  0.00    +0.528 P 
ATOM     14  O   UNL     1      36.729 -22.585 -16.784  0.00  0.00    -0.216 OA
BRANCH  13  15
ATOM     15  O   UNL     1      35.116 -22.204 -14.728  0.00  0.00    -0.293 OA
ATOM     16  H   UNL     1      34.463 -21.654 -15.188  0.00  0.00    +0.223 HD
ENDBRANCH  13  15
BRANCH  13  17
ATOM     17  O   UNL     1      36.507 -24.316 -14.825  0.00  0.00    -0.293 OA
ATOM     18  H   UNL     1      37.219 -23.895 -14.317  0.00  0.00    +0.223 HD
ENDBRANCH  13  17
ENDBRANCH  12  13
ENDBRANCH   3  12
BRANCH   5  19
ATOM     19  O   UNL     1      29.364 -22.208 -16.675  0.00  0.00    -0.403 OA
BRANCH  19  20
ATOM     20  P   UNL     1      28.062 -23.113 -16.985  0.00  0.00    +0.528 P 
ATOM     21  O   UNL     1      28.329 -24.578 -17.183  0.00  0.00    -0.216 OA
BRANCH  20  22
ATOM     22  O   UNL     1      27.029 -22.743 -15.796  0.00  0.00    -0.293 OA
ATOM     23  H   UNL     1      26.676 -21.852 -15.940  0.00  0.00    +0.223 HD
ENDBRANCH  20  22
BRANCH  20  24
ATOM     24  O   UNL     1      27.413 -22.373 -18.269  0.00  0.00    -0.293 OA
ATOM     25  H   UNL     1      26.551 -21.999 -18.027  0.00  0.00    +0.223 HD
ENDBRANCH  20  24
ENDBRANCH  19  20
ENDBRANCH   5  19
TORSDOF 8
ENDMDL
MODEL 6
REMARK VINA RESULT:      -7.8      1.490      5.870
REMARK  Name = 8556
REMARK  8 active torsions:
REMARK  status: ('A' for Active; 'I' for Inactive)
REMARK    1  A    between atoms: C_3  and  O_12
REMARK    2  A    between atoms: C_5  and  O_19
REMARK    3  A    between atoms: O_12  and  P_13
REMARK    4  A    between atoms: P_13  and  O_15
REMARK    5  A    between atoms: P_13  and  O_17
REMARK    6  A    between atoms: O_19  and  P_20
REMARK    7  A    between atoms: P_20  and  O_22
REMARK    8  A    between atoms: P_20  and  O_24
REMARK                            x       y       z     vdW  Elec       q    Type
REMARK                         _______ _______ _______ _____ _____    ______ ____
ROOT
ATOM      1  C   UNL     1      32.671 -22.909 -16.504  0.00  0.00    +0.037 C 
ATOM      2  C   UNL     1      34.025 -23.181 -16.200  0.00  0.00    +0.037 C 
ATOM      3  C   UNL     1      31.688 -23.135 -15.527  0.00  0.00    +0.145 C 
ATOM      4  C   UNL     1      32.036 -23.622 -14.267  0.00  0.00    +0.016 C 
ATOM      5  C   UNL     1      34.359 -23.670 -14.926  0.00  0.00    +0.149 C 
ATOM      6  C   UNL     1      33.369 -23.889 -13.966  0.00  0.00    +0.036 C 
ATOM      7  C   UNL     1      32.339 -22.420 -17.779  0.00  0.00    +0.003 C 
ATOM      8  C   UNL     1      35.008 -22.956 -17.177  0.00  0.00    +0.003 C 
ATOM      9  C   UNL     1      30.994 -23.863 -13.224  0.00  0.00    +0.034 C 
ATOM     10  C   UNL     1      33.328 -22.202 -18.738  0.00  0.00    +0.000 C 
ATOM     11  C   UNL     1      34.660 -22.469 -18.438  0.00  0.00    +0.000 C 
ENDROOT
BRANCH   3  12
ATOM     12  O   UNL     1      30.371 -22.880 -15.792  0.00  0.00    -0.403 OA
BRANCH  12  13
ATOM     13  P   UNL     1      29.268 -23.996 -16.177  0.00  0.00    +0.528 P 
ATOM     14  O   UNL     1      29.764 -25.413 -16.179  0.00  0.00    -0.216 OA
BRANCH  13  15
ATOM     15  O   UNL     1      28.029 -23.689 -15.185  0.00  0.00    -0.293 OA
ATOM     16  H   UNL     1      27.279 -24.258 -15.418  0.00  0.00    +0.223 HD
ENDBRANCH  13  15
BRANCH  13  17
ATOM     17  O   UNL     1      28.725 -23.475 -17.608  0.00  0.00    -0.293 OA
ATOM     18  H   UNL     1      28.505 -24.236 -18.168  0.00  0.00    +0.223 HD
ENDBRANCH  13  17
ENDBRANCH  12  13
ENDBRANCH   3  12
BRANCH   5  19
ATOM     19  O   UNL     1      35.652 -23.947 -14.586  0.00  0.00    -0.403 OA
BRANCH  19  20
ATOM     20  P   UNL     1      36.378 -25.378 -14.781  0.00  0.00    +0.528 P 
ATOM     21  O   UNL     1      35.699 -26.319 -15.735  0.00  0.00    -0.216 OA
BRANCH  20  22
ATOM     22  O   UNL     1      37.909 -25.000 -15.140  0.00  0.00    -0.293 OA
ATOM     23  H   UNL     1      37.987 -24.041 -15.255  0.00  0.00    +0.223 HD
ENDBRANCH  20  22
BRANCH  20  24
ATOM     24  O   UNL     1      36.488 -25.928 -13.264  0.00  0.00    -0.293 OA
ATOM     25  H   UNL     1      36.023 -25.323 -12.665  0.00  0.00    +0.223 HD
ENDBRANCH  20  24
ENDBRANCH  19  20
ENDBRANCH   5  19
TORSDOF 8
ENDMDL
MODEL 7
REMARK VINA RESULT:      -7.7     12.180     14.110
REMARK  Name = 8556
REMARK  8 active torsions:
REMARK  status: ('A' for Active; 'I' for Inactive)
REMARK    1  A    between atoms: C_3  and  O_12
REMARK    2  A    between atoms: C_5  and  O_19
REMARK    3  A    between atoms: O_12  and  P_13
REMARK    4  A    between atoms: P_13  and  O_15
REMARK    5  A    between atoms: P_13  and  O_17
REMARK    6  A    between atoms: O_19  and  P_20
REMARK    7  A    between atoms: P_20  and  O_22
REMARK    8  A    between atoms: P_20  and  O_24
REMARK                            x       y       z     vdW  Elec       q    Type
REMARK                         _______ _______ _______ _____ _____    ______ ____
ROOT
ATOM      1  C   UNL     1      32.663 -10.893 -23.007  0.00  0.00    +0.037 C 
ATOM      2  C   UNL     1      32.978 -12.265 -23.146  0.00  0.00    +0.037 C 
ATOM      3  C   UNL     1      31.929 -10.466 -21.888  0.00  0.00    +0.145 C 
ATOM      4  C   UNL     1      31.512 -11.380 -20.920  0.00  0.00    +0.016 C 
ATOM      5  C   UNL     1      32.551 -13.172 -22.162  0.00  0.00    +0.149 C 
ATOM      6  C   UNL     1      31.822 -12.731 -21.056  0.00  0.00    +0.036 C 
ATOM      7  C   UNL     1      33.091  -9.987 -23.992  0.00  0.00    +0.003 C 
ATOM      8  C   UNL     1      33.712 -12.691 -24.265  0.00  0.00    +0.003 C 
ATOM      9  C   UNL     1      30.731 -10.932 -19.728  0.00  0.00    +0.034 C 
ATOM     10  C   UNL     1      33.819 -10.428 -25.097  0.00  0.00    +0.000 C 
ATOM     11  C   UNL     1      34.129 -11.777 -25.233  0.00  0.00    +0.000 C 
ENDROOT
BRANCH   3  12
ATOM     12  O   UNL     1      31.611  -9.147 -21.725  0.00  0.00    -0.403 OA
BRANCH  12  13
ATOM     13  P   UNL     1      32.608  -8.017 -21.144  0.00  0.00    +0.528 P 
ATOM     14  O   UNL     1      33.852  -7.783 -21.950  0.00  0.00    -0.216 OA
BRANCH  13  15
ATOM     15  O   UNL     1      31.660  -6.725 -20.928  0.00  0.00    -0.293 OA
ATOM     16  H   UNL     1      31.587  -6.532 -19.980  0.00  0.00    +0.223 HD
ENDBRANCH  13  15
BRANCH  13  17
ATOM     17  O   UNL     1      32.875  -8.527 -19.633  0.00  0.00    -0.293 OA
ATOM     18  H   UNL     1      32.573  -9.444 -19.542  0.00  0.00    +0.223 HD
ENDBRANCH  13  17
ENDBRANCH  12  13
ENDBRANCH   3  12
BRANCH   5  19
ATOM     19  O   UNL     1      32.832 -14.505 -22.254  0.00  0.00    -0.403 OA
BRANCH  19  20
ATOM     20  P   UNL     1      34.123 -15.229 -21.604  0.00  0.00    +0.528 P 
ATOM     21  O   UNL     1      34.795 -14.471 -20.495  0.00  0.00    -0.216 OA
BRANCH  20  22
ATOM     22  O   UNL     1      33.596 -16.710 -21.222  0.00  0.00    -0.293 OA
ATOM     23  H   UNL     1      32.632 -16.696 -21.125  0.00  0.00    +0.223 HD
ENDBRANCH  20  22
BRANCH  20  24
ATOM     24  O   UNL     1      35.061 -15.501 -22.893  0.00  0.00    -0.293 OA
ATOM     25  H   UNL     1      34.628 -16.139 -23.481  0.00  0.00    +0.223 HD
ENDBRANCH  20  24
ENDBRANCH  19  20
ENDBRANCH   5  19
TORSDOF 8
ENDMDL
MODEL 8
REMARK VINA RESULT:      -7.6     13.470     15.278
REMARK  Name = 8556
REMARK  8 active torsions:
REMARK  status: ('A' for Active; 'I' for Inactive)
REMARK    1  A    between atoms: C_3  and  O_12
REMARK    2  A    between atoms: C_5  and  O_19
REMARK    3  A    between atoms: O_12  and  P_13
REMARK    4  A    between atoms: P_13  and  O_15
REMARK    5  A    between atoms: P_13  and  O_17
REMARK    6  A    between atoms: O_19  and  P_20
REMARK    7  A    between atoms: P_20  and  O_22
REMARK    8  A    between atoms: P_20  and  O_24
REMARK                            x       y       z     vdW  Elec       q    Type
REMARK                         _______ _______ _______ _____ _____    ______ ____
ROOT
ATOM      1  C   UNL     1      33.342 -10.973 -23.706  0.00  0.00    +0.037 C 
ATOM      2  C   UNL     1      33.558  -9.594 -23.472  0.00  0.00    +0.037 C 
ATOM      3  C   UNL     1      32.427 -11.672 -22.901  0.00  0.00    +0.145 C 
ATOM      4  C   UNL     1      31.736 -11.020 -21.880  0.00  0.00    +0.016 C 
ATOM      5  C   UNL     1      32.853  -8.954 -22.440  0.00  0.00    +0.149 C 
ATOM      6  C   UNL     1      31.947  -9.663 -21.650  0.00  0.00    +0.036 C 
ATOM      7  C   UNL     1      34.048 -11.612 -24.739  0.00  0.00    +0.003 C 
ATOM      8  C   UNL     1      34.473  -8.896 -24.277  0.00  0.00    +0.003 C 
ATOM      9  C   UNL     1      30.762 -11.759 -21.021  0.00  0.00    +0.034 C 
ATOM     10  C   UNL     1      34.952 -10.903 -25.528  0.00  0.00    +0.000 C 
ATOM     11  C   UNL     1      35.165  -9.547 -25.298  0.00  0.00    +0.000 C 
ENDROOT
BRANCH   3  12
ATOM     12  O   UNL     1      32.196 -13.004 -23.105  0.00  0.00    -0.403 OA
BRANCH  12  13
ATOM     13  P   UNL     1      33.136 -14.202 -22.567  0.00  0.00    +0.528 P 
ATOM     14  O   UNL     1      34.439 -13.771 -21.957  0.00  0.00    -0.216 OA
BRANCH  13  15
ATOM     15  O   UNL     1      32.165 -15.067 -21.606  0.00  0.00    -0.293 OA
ATOM     16  H   UNL     1      32.438 -14.952 -20.682  0.00  0.00    +0.223 HD
ENDBRANCH  13  15
BRANCH  13  17
ATOM     17  O   UNL     1      33.287 -15.144 -23.872  0.00  0.00    -0.293 OA
ATOM     18  H   UNL     1      34.174 -15.034 -24.250  0.00  0.00    +0.223 HD
ENDBRANCH  13  17
ENDBRANCH  12  13
ENDBRANCH   3  12
BRANCH   5  19
ATOM     19  O   UNL     1      33.029  -7.625 -22.177  0.00  0.00    -0.403 OA
BRANCH  19  20
ATOM     20  P   UNL     1      32.007  -6.450 -22.609  0.00  0.00    +0.528 P 
ATOM     21  O   UNL     1      30.602  -6.894 -22.902  0.00  0.00    -0.216 OA
BRANCH  20  22
ATOM     22  O   UNL     1      32.162  -5.340 -21.442  0.00  0.00    -0.293 OA
ATOM     23  H   UNL     1      32.848  -5.621 -20.818  0.00  0.00    +0.223 HD
ENDBRANCH  20  22
BRANCH  20  24
ATOM     24  O   UNL     1      32.766  -5.764 -23.862  0.00  0.00    -0.293 OA
ATOM     25  H   UNL     1      32.277  -4.976 -24.146  0.00  0.00    +0.223 HD
ENDBRANCH  20  24
ENDBRANCH  19  20
ENDBRANCH   5  19
TORSDOF 8
ENDMDL
MODEL 9
REMARK VINA RESULT:      -7.6      9.935     11.797
REMARK  Name = 8556
REMARK  8 active torsions:
REMARK  status: ('A' for Active; 'I' for Inactive)
REMARK    1  A    between atoms: C_3  and  O_12
REMARK    2  A    between atoms: C_5  and  O_19
REMARK    3  A    between atoms: O_12  and  P_13
REMARK    4  A    between atoms: P_13  and  O_15
REMARK    5  A    between atoms: P_13  and  O_17
REMARK    6  A    between atoms: O_19  and  P_20
REMARK    7  A    between atoms: P_20  and  O_22
REMARK    8  A    between atoms: P_20  and  O_24
REMARK                            x       y       z     vdW  Elec       q    Type
REMARK                         _______ _______ _______ _____ _____    ______ ____
ROOT
ATOM      1  C   UNL     1      33.806 -15.349 -22.702  0.00  0.00    +0.037 C 
ATOM      2  C   UNL     1      33.095 -14.541 -23.621  0.00  0.00    +0.037 C 
ATOM      3  C   UNL     1      34.506 -16.472 -23.172  0.00  0.00    +0.145 C 
ATOM      4  C   UNL     1      34.506 -16.793 -24.530  0.00  0.00    +0.016 C 
ATOM      5  C   UNL     1      33.106 -14.878 -24.984  0.00  0.00    +0.149 C 
ATOM      6  C   UNL     1      33.808 -15.997 -25.435  0.00  0.00    +0.036 C 
ATOM      7  C   UNL     1      33.794 -15.010 -21.339  0.00  0.00    +0.003 C 
ATOM      8  C   UNL     1      32.394 -13.418 -23.150  0.00  0.00    +0.003 C 
ATOM      9  C   UNL     1      35.250 -17.986 -25.035  0.00  0.00    +0.034 C 
ATOM     10  C   UNL     1      33.092 -13.892 -20.889  0.00  0.00    +0.000 C 
ATOM     11  C   UNL     1      32.394 -13.097 -21.793  0.00  0.00    +0.000 C 
ENDROOT
BRANCH   3  12
ATOM     12  O   UNL     1      35.203 -17.270 -22.309  0.00  0.00    -0.403 OA
BRANCH  12  13
ATOM     13  P   UNL     1      34.591 -18.539 -21.519  0.00  0.00    +0.528 P 
ATOM     14  O   UNL     1      33.231 -18.328 -20.920  0.00  0.00    -0.216 OA
BRANCH  13  15
ATOM     15  O   UNL     1      34.710 -19.758 -22.575  0.00  0.00    -0.293 OA
ATOM     16  H   UNL     1      34.986 -20.563 -22.110  0.00  0.00    +0.223 HD
ENDBRANCH  13  15
BRANCH  13  17
ATOM     17  O   UNL     1      35.751 -18.877 -20.444  0.00  0.00    -0.293 OA
ATOM     18  H   UNL     1      36.364 -19.527 -20.822  0.00  0.00    +0.223 HD
ENDBRANCH  13  17
ENDBRANCH  12  13
ENDBRANCH   3  12
BRANCH   5  19
ATOM     19  O   UNL     1      32.436 -14.128 -25.908  0.00  0.00    -0.403 OA
BRANCH  19  20
ATOM     20  P   UNL     1      33.132 -13.179 -27.016  0.00  0.00    +0.528 P 
ATOM     21  O   UNL     1      34.192 -13.837 -27.851  0.00  0.00    -0.216 OA
BRANCH  20  22
ATOM     22  O   UNL     1      31.888 -12.546 -27.833  0.00  0.00    -0.293 OA
ATOM     23  H   UNL     1      32.137 -11.674 -28.177  0.00  0.00    +0.223 HD
ENDBRANCH  20  22
BRANCH  20  24
ATOM     24  O   UNL     1      33.656 -11.930 -26.132  0.00  0.00    -0.293 OA
ATOM     25  H   UNL     1      33.168 -11.897 -25.294  0.00  0.00    +0.223 HD
ENDBRANCH  20  24
ENDBRANCH  19  20
ENDBRANCH   5  19
TORSDOF 8
ENDMDL
