MODEL 1
REMARK VINA RESULT:     -11.9      0.000      0.000
REMARK  Name = 5291
REMARK  6 active torsions:
REMARK  status: ('A' for Active; 'I' for Inactive)
REMARK    1  A    between atoms: C_1  and  N_23
REMARK    2  A    between atoms: C_2  and  N_8
REMARK    3  A    between atoms: C_12  and  C_17
REMARK    4  A    between atoms: C_24  and  C_31
REMARK    5  A    between atoms: C_26  and  C_32
REMARK    6  A    between atoms: C_32  and  N_33
REMARK                            x       y       z     vdW  Elec       q    Type
REMARK                         _______ _______ _______ _____ _____    ______ ____
ROOT
ATOM      1  C   UNL     1      31.577 -22.815 -16.827  0.00  0.00    +0.052 C 
ATOM      2  C   UNL     1      31.590 -23.931 -14.705  0.00  0.00    +0.055 C 
ATOM      3  C   UNL     1      32.262 -23.206 -15.688  0.00  0.00    +0.030 C 
ATOM      4  C   UNL     1      30.243 -24.254 -14.875  0.00  0.00    -0.008 C 
ATOM      5  C   UNL     1      30.242 -23.127 -17.011  0.00  0.00    +0.014 C 
ATOM      6  C   UNL     1      29.570 -23.853 -16.027  0.00  0.00    -0.002 C 
ATOM      7  C   UNL     1      29.499 -25.031 -13.838  0.00  0.00    +0.032 C 
ENDROOT
BRANCH   2   8
ATOM      8  N   UNL     1      32.286 -24.330 -13.542  0.00  0.00    -0.248 N 
ATOM      9  N   UNL     1      34.510 -23.883 -14.146  0.00  0.00    -0.337 NA
ATOM     10  N   UNL     1      33.974 -24.795 -11.981  0.00  0.00    -0.170 NA
ATOM     11  C   UNL     1      33.653 -24.336 -13.207  0.00  0.00    +0.149 C 
ATOM     12  C   UNL     1      35.812 -23.905 -13.793  0.00  0.00    +0.147 C 
ATOM     13  C   UNL     1      36.266 -24.350 -12.568  0.00  0.00    +0.055 C 
ATOM     14  C   UNL     1      35.294 -24.789 -11.693  0.00  0.00    +0.114 C 
ATOM     15  H   UNL     1      31.701 -24.667 -12.826  0.00  0.00    +0.165 HD
BRANCH  12  17
ATOM     16  N   UNL     1      38.922 -23.512 -15.808  0.00  0.00    -0.242 NA
ATOM     17  C   UNL     1      36.727 -23.419 -14.797  0.00  0.00    +0.050 C 
ATOM     18  C   UNL     1      36.345 -22.433 -15.700  0.00  0.00    +0.006 C 
ATOM     19  C   UNL     1      38.015 -23.921 -14.893  0.00  0.00    +0.101 C 
ATOM     20  C   UNL     1      37.250 -21.986 -16.656  0.00  0.00    +0.021 C 
ATOM     21  C   UNL     1      38.514 -22.552 -16.668  0.00  0.00    +0.099 C 
ENDBRANCH  12  17
ENDBRANCH   2   8
BRANCH   1  23
ATOM     22  O   UNL     1      33.973 -23.544 -18.476  0.00  0.00    -0.270 OA
ATOM     23  N   UNL     1      32.259 -22.078 -17.825  0.00  0.00    -0.280 N 
ATOM     24  C   UNL     1      33.381 -22.456 -18.577  0.00  0.00    +0.249 C 
ATOM     25  H   UNL     1      31.899 -21.182 -18.016  0.00  0.00    +0.155 HD
BRANCH  24  31
ATOM     26  C   UNL     1      34.830 -19.572 -21.311  0.00  0.00    -0.043 C 
ATOM     27  C   UNL     1      35.730 -20.372 -20.621  0.00  0.00    -0.006 C 
ATOM     28  C   UNL     1      33.462 -19.705 -21.118  0.00  0.00    -0.006 C 
ATOM     29  C   UNL     1      35.252 -21.323 -19.720  0.00  0.00    +0.004 C 
ATOM     30  C   UNL     1      32.984 -20.656 -20.217  0.00  0.00    +0.004 C 
ATOM     31  C   UNL     1      33.879 -21.466 -19.518  0.00  0.00    +0.054 C 
BRANCH  26  32
ATOM     32  C   UNL     1      35.344 -18.546 -22.284  0.00  0.00    -0.050 C 
BRANCH  32  33
ATOM     33  N   UNL     1      34.495 -17.356 -22.321  0.00  0.00    +0.387 N 
ATOM     34  N   UNL     1      34.057 -14.510 -22.581  0.00  0.00    +0.383 N 
ATOM     35  C   UNL     1      34.592 -16.686 -23.624  0.00  0.00    -0.100 C 
ATOM     36  C   UNL     1      34.851 -16.429 -21.240  0.00  0.00    -0.100 C 
ATOM     37  C   UNL     1      33.702 -15.438 -23.662  0.00  0.00    -0.101 C 
ATOM     38  C   UNL     1      33.963 -15.180 -21.278  0.00  0.00    -0.101 C 
ATOM     39  C   UNL     1      33.207 -13.323 -22.618  0.00  0.00    -0.101 C 
ATOM     40  H   UNL     1      33.530 -17.655 -22.183  0.00  0.00    -0.079 HD
ATOM     41  H   UNL     1      35.022 -14.210 -22.719  0.00  0.00    -0.080 HD
ENDBRANCH  32  33
ENDBRANCH  26  32
ENDBRANCH  24  31
ENDBRANCH   1  23
TORSDOF 6
ENDMDL
MODEL 2
REMARK VINA RESULT:     -11.1      2.394      5.592
REMARK  Name = 5291
REMARK  6 active torsions:
REMARK  status: ('A' for Active; 'I' for Inactive)
REMARK    1  A    between atoms: C_1  and  N_23
REMARK    2  A    between atoms: C_2  and  N_8
REMARK    3  A    between atoms: C_12  and  C_17
REMARK    4  A    between atoms: C_24  and  C_31
REMARK    5  A    between atoms: C_26  and  C_32
REMARK    6  A    between atoms: C_32  and  N_33
REMARK                            x       y       z     vdW  Elec       q    Type
REMARK                         _______ _______ _______ _____ _____    ______ ____
ROOT
ATOM      1  C   UNL     1      34.181 -19.849 -20.668  0.00  0.00    +0.052 C 
ATOM      2  C   UNL     1      33.176 -21.524 -19.279  0.00  0.00    +0.055 C 
ATOM      3  C   UNL     1      33.081 -20.316 -19.967  0.00  0.00    +0.030 C 
ATOM      4  C   UNL     1      34.369 -22.248 -19.300  0.00  0.00    -0.008 C 
ATOM      5  C   UNL     1      35.371 -20.553 -20.699  0.00  0.00    +0.014 C 
ATOM      6  C   UNL     1      35.466 -21.762 -20.009  0.00  0.00    -0.002 C 
ATOM      7  C   UNL     1      34.499 -23.545 -18.569  0.00  0.00    +0.032 C 
ENDROOT
BRANCH   2   8
ATOM      8  N   UNL     1      32.055 -22.003 -18.564  0.00  0.00    -0.248 N 
ATOM      9  N   UNL     1      33.046 -22.751 -16.573  0.00  0.00    -0.337 NA
ATOM     10  N   UNL     1      30.669 -22.936 -16.917  0.00  0.00    -0.170 NA
ATOM     11  C   UNL     1      31.917 -22.590 -17.293  0.00  0.00    +0.149 C 
ATOM     12  C   UNL     1      32.878 -23.318 -15.360  0.00  0.00    +0.147 C 
ATOM     13  C   UNL     1      31.653 -23.714 -14.863  0.00  0.00    +0.055 C 
ATOM     14  C   UNL     1      30.573 -23.497 -15.693  0.00  0.00    +0.114 C 
ATOM     15  H   UNL     1      31.205 -21.906 -19.050  0.00  0.00    +0.165 HD
BRANCH  12  17
ATOM     16  N   UNL     1      35.173 -24.380 -12.623  0.00  0.00    -0.242 NA
ATOM     17  C   UNL     1      34.086 -23.488 -14.590  0.00  0.00    +0.050 C 
ATOM     18  C   UNL     1      35.297 -22.961 -15.028  0.00  0.00    +0.006 C 
ATOM     19  C   UNL     1      34.079 -24.184 -13.392  0.00  0.00    +0.101 C 
ATOM     20  C   UNL     1      36.444 -23.142 -14.264  0.00  0.00    +0.021 C 
ATOM     21  C   UNL     1      36.331 -23.853 -13.081  0.00  0.00    +0.099 C 
ENDBRANCH  12  17
ENDBRANCH   2   8
BRANCH   1  23
ATOM     22  O   UNL     1      35.695 -17.286 -20.306  0.00  0.00    -0.270 OA
ATOM     23  N   UNL     1      34.084 -18.622 -21.368  0.00  0.00    -0.280 N 
ATOM     24  C   UNL     1      34.814 -17.441 -21.167  0.00  0.00    +0.249 C 
ATOM     25  H   UNL     1      33.417 -18.594 -22.092  0.00  0.00    +0.155 HD
BRANCH  24  31
ATOM     26  C   UNL     1      33.816 -14.197 -23.691  0.00  0.00    -0.043 C 
ATOM     27  C   UNL     1      34.148 -15.422 -24.252  0.00  0.00    -0.006 C 
ATOM     28  C   UNL     1      33.806 -14.020 -22.315  0.00  0.00    -0.006 C 
ATOM     29  C   UNL     1      34.477 -16.491 -23.420  0.00  0.00    +0.004 C 
ATOM     30  C   UNL     1      34.135 -15.090 -21.482  0.00  0.00    +0.004 C 
ATOM     31  C   UNL     1      34.470 -16.326 -22.035  0.00  0.00    +0.054 C 
BRANCH  26  32
ATOM     32  C   UNL     1      33.460 -13.042 -24.589  0.00  0.00    -0.050 C 
BRANCH  32  33
ATOM     33  N   UNL     1      33.915 -11.765 -24.040  0.00  0.00    +0.387 N 
ATOM     34  N   UNL     1      33.985  -8.876 -23.952  0.00  0.00    +0.383 N 
ATOM     35  C   UNL     1      32.783 -10.992 -23.514  0.00  0.00    -0.100 C 
ATOM     36  C   UNL     1      34.639 -10.990 -25.053  0.00  0.00    -0.100 C 
ATOM     37  C   UNL     1      33.259  -9.653 -22.939  0.00  0.00    -0.101 C 
ATOM     38  C   UNL     1      35.115  -9.651 -24.480  0.00  0.00    -0.101 C 
ATOM     39  C   UNL     1      34.440  -7.602 -23.402  0.00  0.00    -0.101 C 
ATOM     40  H   UNL     1      34.553 -11.965 -23.270  0.00  0.00    -0.079 HD
ATOM     41  H   UNL     1      33.346  -8.677 -24.722  0.00  0.00    -0.080 HD
ENDBRANCH  32  33
ENDBRANCH  26  32
ENDBRANCH  24  31
ENDBRANCH   1  23
TORSDOF 6
ENDMDL
MODEL 3
REMARK VINA RESULT:     -10.6      2.648      5.905
REMARK  Name = 5291
REMARK  6 active torsions:
REMARK  status: ('A' for Active; 'I' for Inactive)
REMARK    1  A    between atoms: C_1  and  N_23
REMARK    2  A    between atoms: C_2  and  N_8
REMARK    3  A    between atoms: C_12  and  C_17
REMARK    4  A    between atoms: C_24  and  C_31
REMARK    5  A    between atoms: C_26  and  C_32
REMARK    6  A    between atoms: C_32  and  N_33
REMARK                            x       y       z     vdW  Elec       q    Type
REMARK                         _______ _______ _______ _____ _____    ______ ____
ROOT
ATOM      1  C   UNL     1      33.983 -19.531 -20.851  0.00  0.00    +0.052 C 
ATOM      2  C   UNL     1      35.124 -21.120 -19.466  0.00  0.00    +0.055 C 
ATOM      3  C   UNL     1      35.114 -19.903 -20.144  0.00  0.00    +0.030 C 
ATOM      4  C   UNL     1      34.003 -21.949 -19.504  0.00  0.00    -0.008 C 
ATOM      5  C   UNL     1      32.862 -20.341 -20.899  0.00  0.00    +0.014 C 
ATOM      6  C   UNL     1      32.872 -21.560 -20.221  0.00  0.00    -0.002 C 
ATOM      7  C   UNL     1      33.986 -23.260 -18.787  0.00  0.00    +0.032 C 
ENDROOT
BRANCH   2   8
ATOM      8  N   UNL     1      36.277 -21.500 -18.743  0.00  0.00    -0.248 N 
ATOM      9  N   UNL     1      35.336 -22.458 -16.819  0.00  0.00    -0.337 NA
ATOM     10  N   UNL     1      37.726 -22.347 -17.103  0.00  0.00    -0.170 NA
ATOM     11  C   UNL     1      36.455 -22.131 -17.498  0.00  0.00    +0.149 C 
ATOM     12  C   UNL     1      35.542 -23.060 -15.629  0.00  0.00    +0.147 C 
ATOM     13  C   UNL     1      36.794 -23.336 -15.116  0.00  0.00    +0.055 C 
ATOM     14  C   UNL     1      37.860 -22.952 -15.904  0.00  0.00    +0.114 C 
ATOM     15  H   UNL     1      37.121 -21.282 -19.201  0.00  0.00    +0.165 HD
BRANCH  12  17
ATOM     16  N   UNL     1      33.334 -24.381 -12.933  0.00  0.00    -0.242 NA
ATOM     17  C   UNL     1      34.345 -23.411 -14.904  0.00  0.00    +0.050 C 
ATOM     18  C   UNL     1      33.084 -23.141 -15.426  0.00  0.00    +0.006 C 
ATOM     19  C   UNL     1      34.414 -24.027 -13.664  0.00  0.00    +0.101 C 
ATOM     20  C   UNL     1      31.949 -23.491 -14.704  0.00  0.00    +0.021 C 
ATOM     21  C   UNL     1      32.126 -24.103 -13.473  0.00  0.00    +0.099 C 
ENDBRANCH  12  17
ENDBRANCH   2   8
BRANCH   1  23
ATOM     22  O   UNL     1      35.449 -16.980 -20.274  0.00  0.00    -0.270 OA
ATOM     23  N   UNL     1      33.972 -18.294 -21.539  0.00  0.00    -0.280 N 
ATOM     24  C   UNL     1      34.676 -17.119 -21.235  0.00  0.00    +0.249 C 
ATOM     25  H   UNL     1      33.395 -18.252 -22.336  0.00  0.00    +0.155 HD
BRANCH  24  31
ATOM     26  C   UNL     1      33.989 -13.835 -23.811  0.00  0.00    -0.043 C 
ATOM     27  C   UNL     1      34.075 -15.113 -24.343  0.00  0.00    -0.006 C 
ATOM     28  C   UNL     1      34.125 -13.617 -22.446  0.00  0.00    -0.006 C 
ATOM     29  C   UNL     1      34.301 -16.196 -23.493  0.00  0.00    +0.004 C 
ATOM     30  C   UNL     1      34.351 -14.700 -21.597  0.00  0.00    +0.004 C 
ATOM     31  C   UNL     1      34.438 -15.990 -22.120  0.00  0.00    +0.054 C 
BRANCH  26  32
ATOM     32  C   UNL     1      33.744 -12.665 -24.726  0.00  0.00    -0.050 C 
BRANCH  32  33
ATOM     33  N   UNL     1      33.990 -11.388 -24.057  0.00  0.00    +0.387 N 
ATOM     34  N   UNL     1      33.734  -8.519 -23.805  0.00  0.00    +0.383 N 
ATOM     35  C   UNL     1      32.728 -10.770 -23.634  0.00  0.00    -0.100 C 
ATOM     36  C   UNL     1      34.739 -10.477 -24.931  0.00  0.00    -0.100 C 
ATOM     37  C   UNL     1      32.985  -9.432 -22.933  0.00  0.00    -0.101 C 
ATOM     38  C   UNL     1      34.996  -9.138 -24.232  0.00  0.00    -0.101 C 
ATOM     39  C   UNL     1      33.981  -7.245 -23.135  0.00  0.00    -0.101 C 
ATOM     40  H   UNL     1      34.553 -11.573 -23.227  0.00  0.00    -0.079 HD
ATOM     41  H   UNL     1      33.172  -8.335 -24.636  0.00  0.00    -0.080 HD
ENDBRANCH  32  33
ENDBRANCH  26  32
ENDBRANCH  24  31
ENDBRANCH   1  23
TORSDOF 6
ENDMDL
MODEL 4
REMARK VINA RESULT:     -10.5      2.783      6.237
REMARK  Name = 5291
REMARK  6 active torsions:
REMARK  status: ('A' for Active; 'I' for Inactive)
REMARK    1  A    between atoms: C_1  and  N_23
REMARK    2  A    between atoms: C_2  and  N_8
REMARK    3  A    between atoms: C_12  and  C_17
REMARK    4  A    between atoms: C_24  and  C_31
REMARK    5  A    between atoms: C_26  and  C_32
REMARK    6  A    between atoms: C_32  and  N_33
REMARK                            x       y       z     vdW  Elec       q    Type
REMARK                         _______ _______ _______ _____ _____    ______ ____
ROOT
ATOM      1  C   UNL     1      34.347 -18.923 -21.005  0.00  0.00    +0.052 C 
ATOM      2  C   UNL     1      33.658 -20.898 -19.834  0.00  0.00    +0.055 C 
ATOM      3  C   UNL     1      33.375 -19.616 -20.303  0.00  0.00    +0.030 C 
ATOM      4  C   UNL     1      34.909 -21.468 -20.072  0.00  0.00    -0.008 C 
ATOM      5  C   UNL     1      35.593 -19.473 -21.250  0.00  0.00    +0.014 C 
ATOM      6  C   UNL     1      35.876 -20.756 -20.779  0.00  0.00    -0.002 C 
ATOM      7  C   UNL     1      35.239 -22.839 -19.579  0.00  0.00    +0.032 C 
ENDROOT
BRANCH   2   8
ATOM      8  N   UNL     1      32.667 -21.607 -19.119  0.00  0.00    -0.248 N 
ATOM      9  N   UNL     1      33.887 -22.402 -17.279  0.00  0.00    -0.337 NA
ATOM     10  N   UNL     1      31.541 -22.898 -17.515  0.00  0.00    -0.170 NA
ATOM     11  C   UNL     1      32.699 -22.336 -17.916  0.00  0.00    +0.149 C 
ATOM     12  C   UNL     1      33.884 -23.109 -16.130  0.00  0.00    +0.147 C 
ATOM     13  C   UNL     1      32.763 -23.730 -15.615  0.00  0.00    +0.055 C 
ATOM     14  C   UNL     1      31.609 -23.590 -16.358  0.00  0.00    +0.114 C 
ATOM     15  H   UNL     1      31.780 -21.586 -19.545  0.00  0.00    +0.165 HD
BRANCH  12  17
ATOM     16  N   UNL     1      37.549 -22.851 -15.507  0.00  0.00    -0.242 NA
ATOM     17  C   UNL     1      35.154 -23.178 -15.449  0.00  0.00    +0.050 C 
ATOM     18  C   UNL     1      35.239 -23.616 -14.131  0.00  0.00    +0.006 C 
ATOM     19  C   UNL     1      36.328 -22.810 -16.086  0.00  0.00    +0.101 C 
ATOM     20  C   UNL     1      36.477 -23.672 -13.502  0.00  0.00    +0.021 C 
ATOM     21  C   UNL     1      37.592 -23.282 -14.227  0.00  0.00    +0.099 C 
ENDBRANCH  12  17
ENDBRANCH   2   8
BRANCH   1  23
ATOM     22  O   UNL     1      35.170 -16.243 -19.942  0.00  0.00    -0.270 OA
ATOM     23  N   UNL     1      34.059 -17.622 -21.483  0.00  0.00    -0.280 N 
ATOM     24  C   UNL     1      34.465 -16.387 -20.954  0.00  0.00    +0.249 C 
ATOM     25  H   UNL     1      33.501 -17.577 -22.292  0.00  0.00    +0.155 HD
BRANCH  24  31
ATOM     26  C   UNL     1      33.073 -12.954 -22.994  0.00  0.00    -0.043 C 
ATOM     27  C   UNL     1      34.039 -13.754 -23.586  0.00  0.00    -0.006 C 
ATOM     28  C   UNL     1      32.556 -13.262 -21.743  0.00  0.00    -0.006 C 
ATOM     29  C   UNL     1      34.498 -14.887 -22.913  0.00  0.00    +0.004 C 
ATOM     30  C   UNL     1      33.015 -14.395 -21.071  0.00  0.00    +0.004 C 
ATOM     31  C   UNL     1      33.985 -15.208 -21.656  0.00  0.00    +0.054 C 
BRANCH  26  32
ATOM     32  C   UNL     1      32.576 -11.731 -23.720  0.00  0.00    -0.050 C 
BRANCH  32  33
ATOM     33  N   UNL     1      32.777 -10.513 -22.936  0.00  0.00    +0.387 N 
ATOM     34  N   UNL     1      32.131  -7.798 -22.182  0.00  0.00    +0.383 N 
ATOM     35  C   UNL     1      31.588 -10.209 -22.131  0.00  0.00    -0.100 C 
ATOM     36  C   UNL     1      33.110  -9.381 -23.808  0.00  0.00    -0.100 C 
ATOM     37  C   UNL     1      31.798  -8.932 -21.310  0.00  0.00    -0.101 C 
ATOM     38  C   UNL     1      33.319  -8.103 -22.989  0.00  0.00    -0.101 C 
ATOM     39  C   UNL     1      32.334  -6.583 -21.397  0.00  0.00    -0.101 C 
ATOM     40  H   UNL     1      33.561 -10.673 -22.304  0.00  0.00    -0.079 HD
ATOM     41  H   UNL     1      31.347  -7.638 -22.814  0.00  0.00    -0.080 HD
ENDBRANCH  32  33
ENDBRANCH  26  32
ENDBRANCH  24  31
ENDBRANCH   1  23
TORSDOF 6
ENDMDL
MODEL 5
REMARK VINA RESULT:     -10.3      4.064     12.801
REMARK  Name = 5291
REMARK  6 active torsions:
REMARK  status: ('A' for Active; 'I' for Inactive)
REMARK    1  A    between atoms: C_1  and  N_23
REMARK    2  A    between atoms: C_2  and  N_8
REMARK    3  A    between atoms: C_12  and  C_17
REMARK    4  A    between atoms: C_24  and  C_31
REMARK    5  A    between atoms: C_26  and  C_32
REMARK    6  A    between atoms: C_32  and  N_33
REMARK                            x       y       z     vdW  Elec       q    Type
REMARK                         _______ _______ _______ _____ _____    ______ ____
ROOT
ATOM      1  C   UNL     1      32.988 -14.820 -21.831  0.00  0.00    +0.052 C 
ATOM      2  C   UNL     1      32.201 -12.633 -21.244  0.00  0.00    +0.055 C 
ATOM      3  C   UNL     1      32.688 -13.881 -20.858  0.00  0.00    +0.030 C 
ATOM      4  C   UNL     1      32.020 -12.342 -22.596  0.00  0.00    -0.008 C 
ATOM      5  C   UNL     1      32.814 -14.548 -23.177  0.00  0.00    +0.014 C 
ATOM      6  C   UNL     1      32.326 -13.299 -23.562  0.00  0.00    -0.002 C 
ATOM      7  C   UNL     1      31.498 -11.013 -23.037  0.00  0.00    +0.032 C 
ENDROOT
BRANCH   2   8
ATOM      8  N   UNL     1      31.896 -11.674 -20.252  0.00  0.00    -0.248 N 
ATOM      9  N   UNL     1      32.460  -9.672 -21.341  0.00  0.00    -0.337 NA
ATOM     10  N   UNL     1      31.605  -9.657 -19.088  0.00  0.00    -0.170 NA
ATOM     11  C   UNL     1      31.991 -10.270 -20.226  0.00  0.00    +0.149 C 
ATOM     12  C   UNL     1      32.540  -8.327 -21.281  0.00  0.00    +0.147 C 
ATOM     13  C   UNL     1      32.174  -7.586 -20.176  0.00  0.00    +0.055 C 
ATOM     14  C   UNL     1      31.710  -8.311 -19.098  0.00  0.00    +0.114 C 
ATOM     15  H   UNL     1      31.548 -12.063 -19.418  0.00  0.00    +0.165 HD
BRANCH  12  17
ATOM     16  N   UNL     1      32.718  -6.069 -24.242  0.00  0.00    -0.242 NA
ATOM     17  C   UNL     1      33.040  -7.689 -22.475  0.00  0.00    +0.050 C 
ATOM     18  C   UNL     1      34.275  -8.039 -23.012  0.00  0.00    +0.006 C 
ATOM     19  C   UNL     1      32.308  -6.707 -23.122  0.00  0.00    +0.101 C 
ATOM     20  C   UNL     1      34.730  -7.407 -24.163  0.00  0.00    +0.021 C 
ATOM     21  C   UNL     1      33.922  -6.437 -24.734  0.00  0.00    +0.099 C 
ENDBRANCH  12  17
ENDBRANCH   2   8
BRANCH   1  23
ATOM     22  O   UNL     1      35.407 -16.327 -22.765  0.00  0.00    -0.270 OA
ATOM     23  N   UNL     1      33.484 -16.087 -21.440  0.00  0.00    -0.280 N 
ATOM     24  C   UNL     1      34.625 -16.760 -21.903  0.00  0.00    +0.249 C 
ATOM     25  H   UNL     1      32.960 -16.559 -20.753  0.00  0.00    +0.155 HD
BRANCH  24  31
ATOM     26  C   UNL     1      35.325 -20.582 -20.233  0.00  0.00    -0.043 C 
ATOM     27  C   UNL     1      36.402 -19.762 -20.535  0.00  0.00    -0.006 C 
ATOM     28  C   UNL     1      34.021 -20.168 -20.469  0.00  0.00    -0.006 C 
ATOM     29  C   UNL     1      36.171 -18.501 -21.086  0.00  0.00    +0.004 C 
ATOM     30  C   UNL     1      33.790 -18.908 -21.020  0.00  0.00    +0.004 C 
ATOM     31  C   UNL     1      34.865 -18.074 -21.328  0.00  0.00    +0.054 C 
BRANCH  26  32
ATOM     32  C   UNL     1      35.573 -21.943 -19.638  0.00  0.00    -0.050 C 
BRANCH  32  33
ATOM     33  N   UNL     1      34.931 -22.092 -18.332  0.00  0.00    +0.387 N 
ATOM     34  N   UNL     1      34.172 -23.611 -15.992  0.00  0.00    +0.383 N 
ATOM     35  C   UNL     1      35.916 -22.450 -17.305  0.00  0.00    -0.100 C 
ATOM     36  C   UNL     1      33.861 -23.095 -18.389  0.00  0.00    -0.100 C 
ATOM     37  C   UNL     1      35.242 -22.607 -15.936  0.00  0.00    -0.101 C 
ATOM     38  C   UNL     1      33.188 -23.254 -17.022  0.00  0.00    -0.101 C 
ATOM     39  C   UNL     1      33.530 -23.757 -14.688  0.00  0.00    -0.101 C 
ATOM     40  H   UNL     1      34.517 -21.194 -18.082  0.00  0.00    -0.079 HD
ATOM     41  H   UNL     1      34.586 -24.509 -16.242  0.00  0.00    -0.080 HD
ENDBRANCH  32  33
ENDBRANCH  26  32
ENDBRANCH  24  31
ENDBRANCH   1  23
TORSDOF 6
ENDMDL
MODEL 6
REMARK VINA RESULT:      -9.8      3.864     13.161
REMARK  Name = 5291
REMARK  6 active torsions:
REMARK  status: ('A' for Active; 'I' for Inactive)
REMARK    1  A    between atoms: C_1  and  N_23
REMARK    2  A    between atoms: C_2  and  N_8
REMARK    3  A    between atoms: C_12  and  C_17
REMARK    4  A    between atoms: C_24  and  C_31
REMARK    5  A    between atoms: C_26  and  C_32
REMARK    6  A    between atoms: C_32  and  N_33
REMARK                            x       y       z     vdW  Elec       q    Type
REMARK                         _______ _______ _______ _____ _____    ______ ____
ROOT
ATOM      1  C   UNL     1      33.387 -14.868 -21.719  0.00  0.00    +0.052 C 
ATOM      2  C   UNL     1      33.537 -12.889 -23.065  0.00  0.00    +0.055 C 
ATOM      3  C   UNL     1      34.059 -14.121 -22.672  0.00  0.00    +0.030 C 
ATOM      4  C   UNL     1      32.351 -12.421 -22.498  0.00  0.00    -0.008 C 
ATOM      5  C   UNL     1      32.209 -14.418 -21.147  0.00  0.00    +0.014 C 
ATOM      6  C   UNL     1      31.688 -13.185 -21.539  0.00  0.00    -0.002 C 
ATOM      7  C   UNL     1      31.771 -11.104 -22.899  0.00  0.00    +0.032 C 
ENDROOT
BRANCH   2   8
ATOM      8  N   UNL     1      34.221 -12.127 -24.038  0.00  0.00    -0.248 N 
ATOM      9  N   UNL     1      33.730  -9.936 -23.355  0.00  0.00    -0.337 NA
ATOM     10  N   UNL     1      35.100 -10.351 -25.294  0.00  0.00    -0.170 NA
ATOM     11  C   UNL     1      34.357 -10.741 -24.238  0.00  0.00    +0.149 C 
ATOM     12  C   UNL     1      33.879  -8.614 -23.577  0.00  0.00    +0.147 C 
ATOM     13  C   UNL     1      34.615  -8.091 -24.621  0.00  0.00    +0.055 C 
ATOM     14  C   UNL     1      35.208  -9.015 -25.456  0.00  0.00    +0.114 C 
ATOM     15  H   UNL     1      34.697 -12.672 -24.706  0.00  0.00    +0.165 HD
BRANCH  12  17
ATOM     16  N   UNL     1      32.537  -7.321 -20.349  0.00  0.00    -0.242 NA
ATOM     17  C   UNL     1      33.209  -7.754 -22.632  0.00  0.00    +0.050 C 
ATOM     18  C   UNL     1      32.605  -6.570 -23.041  0.00  0.00    +0.006 C 
ATOM     19  C   UNL     1      33.148  -8.081 -21.286  0.00  0.00    +0.101 C 
ATOM     20  C   UNL     1      31.967  -5.763 -22.107  0.00  0.00    +0.021 C 
ATOM     21  C   UNL     1      31.961  -6.179 -20.786  0.00  0.00    +0.099 C 
ENDBRANCH  12  17
ENDBRANCH   2   8
BRANCH   1  23
ATOM     22  O   UNL     1      34.521 -17.103 -23.364  0.00  0.00    -0.270 OA
ATOM     23  N   UNL     1      33.916 -16.119 -21.321  0.00  0.00    -0.280 N 
ATOM     24  C   UNL     1      34.439 -17.142 -22.126  0.00  0.00    +0.249 C 
ATOM     25  H   UNL     1      33.916 -16.295 -20.352  0.00  0.00    +0.155 HD
BRANCH  24  31
ATOM     26  C   UNL     1      35.739 -20.611 -20.084  0.00  0.00    -0.043 C 
ATOM     27  C   UNL     1      34.383 -20.418 -20.307  0.00  0.00    -0.006 C 
ATOM     28  C   UNL     1      36.675 -19.683 -20.520  0.00  0.00    -0.006 C 
ATOM     29  C   UNL     1      33.955 -19.274 -20.981  0.00  0.00    +0.004 C 
ATOM     30  C   UNL     1      36.247 -18.540 -21.194  0.00  0.00    +0.004 C 
ATOM     31  C   UNL     1      34.886 -18.335 -21.425  0.00  0.00    +0.054 C 
BRANCH  26  32
ATOM     32  C   UNL     1      36.203 -21.845 -19.357  0.00  0.00    -0.050 C 
BRANCH  32  33
ATOM     33  N   UNL     1      35.518 -22.013 -18.076  0.00  0.00    +0.387 N 
ATOM     34  N   UNL     1      34.705 -23.558 -15.771  0.00  0.00    +0.383 N 
ATOM     35  C   UNL     1      36.473 -22.361 -17.017  0.00  0.00    -0.100 C 
ATOM     36  C   UNL     1      34.468 -23.033 -18.176  0.00  0.00    -0.100 C 
ATOM     37  C   UNL     1      35.756 -22.537 -15.674  0.00  0.00    -0.101 C 
ATOM     38  C   UNL     1      33.751 -23.212 -16.833  0.00  0.00    -0.101 C 
ATOM     39  C   UNL     1      34.021 -23.723 -14.492  0.00  0.00    -0.101 C 
ATOM     40  H   UNL     1      35.081 -21.123 -17.836  0.00  0.00    -0.079 HD
ATOM     41  H   UNL     1      35.142 -24.447 -16.012  0.00  0.00    -0.080 HD
ENDBRANCH  32  33
ENDBRANCH  26  32
ENDBRANCH  24  31
ENDBRANCH   1  23
TORSDOF 6
ENDMDL
MODEL 7
REMARK VINA RESULT:      -9.5      1.618      2.335
REMARK  Name = 5291
REMARK  6 active torsions:
REMARK  status: ('A' for Active; 'I' for Inactive)
REMARK    1  A    between atoms: C_1  and  N_23
REMARK    2  A    between atoms: C_2  and  N_8
REMARK    3  A    between atoms: C_12  and  C_17
REMARK    4  A    between atoms: C_24  and  C_31
REMARK    5  A    between atoms: C_26  and  C_32
REMARK    6  A    between atoms: C_32  and  N_33
REMARK                            x       y       z     vdW  Elec       q    Type
REMARK                         _______ _______ _______ _____ _____    ______ ____
ROOT
ATOM      1  C   UNL     1      32.950 -22.868 -16.573  0.00  0.00    +0.052 C 
ATOM      2  C   UNL     1      32.778 -23.722 -14.339  0.00  0.00    +0.055 C 
ATOM      3  C   UNL     1      33.453 -22.952 -15.286  0.00  0.00    +0.030 C 
ATOM      4  C   UNL     1      31.610 -24.396 -14.694  0.00  0.00    -0.008 C 
ATOM      5  C   UNL     1      31.792 -23.531 -16.941  0.00  0.00    +0.014 C 
ATOM      6  C   UNL     1      31.117 -24.302 -15.994  0.00  0.00    -0.002 C 
ATOM      7  C   UNL     1      30.867 -25.229 -13.700  0.00  0.00    +0.032 C 
ENDROOT
BRANCH   2   8
ATOM      8  N   UNL     1      33.290 -23.807 -13.025  0.00  0.00    -0.248 N 
ATOM      9  N   UNL     1      35.573 -24.172 -13.429  0.00  0.00    -0.337 NA
ATOM     10  N   UNL     1      34.720 -24.042 -11.179  0.00  0.00    -0.170 NA
ATOM     11  C   UNL     1      34.587 -24.016 -12.521  0.00  0.00    +0.149 C 
ATOM     12  C   UNL     1      36.803 -24.372 -12.912  0.00  0.00    +0.147 C 
ATOM     13  C   UNL     1      37.067 -24.418 -11.558  0.00  0.00    +0.055 C 
ATOM     14  C   UNL     1      35.977 -24.245 -10.731  0.00  0.00    +0.114 C 
ATOM     15  H   UNL     1      32.606 -23.698 -12.326  0.00  0.00    +0.165 HD
BRANCH  12  17
ATOM     16  N   UNL     1      38.942 -23.772 -15.905  0.00  0.00    -0.242 NA
ATOM     17  C   UNL     1      37.857 -24.538 -13.884  0.00  0.00    +0.050 C 
ATOM     18  C   UNL     1      38.783 -25.570 -13.770  0.00  0.00    +0.006 C 
ATOM     19  C   UNL     1      37.980 -23.673 -14.960  0.00  0.00    +0.101 C 
ATOM     20  C   UNL     1      39.787 -25.704 -14.722  0.00  0.00    +0.021 C 
ATOM     21  C   UNL     1      39.823 -24.787 -15.760  0.00  0.00    +0.099 C 
ENDBRANCH  12  17
ENDBRANCH   2   8
BRANCH   1  23
ATOM     22  O   UNL     1      33.786 -23.535 -19.374  0.00  0.00    -0.270 OA
ATOM     23  N   UNL     1      33.635 -22.086 -17.534  0.00  0.00    -0.280 N 
ATOM     24  C   UNL     1      34.009 -22.437 -18.840  0.00  0.00    +0.249 C 
ATOM     25  H   UNL     1      33.881 -21.177 -17.249  0.00  0.00    +0.155 HD
BRANCH  24  31
ATOM     26  C   UNL     1      36.115 -19.485 -21.017  0.00  0.00    -0.043 C 
ATOM     27  C   UNL     1      34.733 -19.404 -20.918  0.00  0.00    -0.006 C 
ATOM     28  C   UNL     1      36.816 -20.519 -20.412  0.00  0.00    -0.006 C 
ATOM     29  C   UNL     1      34.039 -20.377 -20.200  0.00  0.00    +0.004 C 
ATOM     30  C   UNL     1      36.122 -21.492 -19.694  0.00  0.00    +0.004 C 
ATOM     31  C   UNL     1      34.734 -21.421 -19.587  0.00  0.00    +0.054 C 
BRANCH  26  32
ATOM     32  C   UNL     1      36.866 -18.434 -21.791  0.00  0.00    -0.050 C 
BRANCH  32  33
ATOM     33  N   UNL     1      36.203 -18.111 -23.054  0.00  0.00    +0.387 N 
ATOM     34  N   UNL     1      33.880 -17.499 -24.663  0.00  0.00    +0.383 N 
ATOM     35  C   UNL     1      35.549 -16.799 -22.979  0.00  0.00    -0.100 C 
ATOM     36  C   UNL     1      35.231 -19.150 -23.413  0.00  0.00    -0.100 C 
ATOM     37  C   UNL     1      34.854 -16.461 -24.303  0.00  0.00    -0.101 C 
ATOM     38  C   UNL     1      34.534 -18.812 -24.736  0.00  0.00    -0.101 C 
ATOM     39  C   UNL     1      33.221 -17.176 -25.926  0.00  0.00    -0.101 C 
ATOM     40  H   UNL     1      36.917 -18.073 -23.782  0.00  0.00    -0.079 HD
ATOM     41  H   UNL     1      33.166 -17.537 -23.936  0.00  0.00    -0.080 HD
ENDBRANCH  32  33
ENDBRANCH  26  32
ENDBRANCH  24  31
ENDBRANCH   1  23
TORSDOF 6
ENDMDL
