MODEL 1
REMARK VINA RESULT:     -12.4      0.000      0.000
REMARK  Name = 24878044
REMARK  6 active torsions:
REMARK  status: ('A' for Active; 'I' for Inactive)
REMARK    1  A    between atoms: N_2  and  C_6
REMARK    2  A    between atoms: C_3  and  C_18
REMARK    3  A    between atoms: C_7  and  S_12
REMARK    4  A    between atoms: S_12  and  N_15
REMARK    5  A    between atoms: C_18  and  S_19
REMARK    6  A    between atoms: S_19  and  C_31
REMARK                            x       y       z     vdW  Elec       q    Type
REMARK                         _______ _______ _______ _____ _____    ______ ____
ROOT
ATOM      1  O   UNL     1      34.714 -18.323 -24.324  0.00  0.00    -0.274 OA
ATOM      2  N   UNL     1      34.422 -17.551 -22.123  0.00  0.00    -0.283 N 
ATOM      3  C   UNL     1      34.577 -17.423 -23.499  0.00  0.00    +0.238 C 
ATOM      4  H   UNL     1      34.338 -16.712 -21.615  0.00  0.00    +0.155 HD
ENDROOT
BRANCH   2   6
ATOM      5 CL   UNL     1      37.096 -18.855 -21.462  0.00  0.00    -0.081 Cl
ATOM      6  C   UNL     1      34.371 -18.749 -21.370  0.00  0.00    +0.061 C 
ATOM      7  C   UNL     1      34.199 -21.103 -19.885  0.00  0.00    +0.123 C 
ATOM      8  C   UNL     1      35.532 -19.432 -21.010  0.00  0.00    +0.072 C 
ATOM      9  C   UNL     1      33.123 -19.243 -20.989  0.00  0.00    +0.017 C 
ATOM     10  C   UNL     1      35.445 -20.609 -20.266  0.00  0.00    +0.033 C 
ATOM     11  C   UNL     1      33.037 -20.421 -20.245  0.00  0.00    +0.021 C 
BRANCH   7  12
ATOM     12  S   UNL     1      34.090 -22.577 -18.955  0.00  0.00    +0.057 S 
ATOM     13  O   UNL     1      34.055 -23.702 -19.878  0.00  0.00    -0.153 OA
ATOM     14  O   UNL     1      35.096 -22.535 -17.903  0.00  0.00    -0.153 OA
BRANCH  12  15
ATOM     15  N   UNL     1      32.546 -22.400 -18.244  0.00  0.00    -0.203 NA
ATOM     16  H   UNL     1      32.648 -22.272 -17.237  0.00  0.00    +0.144 HD
ATOM     17  H   UNL     1      31.990 -23.235 -18.426  0.00  0.00    +0.144 HD
ENDBRANCH  12  15
ENDBRANCH   7  12
ENDBRANCH   2   6
BRANCH   3  18
ATOM     18  C   UNL     1      34.583 -15.973 -23.936  0.00  0.00    +0.152 C 
BRANCH  18  19
ATOM     19  S   UNL     1      33.441 -15.044 -22.890  0.00  0.00    -0.047 S 
BRANCH  19  31
ATOM     20  O   UNL     1      33.605 -13.513 -24.991  0.00  0.00    -0.262 OA
ATOM     21  N   UNL     1      32.901 -12.393 -23.048  0.00  0.00    -0.250 N 
ATOM     22  C   UNL     1      30.947 -11.406 -21.862  0.00  0.00    +0.027 C 
ATOM     23  C   UNL     1      31.637 -10.064 -21.744  0.00  0.00    +0.029 C 
ATOM     24  C   UNL     1      31.989 -12.512 -21.891  0.00  0.00    +0.099 C 
ATOM     25  C   UNL     1      32.738  -9.927 -22.762  0.00  0.00    -0.009 C 
ATOM     26  C   UNL     1      33.342 -11.049 -23.376  0.00  0.00    +0.051 C 
ATOM     27  C   UNL     1      33.186  -8.626 -23.061  0.00  0.00    -0.007 C 
ATOM     28  C   UNL     1      34.404 -10.809 -24.267  0.00  0.00    +0.014 C 
ATOM     29  C   UNL     1      34.220  -8.418 -23.965  0.00  0.00    -0.022 C 
ATOM     30  C   UNL     1      34.832  -9.510 -24.564  0.00  0.00    -0.003 C 
ATOM     31  C   UNL     1      33.317 -13.518 -23.798  0.00  0.00    +0.280 C 
ATOM     32  C   UNL     1      34.659  -7.034 -24.299  0.00  0.00    +0.031 C 
ENDBRANCH  19  31
ENDBRANCH  18  19
ENDBRANCH   3  18
TORSDOF 6
ENDMDL
MODEL 2
REMARK VINA RESULT:     -12.0      1.579      2.764
REMARK  Name = 24878044
REMARK  6 active torsions:
REMARK  status: ('A' for Active; 'I' for Inactive)
REMARK    1  A    between atoms: N_2  and  C_6
REMARK    2  A    between atoms: C_3  and  C_18
REMARK    3  A    between atoms: C_7  and  S_12
REMARK    4  A    between atoms: S_12  and  N_15
REMARK    5  A    between atoms: C_18  and  S_19
REMARK    6  A    between atoms: S_19  and  C_31
REMARK                            x       y       z     vdW  Elec       q    Type
REMARK                         _______ _______ _______ _____ _____    ______ ____
ROOT
ATOM      1  O   UNL     1      34.611 -19.040 -24.401  0.00  0.00    -0.274 OA
ATOM      2  N   UNL     1      35.048 -18.099 -22.292  0.00  0.00    -0.283 N 
ATOM      3  C   UNL     1      34.942 -18.103 -23.678  0.00  0.00    +0.238 C 
ATOM      4  H   UNL     1      35.342 -17.254 -21.881  0.00  0.00    +0.155 HD
ENDROOT
BRANCH   2   6
ATOM      5 CL   UNL     1      37.464 -19.409 -20.976  0.00  0.00    -0.081 Cl
ATOM      6  C   UNL     1      34.780 -19.169 -21.404  0.00  0.00    +0.061 C 
ATOM      7  C   UNL     1      34.182 -21.268 -19.667  0.00  0.00    +0.123 C 
ATOM      8  C   UNL     1      35.807 -19.842 -20.746  0.00  0.00    +0.072 C 
ATOM      9  C   UNL     1      33.452 -19.545 -21.195  0.00  0.00    +0.017 C 
ATOM     10  C   UNL     1      35.508 -20.891 -19.877  0.00  0.00    +0.033 C 
ATOM     11  C   UNL     1      33.153 -20.594 -20.326  0.00  0.00    +0.021 C 
BRANCH   7  12
ATOM     12  S   UNL     1      33.807 -22.582 -18.580  0.00  0.00    +0.057 S 
ATOM     13  O   UNL     1      34.853 -22.655 -17.570  0.00  0.00    -0.153 OA
ATOM     14  O   UNL     1      32.414 -22.463 -18.173  0.00  0.00    -0.153 OA
BRANCH  12  15
ATOM     15  N   UNL     1      33.959 -23.924 -19.628  0.00  0.00    -0.203 NA
ATOM     16  H   UNL     1      34.943 -24.185 -19.704  0.00  0.00    +0.144 HD
ATOM     17  H   UNL     1      33.599 -23.678 -20.550  0.00  0.00    +0.144 HD
ENDBRANCH  12  15
ENDBRANCH   7  12
ENDBRANCH   2   6
BRANCH   3  18
ATOM     18  C   UNL     1      35.314 -16.765 -24.279  0.00  0.00    +0.152 C 
BRANCH  18  19
ATOM     19  S   UNL     1      33.807 -15.807 -24.551  0.00  0.00    -0.047 S 
BRANCH  19  31
ATOM     20  O   UNL     1      34.269 -15.106 -22.085  0.00  0.00    -0.262 OA
ATOM     21  N   UNL     1      33.403 -13.377 -23.421  0.00  0.00    -0.250 N 
ATOM     22  C   UNL     1      33.953 -11.282 -24.649  0.00  0.00    +0.027 C 
ATOM     23  C   UNL     1      32.896 -10.505 -23.892  0.00  0.00    +0.029 C 
ATOM     24  C   UNL     1      33.538 -12.740 -24.749  0.00  0.00    +0.099 C 
ATOM     25  C   UNL     1      32.535 -11.194 -22.603  0.00  0.00    -0.009 C 
ATOM     26  C   UNL     1      32.775 -12.572 -22.390  0.00  0.00    +0.051 C 
ATOM     27  C   UNL     1      31.901 -10.421 -21.612  0.00  0.00    -0.007 C 
ATOM     28  C   UNL     1      32.341 -13.126 -21.171  0.00  0.00    +0.014 C 
ATOM     29  C   UNL     1      31.506 -10.991 -20.407  0.00  0.00    -0.022 C 
ATOM     30  C   UNL     1      31.722 -12.344 -20.190  0.00  0.00    -0.003 C 
ATOM     31  C   UNL     1      33.862 -14.690 -23.165  0.00  0.00    +0.280 C 
ATOM     32  C   UNL     1      30.869 -10.152 -19.353  0.00  0.00    +0.031 C 
ENDBRANCH  19  31
ENDBRANCH  18  19
ENDBRANCH   3  18
TORSDOF 6
ENDMDL
MODEL 3
REMARK VINA RESULT:     -11.3      4.057      6.784
REMARK  Name = 24878044
REMARK  6 active torsions:
REMARK  status: ('A' for Active; 'I' for Inactive)
REMARK    1  A    between atoms: N_2  and  C_6
REMARK    2  A    between atoms: C_3  and  C_18
REMARK    3  A    between atoms: C_7  and  S_12
REMARK    4  A    between atoms: S_12  and  N_15
REMARK    5  A    between atoms: C_18  and  S_19
REMARK    6  A    between atoms: S_19  and  C_31
REMARK                            x       y       z     vdW  Elec       q    Type
REMARK                         _______ _______ _______ _____ _____    ______ ____
ROOT
ATOM      1  O   UNL     1      37.145 -20.438 -18.153  0.00  0.00    -0.274 OA
ATOM      2  N   UNL     1      35.748 -22.327 -18.172  0.00  0.00    -0.283 N 
ATOM      3  C   UNL     1      36.437 -21.258 -18.732  0.00  0.00    +0.238 C 
ATOM      4  H   UNL     1      35.216 -22.875 -18.794  0.00  0.00    +0.155 HD
ENDROOT
BRANCH   2   6
ATOM      5 CL   UNL     1      33.038 -23.140 -17.041  0.00  0.00    -0.081 Cl
ATOM      6  C   UNL     1      35.724 -22.720 -16.812  0.00  0.00    +0.061 C 
ATOM      7  C   UNL     1      35.748 -23.483 -14.130  0.00  0.00    +0.123 C 
ATOM      8  C   UNL     1      34.541 -23.112 -16.189  0.00  0.00    +0.072 C 
ATOM      9  C   UNL     1      36.921 -22.708 -16.094  0.00  0.00    +0.017 C 
ATOM     10  C   UNL     1      34.553 -23.494 -14.848  0.00  0.00    +0.033 C 
ATOM     11  C   UNL     1      36.933 -23.090 -14.753  0.00  0.00    +0.021 C 
BRANCH   7  12
ATOM     12  S   UNL     1      35.764 -23.960 -12.450  0.00  0.00    +0.057 S 
ATOM     13  O   UNL     1      36.803 -23.204 -11.767  0.00  0.00    -0.153 OA
ATOM     14  O   UNL     1      34.397 -23.929 -11.948  0.00  0.00    -0.153 OA
BRANCH  12  15
ATOM     15  N   UNL     1      36.263 -25.590 -12.580  0.00  0.00    -0.203 NA
ATOM     16  H   UNL     1      36.155 -26.051 -11.676  0.00  0.00    +0.144 HD
ATOM     17  H   UNL     1      37.242 -25.624 -12.865  0.00  0.00    +0.144 HD
ENDBRANCH  12  15
ENDBRANCH   7  12
ENDBRANCH   2   6
BRANCH   3  18
ATOM     18  C   UNL     1      36.215 -21.159 -20.226  0.00  0.00    +0.152 C 
BRANCH  18  19
ATOM     19  S   UNL     1      34.645 -20.318 -20.528  0.00  0.00    -0.047 S 
BRANCH  19  31
ATOM     20  O   UNL     1      35.970 -18.078 -20.417  0.00  0.00    -0.262 OA
ATOM     21  N   UNL     1      34.729 -18.354 -22.393  0.00  0.00    -0.250 N 
ATOM     22  C   UNL     1      34.858 -18.891 -24.820  0.00  0.00    +0.027 C 
ATOM     23  C   UNL     1      34.159 -17.600 -25.192  0.00  0.00    +0.029 C 
ATOM     24  C   UNL     1      34.399 -19.340 -23.444  0.00  0.00    +0.099 C 
ATOM     25  C   UNL     1      34.262 -16.588 -24.082  0.00  0.00    -0.009 C 
ATOM     26  C   UNL     1      34.528 -16.959 -22.743  0.00  0.00    +0.051 C 
ATOM     27  C   UNL     1      34.040 -15.238 -24.415  0.00  0.00    -0.007 C 
ATOM     28  C   UNL     1      34.542 -15.937 -21.776  0.00  0.00    +0.014 C 
ATOM     29  C   UNL     1      34.085 -14.247 -23.442  0.00  0.00    -0.022 C 
ATOM     30  C   UNL     1      34.331 -14.598 -22.122  0.00  0.00    -0.003 C 
ATOM     31  C   UNL     1      35.217 -18.740 -21.123  0.00  0.00    +0.280 C 
ATOM     32  C   UNL     1      33.886 -12.818 -23.815  0.00  0.00    +0.031 C 
ENDBRANCH  19  31
ENDBRANCH  18  19
ENDBRANCH   3  18
TORSDOF 6
ENDMDL
MODEL 4
REMARK VINA RESULT:     -11.3      3.899      5.766
REMARK  Name = 24878044
REMARK  6 active torsions:
REMARK  status: ('A' for Active; 'I' for Inactive)
REMARK    1  A    between atoms: N_2  and  C_6
REMARK    2  A    between atoms: C_3  and  C_18
REMARK    3  A    between atoms: C_7  and  S_12
REMARK    4  A    between atoms: S_12  and  N_15
REMARK    5  A    between atoms: C_18  and  S_19
REMARK    6  A    between atoms: S_19  and  C_31
REMARK                            x       y       z     vdW  Elec       q    Type
REMARK                         _______ _______ _______ _____ _____    ______ ____
ROOT
ATOM      1  O   UNL     1      33.603 -20.709 -19.654  0.00  0.00    -0.274 OA
ATOM      2  N   UNL     1      35.260 -22.104 -18.742  0.00  0.00    -0.283 N 
ATOM      3  C   UNL     1      34.721 -21.217 -19.667  0.00  0.00    +0.238 C 
ATOM      4  H   UNL     1      36.175 -22.420 -18.923  0.00  0.00    +0.155 HD
ENDROOT
BRANCH   2   6
ATOM      5 CL   UNL     1      37.021 -22.303 -16.263  0.00  0.00    -0.081 Cl
ATOM      6  C   UNL     1      34.645 -22.605 -17.569  0.00  0.00    +0.061 C 
ATOM      7  C   UNL     1      33.371 -23.596 -15.295  0.00  0.00    +0.123 C 
ATOM      8  C   UNL     1      35.354 -22.739 -16.376  0.00  0.00    +0.072 C 
ATOM      9  C   UNL     1      33.298 -22.967 -17.625  0.00  0.00    +0.017 C 
ATOM     10  C   UNL     1      34.716 -23.234 -15.239  0.00  0.00    +0.033 C 
ATOM     11  C   UNL     1      32.661 -23.462 -16.488  0.00  0.00    +0.021 C 
BRANCH   7  12
ATOM     12  S   UNL     1      32.573 -24.217 -13.871  0.00  0.00    +0.057 S 
ATOM     13  O   UNL     1      31.872 -23.119 -13.221  0.00  0.00    -0.153 OA
ATOM     14  O   UNL     1      31.846 -25.425 -14.237  0.00  0.00    -0.153 OA
BRANCH  12  15
ATOM     15  N   UNL     1      33.917 -24.657 -12.911  0.00  0.00    -0.203 NA
ATOM     16  H   UNL     1      34.178 -25.622 -13.114  0.00  0.00    +0.144 HD
ATOM     17  H   UNL     1      33.674 -24.570 -11.924  0.00  0.00    +0.144 HD
ENDBRANCH  12  15
ENDBRANCH   7  12
ENDBRANCH   2   6
BRANCH   3  18
ATOM     18  C   UNL     1      35.688 -20.916 -20.793  0.00  0.00    +0.152 C 
BRANCH  18  19
ATOM     19  S   UNL     1      36.057 -19.148 -20.788  0.00  0.00    -0.047 S 
BRANCH  19  31
ATOM     20  O   UNL     1      34.311 -19.351 -22.710  0.00  0.00    -0.262 OA
ATOM     21  N   UNL     1      34.634 -17.153 -21.944  0.00  0.00    -0.250 N 
ATOM     22  C   UNL     1      33.665 -15.309 -20.580  0.00  0.00    +0.027 C 
ATOM     23  C   UNL     1      33.736 -14.346 -21.746  0.00  0.00    +0.029 C 
ATOM     24  C   UNL     1      34.766 -16.347 -20.711  0.00  0.00    +0.099 C 
ATOM     25  C   UNL     1      33.816 -15.083 -23.056  0.00  0.00    -0.009 C 
ATOM     26  C   UNL     1      34.255 -16.425 -23.141  0.00  0.00    +0.051 C 
ATOM     27  C   UNL     1      33.474 -14.371 -24.222  0.00  0.00    -0.007 C 
ATOM     28  C   UNL     1      34.349 -16.998 -24.424  0.00  0.00    +0.014 C 
ATOM     29  C   UNL     1      33.554 -14.971 -25.473  0.00  0.00    -0.022 C 
ATOM     30  C   UNL     1      33.996 -16.283 -25.573  0.00  0.00    -0.003 C 
ATOM     31  C   UNL     1      34.858 -18.549 -21.959  0.00  0.00    +0.280 C 
ATOM     32  C   UNL     1      33.154 -14.217 -26.694  0.00  0.00    +0.031 C 
ENDBRANCH  19  31
ENDBRANCH  18  19
ENDBRANCH   3  18
TORSDOF 6
ENDMDL
MODEL 5
REMARK VINA RESULT:     -11.1      4.084      6.127
REMARK  Name = 24878044
REMARK  6 active torsions:
REMARK  status: ('A' for Active; 'I' for Inactive)
REMARK    1  A    between atoms: N_2  and  C_6
REMARK    2  A    between atoms: C_3  and  C_18
REMARK    3  A    between atoms: C_7  and  S_12
REMARK    4  A    between atoms: S_12  and  N_15
REMARK    5  A    between atoms: C_18  and  S_19
REMARK    6  A    between atoms: S_19  and  C_31
REMARK                            x       y       z     vdW  Elec       q    Type
REMARK                         _______ _______ _______ _____ _____    ______ ____
ROOT
ATOM      1  O   UNL     1      37.076 -20.515 -18.596  0.00  0.00    -0.274 OA
ATOM      2  N   UNL     1      35.277 -22.023 -18.491  0.00  0.00    -0.283 N 
ATOM      3  C   UNL     1      36.103 -21.079 -19.090  0.00  0.00    +0.238 C 
ATOM      4  H   UNL     1      34.532 -22.360 -19.039  0.00  0.00    +0.155 HD
ENDROOT
BRANCH   2   6
ATOM      5 CL   UNL     1      32.726 -23.162 -17.274  0.00  0.00    -0.081 Cl
ATOM      6  C   UNL     1      35.385 -22.557 -17.184  0.00  0.00    +0.061 C 
ATOM      7  C   UNL     1      35.668 -23.592 -14.609  0.00  0.00    +0.123 C 
ATOM      8  C   UNL     1      34.283 -23.104 -16.528  0.00  0.00    +0.072 C 
ATOM      9  C   UNL     1      36.629 -22.526 -16.552  0.00  0.00    +0.017 C 
ATOM     10  C   UNL     1      34.425 -23.622 -15.241  0.00  0.00    +0.033 C 
ATOM     11  C   UNL     1      36.771 -23.044 -15.265  0.00  0.00    +0.021 C 
BRANCH   7  12
ATOM     12  S   UNL     1      35.845 -24.239 -12.997  0.00  0.00    +0.057 S 
ATOM     13  O   UNL     1      36.618 -25.471 -13.079  0.00  0.00    -0.153 OA
ATOM     14  O   UNL     1      36.282 -23.168 -12.114  0.00  0.00    -0.153 OA
BRANCH  12  15
ATOM     15  N   UNL     1      34.224 -24.631 -12.624  0.00  0.00    -0.203 NA
ATOM     16  H   UNL     1      34.192 -25.143 -11.742  0.00  0.00    +0.144 HD
ATOM     17  H   UNL     1      33.834 -25.210 -13.368  0.00  0.00    +0.144 HD
ENDBRANCH  12  15
ENDBRANCH   7  12
ENDBRANCH   2   6
BRANCH   3  18
ATOM     18  C   UNL     1      35.666 -20.759 -20.504  0.00  0.00    +0.152 C 
BRANCH  18  19
ATOM     19  S   UNL     1      36.319 -19.139 -20.963  0.00  0.00    -0.047 S 
BRANCH  19  31
ATOM     20  O   UNL     1      34.550 -19.381 -22.860  0.00  0.00    -0.262 OA
ATOM     21  N   UNL     1      34.751 -17.197 -22.017  0.00  0.00    -0.250 N 
ATOM     22  C   UNL     1      33.697 -15.468 -20.569  0.00  0.00    +0.027 C 
ATOM     23  C   UNL     1      33.684 -14.461 -21.699  0.00  0.00    +0.029 C 
ATOM     24  C   UNL     1      34.858 -16.429 -20.758  0.00  0.00    +0.099 C 
ATOM     25  C   UNL     1      33.783 -15.144 -23.037  0.00  0.00    -0.009 C 
ATOM     26  C   UNL     1      34.302 -16.452 -23.180  0.00  0.00    +0.051 C 
ATOM     27  C   UNL     1      33.374 -14.413 -24.169  0.00  0.00    -0.007 C 
ATOM     28  C   UNL     1      34.406 -16.970 -24.485  0.00  0.00    +0.014 C 
ATOM     29  C   UNL     1      33.465 -14.961 -25.442  0.00  0.00    -0.022 C 
ATOM     30  C   UNL     1      33.986 -16.238 -25.599  0.00  0.00    -0.003 C 
ATOM     31  C   UNL     1      35.061 -18.575 -22.089  0.00  0.00    +0.280 C 
ATOM     32  C   UNL     1      32.994 -14.190 -26.627  0.00  0.00    +0.031 C 
ENDBRANCH  19  31
ENDBRANCH  18  19
ENDBRANCH   3  18
TORSDOF 6
ENDMDL
MODEL 6
REMARK VINA RESULT:     -11.1      4.220     11.768
REMARK  Name = 24878044
REMARK  6 active torsions:
REMARK  status: ('A' for Active; 'I' for Inactive)
REMARK    1  A    between atoms: N_2  and  C_6
REMARK    2  A    between atoms: C_3  and  C_18
REMARK    3  A    between atoms: C_7  and  S_12
REMARK    4  A    between atoms: S_12  and  N_15
REMARK    5  A    between atoms: C_18  and  S_19
REMARK    6  A    between atoms: S_19  and  C_31
REMARK                            x       y       z     vdW  Elec       q    Type
REMARK                         _______ _______ _______ _____ _____    ______ ____
ROOT
ATOM      1  O   UNL     1      33.947 -20.024 -20.910  0.00  0.00    -0.274 OA
ATOM      2  N   UNL     1      35.715 -18.484 -21.066  0.00  0.00    -0.283 N 
ATOM      3  C   UNL     1      35.115 -19.693 -20.730  0.00  0.00    +0.238 C 
ATOM      4  H   UNL     1      36.666 -18.391 -20.832  0.00  0.00    +0.155 HD
ENDROOT
BRANCH   2   6
ATOM      5 CL   UNL     1      35.304 -18.714 -24.077  0.00  0.00    -0.081 Cl
ATOM      6  C   UNL     1      35.114 -17.374 -21.707  0.00  0.00    +0.061 C 
ATOM      7  C   UNL     1      33.926 -15.154 -22.907  0.00  0.00    +0.123 C 
ATOM      8  C   UNL     1      34.878 -17.368 -23.081  0.00  0.00    +0.072 C 
ATOM      9  C   UNL     1      34.758 -16.270 -20.932  0.00  0.00    +0.017 C 
ATOM     10  C   UNL     1      34.283 -16.258 -23.681  0.00  0.00    +0.033 C 
ATOM     11  C   UNL     1      34.163 -15.160 -21.532  0.00  0.00    +0.021 C 
BRANCH   7  12
ATOM     12  S   UNL     1      33.183 -13.764 -23.658  0.00  0.00    +0.057 S 
ATOM     13  O   UNL     1      34.114 -12.648 -23.583  0.00  0.00    -0.153 OA
ATOM     14  O   UNL     1      32.641 -14.170 -24.947  0.00  0.00    -0.153 OA
BRANCH  12  15
ATOM     15  N   UNL     1      31.885 -13.471 -22.585  0.00  0.00    -0.203 NA
ATOM     16  H   UNL     1      31.588 -14.351 -22.163  0.00  0.00    +0.144 HD
ATOM     17  H   UNL     1      31.105 -13.060 -23.099  0.00  0.00    +0.144 HD
ENDBRANCH  12  15
ENDBRANCH   7  12
ENDBRANCH   2   6
BRANCH   3  18
ATOM     18  C   UNL     1      36.085 -20.638 -20.053  0.00  0.00    +0.152 C 
BRANCH  18  19
ATOM     19  S   UNL     1      35.154 -21.995 -19.308  0.00  0.00    -0.047 S 
BRANCH  19  31
ATOM     20  O   UNL     1      36.781 -21.276 -17.405  0.00  0.00    -0.262 OA
ATOM     21  N   UNL     1      35.179 -22.863 -16.741  0.00  0.00    -0.250 N 
ATOM     22  C   UNL     1      33.061 -23.213 -15.482  0.00  0.00    +0.027 C 
ATOM     23  C   UNL     1      33.697 -24.278 -14.614  0.00  0.00    +0.029 C 
ATOM     24  C   UNL     1      33.741 -23.191 -16.840  0.00  0.00    +0.099 C 
ATOM     25  C   UNL     1      35.198 -24.154 -14.615  0.00  0.00    -0.009 C 
ATOM     26  C   UNL     1      35.899 -23.481 -15.642  0.00  0.00    +0.051 C 
ATOM     27  C   UNL     1      35.899 -24.777 -13.565  0.00  0.00    -0.007 C 
ATOM     28  C   UNL     1      37.305 -23.479 -15.576  0.00  0.00    +0.014 C 
ATOM     29  C   UNL     1      37.287 -24.737 -13.512  0.00  0.00    -0.022 C 
ATOM     30  C   UNL     1      37.989 -24.092 -14.521  0.00  0.00    -0.003 C 
ATOM     31  C   UNL     1      35.820 -21.995 -17.657  0.00  0.00    +0.280 C 
ATOM     32  C   UNL     1      38.014 -25.368 -12.375  0.00  0.00    +0.031 C 
ENDBRANCH  19  31
ENDBRANCH  18  19
ENDBRANCH   3  18
TORSDOF 6
ENDMDL
MODEL 7
REMARK VINA RESULT:     -11.1      3.659      5.747
REMARK  Name = 24878044
REMARK  6 active torsions:
REMARK  status: ('A' for Active; 'I' for Inactive)
REMARK    1  A    between atoms: N_2  and  C_6
REMARK    2  A    between atoms: C_3  and  C_18
REMARK    3  A    between atoms: C_7  and  S_12
REMARK    4  A    between atoms: S_12  and  N_15
REMARK    5  A    between atoms: C_18  and  S_19
REMARK    6  A    between atoms: S_19  and  C_31
REMARK                            x       y       z     vdW  Elec       q    Type
REMARK                         _______ _______ _______ _____ _____    ______ ____
ROOT
ATOM      1  O   UNL     1      36.364 -20.366 -19.961  0.00  0.00    -0.274 OA
ATOM      2  N   UNL     1      34.620 -21.494 -18.862  0.00  0.00    -0.283 N 
ATOM      3  C   UNL     1      35.186 -20.695 -19.849  0.00  0.00    +0.238 C 
ATOM      4  H   UNL     1      33.649 -21.642 -18.925  0.00  0.00    +0.155 HD
ENDROOT
BRANCH   2   6
ATOM      5 CL   UNL     1      32.923 -23.325 -17.113  0.00  0.00    -0.081 Cl
ATOM      6  C   UNL     1      35.280 -22.121 -17.777  0.00  0.00    +0.061 C 
ATOM      7  C   UNL     1      36.642 -23.324 -15.661  0.00  0.00    +0.123 C 
ATOM      8  C   UNL     1      34.604 -22.979 -16.912  0.00  0.00    +0.072 C 
ATOM      9  C   UNL     1      36.639 -21.864 -17.585  0.00  0.00    +0.017 C 
ATOM     10  C   UNL     1      35.285 -23.581 -15.854  0.00  0.00    +0.033 C 
ATOM     11  C   UNL     1      37.320 -22.466 -16.527  0.00  0.00    +0.021 C 
BRANCH   7  12
ATOM     12  S   UNL     1      37.495 -24.077 -14.337  0.00  0.00    +0.057 S 
ATOM     13  O   UNL     1      37.746 -23.068 -13.319  0.00  0.00    -0.153 OA
ATOM     14  O   UNL     1      36.802 -25.308 -13.980  0.00  0.00    -0.153 OA
BRANCH  12  15
ATOM     15  N   UNL     1      38.975 -24.480 -15.090  0.00  0.00    -0.203 NA
ATOM     16  H   UNL     1      39.516 -25.087 -14.473  0.00  0.00    +0.144 HD
ATOM     17  H   UNL     1      39.504 -23.629 -15.279  0.00  0.00    +0.144 HD
ENDBRANCH  12  15
ENDBRANCH   7  12
ENDBRANCH   2   6
BRANCH   3  18
ATOM     18  C   UNL     1      34.154 -20.205 -20.842  0.00  0.00    +0.152 C 
BRANCH  18  19
ATOM     19  S   UNL     1      35.008 -19.475 -22.257  0.00  0.00    -0.047 S 
BRANCH  19  31
ATOM     20  O   UNL     1      35.461 -17.403 -20.745  0.00  0.00    -0.262 OA
ATOM     21  N   UNL     1      34.361 -16.892 -22.759  0.00  0.00    -0.250 N 
ATOM     22  C   UNL     1      34.629 -15.919 -25.034  0.00  0.00    +0.027 C 
ATOM     23  C   UNL     1      33.514 -14.924 -24.792  0.00  0.00    +0.029 C 
ATOM     24  C   UNL     1      34.382 -17.171 -24.211  0.00  0.00    +0.099 C 
ATOM     25  C   UNL     1      33.273 -14.726 -23.319  0.00  0.00    -0.009 C 
ATOM     26  C   UNL     1      33.676 -15.678 -22.354  0.00  0.00    +0.051 C 
ATOM     27  C   UNL     1      32.585 -13.563 -22.927  0.00  0.00    -0.007 C 
ATOM     28  C   UNL     1      33.346 -15.420 -21.010  0.00  0.00    +0.014 C 
ATOM     29  C   UNL     1      32.295 -13.323 -21.589  0.00  0.00    -0.022 C 
ATOM     30  C   UNL     1      32.671 -14.255 -20.632  0.00  0.00    -0.003 C 
ATOM     31  C   UNL     1      34.976 -17.750 -21.818  0.00  0.00    +0.280 C 
ATOM     32  C   UNL     1      31.598 -12.069 -21.184  0.00  0.00    +0.031 C 
ENDBRANCH  19  31
ENDBRANCH  18  19
ENDBRANCH   3  18
TORSDOF 6
ENDMDL
MODEL 8
REMARK VINA RESULT:     -10.9      4.010     11.458
REMARK  Name = 24878044
REMARK  6 active torsions:
REMARK  status: ('A' for Active; 'I' for Inactive)
REMARK    1  A    between atoms: N_2  and  C_6
REMARK    2  A    between atoms: C_3  and  C_18
REMARK    3  A    between atoms: C_7  and  S_12
REMARK    4  A    between atoms: S_12  and  N_15
REMARK    5  A    between atoms: C_18  and  S_19
REMARK    6  A    between atoms: S_19  and  C_31
REMARK                            x       y       z     vdW  Elec       q    Type
REMARK                         _______ _______ _______ _____ _____    ______ ____
ROOT
ATOM      1  O   UNL     1      33.971 -20.197 -20.306  0.00  0.00    -0.274 OA
ATOM      2  N   UNL     1      35.762 -19.180 -21.439  0.00  0.00    -0.283 N 
ATOM      3  C   UNL     1      35.138 -20.170 -20.686  0.00  0.00    +0.238 C 
ATOM      4  H   UNL     1      36.715 -19.323 -21.641  0.00  0.00    +0.155 HD
ENDROOT
BRANCH   2   6
ATOM      5 CL   UNL     1      35.023 -19.190 -24.395  0.00  0.00    -0.081 Cl
ATOM      6  C   UNL     1      35.183 -17.993 -21.948  0.00  0.00    +0.061 C 
ATOM      7  C   UNL     1      34.047 -15.625 -22.886  0.00  0.00    +0.123 C 
ATOM      8  C   UNL     1      34.805 -17.884 -23.285  0.00  0.00    +0.072 C 
ATOM      9  C   UNL     1      34.993 -16.918 -21.079  0.00  0.00    +0.017 C 
ATOM     10  C   UNL     1      34.237 -16.699 -23.755  0.00  0.00    +0.033 C 
ATOM     11  C   UNL     1      34.425 -15.733 -21.548  0.00  0.00    +0.021 C 
BRANCH   7  12
ATOM     12  S   UNL     1      33.336 -14.142 -23.474  0.00  0.00    +0.057 S 
ATOM     13  O   UNL     1      34.291 -13.062 -23.271  0.00  0.00    -0.153 OA
ATOM     14  O   UNL     1      32.789 -14.385 -24.801  0.00  0.00    -0.153 OA
BRANCH  12  15
ATOM     15  N   UNL     1      32.041 -13.945 -22.375  0.00  0.00    -0.203 NA
ATOM     16  H   UNL     1      31.416 -14.749 -22.440  0.00  0.00    +0.144 HD
ATOM     17  H   UNL     1      31.528 -13.094 -22.604  0.00  0.00    +0.144 HD
ENDBRANCH  12  15
ENDBRANCH   7  12
ENDBRANCH   2   6
BRANCH   3  18
ATOM     18  C   UNL     1      36.089 -21.291 -20.326  0.00  0.00    +0.152 C 
BRANCH  18  19
ATOM     19  S   UNL     1      36.302 -21.322 -18.532  0.00  0.00    -0.047 S 
BRANCH  19  31
ATOM     20  O   UNL     1      34.434 -23.088 -18.949  0.00  0.00    -0.262 OA
ATOM     21  N   UNL     1      35.042 -22.857 -16.690  0.00  0.00    -0.250 N 
ATOM     22  C   UNL     1      36.295 -23.891 -14.804  0.00  0.00    +0.027 C 
ATOM     23  C   UNL     1      35.065 -23.885 -13.921  0.00  0.00    +0.029 C 
ATOM     24  C   UNL     1      36.214 -22.743 -15.796  0.00  0.00    +0.099 C 
ATOM     25  C   UNL     1      33.807 -23.792 -14.743  0.00  0.00    -0.009 C 
ATOM     26  C   UNL     1      33.805 -23.291 -16.066  0.00  0.00    +0.051 C 
ATOM     27  C   UNL     1      32.603 -24.186 -14.130  0.00  0.00    -0.007 C 
ATOM     28  C   UNL     1      32.563 -23.191 -16.720  0.00  0.00    +0.014 C 
ATOM     29  C   UNL     1      31.395 -24.099 -14.810  0.00  0.00    -0.022 C 
ATOM     30  C   UNL     1      31.375 -23.597 -16.104  0.00  0.00    -0.003 C 
ATOM     31  C   UNL     1      35.117 -22.568 -18.072  0.00  0.00    +0.280 C 
ATOM     32  C   UNL     1      30.133 -24.555 -14.162  0.00  0.00    +0.031 C 
ENDBRANCH  19  31
ENDBRANCH  18  19
ENDBRANCH   3  18
TORSDOF 6
ENDMDL
MODEL 9
REMARK VINA RESULT:     -10.9      3.604      5.893
REMARK  Name = 24878044
REMARK  6 active torsions:
REMARK  status: ('A' for Active; 'I' for Inactive)
REMARK    1  A    between atoms: N_2  and  C_6
REMARK    2  A    between atoms: C_3  and  C_18
REMARK    3  A    between atoms: C_7  and  S_12
REMARK    4  A    between atoms: S_12  and  N_15
REMARK    5  A    between atoms: C_18  and  S_19
REMARK    6  A    between atoms: S_19  and  C_31
REMARK                            x       y       z     vdW  Elec       q    Type
REMARK                         _______ _______ _______ _____ _____    ______ ____
ROOT
ATOM      1  O   UNL     1      33.714 -20.964 -19.721  0.00  0.00    -0.274 OA
ATOM      2  N   UNL     1      35.512 -21.864 -18.504  0.00  0.00    -0.283 N 
ATOM      3  C   UNL     1      34.912 -21.180 -19.555  0.00  0.00    +0.238 C 
ATOM      4  H   UNL     1      36.491 -21.952 -18.545  0.00  0.00    +0.155 HD
ENDROOT
BRANCH   2   6
ATOM      5 CL   UNL     1      37.211 -22.182 -15.995  0.00  0.00    -0.081 Cl
ATOM      6  C   UNL     1      34.876 -22.446 -17.381  0.00  0.00    +0.061 C 
ATOM      7  C   UNL     1      33.563 -23.598 -15.206  0.00  0.00    +0.123 C 
ATOM      8  C   UNL     1      35.556 -22.640 -16.180  0.00  0.00    +0.072 C 
ATOM      9  C   UNL     1      33.539 -22.829 -17.496  0.00  0.00    +0.017 C 
ATOM     10  C   UNL     1      34.899 -23.216 -15.092  0.00  0.00    +0.033 C 
ATOM     11  C   UNL     1      32.882 -23.404 -16.408  0.00  0.00    +0.021 C 
BRANCH   7  12
ATOM     12  S   UNL     1      32.741 -24.319 -13.845  0.00  0.00    +0.057 S 
ATOM     13  O   UNL     1      31.963 -23.285 -13.178  0.00  0.00    -0.153 OA
ATOM     14  O   UNL     1      32.087 -25.541 -14.294  0.00  0.00    -0.153 OA
BRANCH  12  15
ATOM     15  N   UNL     1      34.066 -24.740 -12.851  0.00  0.00    -0.203 NA
ATOM     16  H   UNL     1      34.651 -25.422 -13.335  0.00  0.00    +0.144 HD
ATOM     17  H   UNL     1      33.723 -25.143 -11.980  0.00  0.00    +0.144 HD
ENDBRANCH  12  15
ENDBRANCH   7  12
ENDBRANCH   2   6
BRANCH   3  18
ATOM     18  C   UNL     1      35.926 -20.703 -20.573  0.00  0.00    +0.152 C 
BRANCH  18  19
ATOM     19  S   UNL     1      35.048 -20.021 -21.997  0.00  0.00    -0.047 S 
BRANCH  19  31
ATOM     20  O   UNL     1      35.556 -17.921 -20.542  0.00  0.00    -0.262 OA
ATOM     21  N   UNL     1      34.519 -17.432 -22.593  0.00  0.00    -0.250 N 
ATOM     22  C   UNL     1      34.872 -16.544 -24.892  0.00  0.00    +0.027 C 
ATOM     23  C   UNL     1      33.794 -15.498 -24.705  0.00  0.00    +0.029 C 
ATOM     24  C   UNL     1      34.557 -17.758 -24.035  0.00  0.00    +0.099 C 
ATOM     25  C   UNL     1      33.533 -15.242 -23.245  0.00  0.00    -0.009 C 
ATOM     26  C   UNL     1      33.876 -16.178 -22.241  0.00  0.00    +0.051 C 
ATOM     27  C   UNL     1      32.885 -14.040 -22.904  0.00  0.00    -0.007 C 
ATOM     28  C   UNL     1      33.530 -15.864 -20.914  0.00  0.00    +0.014 C 
ATOM     29  C   UNL     1      32.578 -13.745 -21.581  0.00  0.00    -0.022 C 
ATOM     30  C   UNL     1      32.897 -14.660 -20.587  0.00  0.00    -0.003 C 
ATOM     31  C   UNL     1      35.079 -18.283 -21.613  0.00  0.00    +0.280 C 
ATOM     32  C   UNL     1      31.926 -12.452 -21.231  0.00  0.00    +0.031 C 
ENDBRANCH  19  31
ENDBRANCH  18  19
ENDBRANCH   3  18
TORSDOF 6
ENDMDL
