MODEL 1
REMARK VINA RESULT:      -9.3      0.000      0.000
REMARK  Name = 23586165
REMARK  7 active torsions:
REMARK  status: ('A' for Active; 'I' for Inactive)
REMARK    1  A    between atoms: N_4  and  C_24
REMARK    2  A    between atoms: C_5  and  C_18
REMARK    3  A    between atoms: C_5  and  C_26
REMARK    4  A    between atoms: C_7  and  C_12
REMARK    5  A    between atoms: C_26  and  C_27
REMARK    6  A    between atoms: C_27  and  C_28
REMARK    7  A    between atoms: C_28  and  N_29
REMARK                            x       y       z     vdW  Elec       q    Type
REMARK                         _______ _______ _______ _____ _____    ______ ____
ROOT
ATOM      1  O   UNL     1      32.822 -25.040 -13.199  0.00  0.00    -0.251 OA
ATOM      2  N   UNL     1      33.862 -23.988 -14.980  0.00  0.00    -0.165 N 
ATOM      3  N   UNL     1      33.719 -23.181 -16.072  0.00  0.00    -0.179 NA
ATOM      4  N   UNL     1      31.583 -23.685 -14.601  0.00  0.00    -0.287 N 
ATOM      5  C   UNL     1      35.249 -24.480 -14.788  0.00  0.00    +0.108 C 
ATOM      6  C   UNL     1      36.002 -23.811 -15.955  0.00  0.00    +0.072 C 
ATOM      7  C   UNL     1      34.882 -23.063 -16.631  0.00  0.00    +0.081 C 
ATOM      8  C   UNL     1      32.759 -24.299 -14.181  0.00  0.00    +0.323 C 
ATOM      9  H   UNL     1      31.618 -23.107 -15.397  0.00  0.00    +0.151 HD
ENDROOT
BRANCH   7  12
ATOM     10  F   UNL     1      37.427 -22.069 -17.345  0.00  0.00    -0.204 F 
ATOM     11  F   UNL     1      33.235 -20.898 -20.657  0.00  0.00    -0.204 F 
ATOM     12  C   UNL     1      35.113 -22.252 -17.849  0.00  0.00    +0.045 C 
ATOM     13  C   UNL     1      36.395 -21.787 -18.152  0.00  0.00    +0.141 C 
ATOM     14  C   UNL     1      34.047 -21.950 -18.697  0.00  0.00    +0.033 C 
ATOM     15  C   UNL     1      34.260 -21.187 -19.845  0.00  0.00    +0.140 C 
ATOM     16  C   UNL     1      36.608 -21.023 -19.299  0.00  0.00    +0.032 C 
ATOM     17  C   UNL     1      35.541 -20.723 -20.145  0.00  0.00    +0.032 C 
ENDBRANCH   7  12
BRANCH   5  18
ATOM     18  C   UNL     1      35.823 -24.010 -13.446  0.00  0.00    -0.004 C 
ATOM     19  C   UNL     1      36.859 -23.080 -13.426  0.00  0.00    -0.003 C 
ATOM     20  C   UNL     1      35.306 -24.516 -12.258  0.00  0.00    -0.003 C 
ATOM     21  C   UNL     1      37.382 -22.652 -12.206  0.00  0.00    -0.000 C 
ATOM     22  C   UNL     1      35.829 -24.088 -11.037  0.00  0.00    -0.000 C 
ATOM     23  C   UNL     1      36.866 -23.155 -11.011  0.00  0.00    -0.000 C 
ENDBRANCH   5  18
BRANCH   4  24
ATOM     24  C   UNL     1      30.312 -23.848 -13.933  0.00  0.00    +0.091 C 
ATOM     25  C   UNL     1      29.442 -24.870 -14.635  0.00  0.00    +0.023 C 
ENDBRANCH   4  24
BRANCH   5  26
ATOM     26  C   UNL     1      35.266 -26.008 -15.000  0.00  0.00    +0.023 C 
BRANCH  26  27
ATOM     27  C   UNL     1      36.664 -26.501 -15.363  0.00  0.00    -0.022 C 
BRANCH  27  28
ATOM     28  C   UNL     1      37.410 -26.985 -14.121  0.00  0.00    -0.086 C 
BRANCH  28  29
ATOM     29  N   UNL     1      38.685 -26.289 -13.994  0.00  0.00    +0.380 N 
ATOM     30  H   UNL     1      39.387 -26.759 -14.564  0.00  0.00    -0.089 HD
ATOM     31  H   UNL     1      38.980 -26.295 -13.018  0.00  0.00    -0.089 HD
ATOM     32  H   UNL     1      38.580 -25.325 -14.312  0.00  0.00    -0.089 HD
ENDBRANCH  28  29
ENDBRANCH  27  28
ENDBRANCH  26  27
ENDBRANCH   5  26
TORSDOF 7
ENDMDL
MODEL 2
REMARK VINA RESULT:      -9.1      2.619      5.386
REMARK  Name = 23586165
REMARK  7 active torsions:
REMARK  status: ('A' for Active; 'I' for Inactive)
REMARK    1  A    between atoms: N_4  and  C_24
REMARK    2  A    between atoms: C_5  and  C_18
REMARK    3  A    between atoms: C_5  and  C_26
REMARK    4  A    between atoms: C_7  and  C_12
REMARK    5  A    between atoms: C_26  and  C_27
REMARK    6  A    between atoms: C_27  and  C_28
REMARK    7  A    between atoms: C_28  and  N_29
REMARK                            x       y       z     vdW  Elec       q    Type
REMARK                         _______ _______ _______ _____ _____    ______ ____
ROOT
ATOM      1  O   UNL     1      37.576 -22.494 -16.463  0.00  0.00    -0.251 OA
ATOM      2  N   UNL     1      35.416 -23.092 -15.881  0.00  0.00    -0.165 N 
ATOM      3  N   UNL     1      34.091 -23.046 -16.207  0.00  0.00    -0.179 NA
ATOM      4  N   UNL     1      35.826 -21.939 -17.864  0.00  0.00    -0.287 N 
ATOM      5  C   UNL     1      35.683 -23.779 -14.593  0.00  0.00    +0.108 C 
ATOM      6  C   UNL     1      34.271 -24.205 -14.146  0.00  0.00    +0.072 C 
ATOM      7  C   UNL     1      33.432 -23.653 -15.269  0.00  0.00    +0.081 C 
ATOM      8  C   UNL     1      36.370 -22.505 -16.716  0.00  0.00    +0.323 C 
ATOM      9  H   UNL     1      34.850 -21.991 -17.991  0.00  0.00    +0.151 HD
ENDROOT
BRANCH   7  12
ATOM     10  F   UNL     1      32.074 -25.566 -13.698  0.00  0.00    -0.204 F 
ATOM     11  F   UNL     1      29.055 -22.324 -16.908  0.00  0.00    -0.204 F 
ATOM     12  C   UNL     1      31.959 -23.803 -15.287  0.00  0.00    +0.045 C 
ATOM     13  C   UNL     1      31.341 -24.768 -14.488  0.00  0.00    +0.141 C 
ATOM     14  C   UNL     1      31.185 -22.979 -16.104  0.00  0.00    +0.033 C 
ATOM     15  C   UNL     1      29.797 -23.116 -16.122  0.00  0.00    +0.140 C 
ATOM     16  C   UNL     1      29.953 -24.906 -14.507  0.00  0.00    +0.032 C 
ATOM     17  C   UNL     1      29.182 -24.081 -15.324  0.00  0.00    +0.032 C 
ENDBRANCH   7  12
BRANCH   5  18
ATOM     18  C   UNL     1      36.571 -25.013 -14.795  0.00  0.00    -0.004 C 
ATOM     19  C   UNL     1      37.923 -24.952 -14.469  0.00  0.00    -0.003 C 
ATOM     20  C   UNL     1      36.020 -26.184 -15.305  0.00  0.00    -0.003 C 
ATOM     21  C   UNL     1      38.731 -26.074 -14.653  0.00  0.00    -0.000 C 
ATOM     22  C   UNL     1      36.828 -27.307 -15.490  0.00  0.00    -0.000 C 
ATOM     23  C   UNL     1      38.183 -27.251 -15.163  0.00  0.00    -0.000 C 
ENDBRANCH   5  18
BRANCH   4  24
ATOM     24  C   UNL     1      36.610 -21.279 -18.883  0.00  0.00    +0.091 C 
ATOM     25  C   UNL     1      35.766 -20.920 -20.088  0.00  0.00    +0.023 C 
ENDBRANCH   4  24
BRANCH   5  26
ATOM     26  C   UNL     1      36.229 -22.746 -13.586  0.00  0.00    +0.023 C 
BRANCH  26  27
ATOM     27  C   UNL     1      36.030 -23.216 -12.148  0.00  0.00    -0.022 C 
BRANCH  27  28
ATOM     28  C   UNL     1      37.227 -22.835 -11.279  0.00  0.00    -0.086 C 
BRANCH  28  29
ATOM     29  N   UNL     1      38.373 -23.680 -11.598  0.00  0.00    +0.380 N 
ATOM     30  H   UNL     1      38.468 -24.406 -10.887  0.00  0.00    -0.089 HD
ATOM     31  H   UNL     1      39.219 -23.112 -11.619  0.00  0.00    -0.089 HD
ATOM     32  H   UNL     1      38.232 -24.115 -12.510  0.00  0.00    -0.089 HD
ENDBRANCH  28  29
ENDBRANCH  27  28
ENDBRANCH  26  27
ENDBRANCH   5  26
TORSDOF 7
ENDMDL
