MODEL 1
REMARK VINA RESULT:      -8.6      0.000      0.000
REMARK  Name = 3081185
REMARK  4 active torsions:
REMARK  status: ('A' for Active; 'I' for Inactive)
REMARK    1  A    between atoms: N_1  and  N_2
REMARK    2  A    between atoms: N_1  and  C_14
REMARK    3  A    between atoms: N_1  and  C_19
REMARK    4  A    between atoms: C_19  and  C_20
REMARK                            x       y       z     vdW  Elec       q    Type
REMARK                         _______ _______ _______ _____ _____    ______ ____
ROOT
ATOM      1  N   UNL     1      35.491 -24.752 -14.452  0.00  0.00    -0.232 N 
ENDROOT
BRANCH   1   2
ATOM      2  N   UNL     1      34.508 -24.173 -15.229  0.00  0.00    -0.215 N 
ATOM      3  C   UNL     1      33.179 -24.064 -14.888  0.00  0.00    +0.070 C 
ATOM      4  C   UNL     1      32.534 -23.419 -15.945  0.00  0.00    +0.013 C 
ATOM      5  C   UNL     1      33.522 -23.146 -16.932  0.00  0.00    -0.004 C 
ATOM      6  C   UNL     1      34.725 -23.620 -16.463  0.00  0.00    +0.081 C 
ATOM      7  C   UNL     1      32.505 -24.482 -13.735  0.00  0.00    +0.016 C 
ATOM      8  C   UNL     1      31.149 -23.178 -15.851  0.00  0.00    +0.001 C 
ATOM      9  C   UNL     1      33.306 -22.473 -18.230  0.00  0.00    +0.032 C 
ATOM     10  C   UNL     1      31.131 -24.233 -13.663  0.00  0.00    +0.001 C 
ATOM     11  C   UNL     1      30.461 -23.592 -14.703  0.00  0.00    +0.000 C 
ENDBRANCH   1   2
BRANCH   1  14
ATOM     12  F   UNL     1      37.493 -22.796 -14.406  0.00  0.00    -0.201 F 
ATOM     13  N   UNL     1      36.953 -23.168 -10.842  0.00  0.00    -0.240 NA
ATOM     14  C   UNL     1      35.984 -24.218 -13.236  0.00  0.00    +0.096 C 
ATOM     15  C   UNL     1      36.978 -23.249 -13.257  0.00  0.00    +0.174 C 
ATOM     16  C   UNL     1      35.471 -24.666 -12.028  0.00  0.00    +0.039 C 
ATOM     17  C   UNL     1      37.424 -22.760 -12.041  0.00  0.00    +0.130 C 
ATOM     18  C   UNL     1      35.987 -24.113 -10.866  0.00  0.00    +0.100 C 
ENDBRANCH   1  14
BRANCH   1  19
ATOM     19  C   UNL     1      36.027 -26.012 -14.972  0.00  0.00    +0.113 C 
BRANCH  19  20
ATOM     20  C   UNL     1      37.194 -26.495 -14.115  0.00  0.00    +0.023 C 
ATOM     21  C   UNL     1      38.550 -26.167 -14.726  0.00  0.00    +0.002 C 
ENDBRANCH  19  20
ENDBRANCH   1  19
TORSDOF 4
ENDMDL
MODEL 2
REMARK VINA RESULT:      -8.4      2.037      3.697
REMARK  Name = 3081185
REMARK  4 active torsions:
REMARK  status: ('A' for Active; 'I' for Inactive)
REMARK    1  A    between atoms: N_1  and  N_2
REMARK    2  A    between atoms: N_1  and  C_14
REMARK    3  A    between atoms: N_1  and  C_19
REMARK    4  A    between atoms: C_19  and  C_20
REMARK                            x       y       z     vdW  Elec       q    Type
REMARK                         _______ _______ _______ _____ _____    ______ ____
ROOT
ATOM      1  N   UNL     1      36.741 -23.429 -14.985  0.00  0.00    -0.232 N 
ENDROOT
BRANCH   1   2
ATOM      2  N   UNL     1      36.240 -22.912 -16.162  0.00  0.00    -0.215 N 
ATOM      3  C   UNL     1      34.924 -22.961 -16.562  0.00  0.00    +0.070 C 
ATOM      4  C   UNL     1      34.847 -22.327 -17.804  0.00  0.00    +0.013 C 
ATOM      5  C   UNL     1      36.163 -21.899 -18.137  0.00  0.00    -0.004 C 
ATOM      6  C   UNL     1      36.997 -22.273 -17.108  0.00  0.00    +0.081 C 
ATOM      7  C   UNL     1      33.806 -23.509 -15.924  0.00  0.00    +0.016 C 
ATOM      8  C   UNL     1      33.595 -22.237 -18.443  0.00  0.00    +0.001 C 
ATOM      9  C   UNL     1      36.571 -21.182 -19.362  0.00  0.00    +0.032 C 
ATOM     10  C   UNL     1      32.573 -23.408 -16.577  0.00  0.00    +0.001 C 
ATOM     11  C   UNL     1      32.467 -22.782 -17.817  0.00  0.00    +0.000 C 
ENDBRANCH   1   2
BRANCH   1  14
ATOM     12  F   UNL     1      35.552 -25.955 -15.203  0.00  0.00    -0.201 F 
ATOM     13  N   UNL     1      38.991 -26.967 -14.670  0.00  0.00    -0.240 NA
ATOM     14  C   UNL     1      37.498 -24.622 -14.879  0.00  0.00    +0.096 C 
ATOM     15  C   UNL     1      36.870 -25.854 -14.993  0.00  0.00    +0.174 C 
ATOM     16  C   UNL     1      38.866 -24.553 -14.661  0.00  0.00    +0.039 C 
ATOM     17  C   UNL     1      37.656 -26.989 -14.882  0.00  0.00    +0.130 C 
ATOM     18  C   UNL     1      39.562 -25.747 -14.565  0.00  0.00    +0.100 C 
ENDBRANCH   1  14
BRANCH   1  19
ATOM     19  C   UNL     1      36.434 -22.645 -13.786  0.00  0.00    +0.113 C 
BRANCH  19  20
ATOM     20  C   UNL     1      35.761 -23.516 -12.730  0.00  0.00    +0.023 C 
ATOM     21  C   UNL     1      36.570 -23.611 -11.442  0.00  0.00    +0.002 C 
ENDBRANCH  19  20
ENDBRANCH   1  19
TORSDOF 4
ENDMDL
MODEL 3
REMARK VINA RESULT:      -8.4      1.918      4.136
REMARK  Name = 3081185
REMARK  4 active torsions:
REMARK  status: ('A' for Active; 'I' for Inactive)
REMARK    1  A    between atoms: N_1  and  N_2
REMARK    2  A    between atoms: N_1  and  C_14
REMARK    3  A    between atoms: N_1  and  C_19
REMARK    4  A    between atoms: C_19  and  C_20
REMARK                            x       y       z     vdW  Elec       q    Type
REMARK                         _______ _______ _______ _____ _____    ______ ____
ROOT
ATOM      1  N   UNL     1      36.036 -23.887 -14.257  0.00  0.00    -0.232 N 
ENDROOT
BRANCH   1   2
ATOM      2  N   UNL     1      35.175 -23.540 -15.278  0.00  0.00    -0.215 N 
ATOM      3  C   UNL     1      35.529 -22.878 -16.433  0.00  0.00    +0.070 C 
ATOM      4  C   UNL     1      34.366 -22.726 -17.192  0.00  0.00    +0.013 C 
ATOM      5  C   UNL     1      33.304 -23.316 -16.452  0.00  0.00    -0.004 C 
ATOM      6  C   UNL     1      33.832 -23.808 -15.281  0.00  0.00    +0.081 C 
ATOM      7  C   UNL     1      36.776 -22.411 -16.860  0.00  0.00    +0.016 C 
ATOM      8  C   UNL     1      34.450 -22.073 -18.437  0.00  0.00    +0.001 C 
ATOM      9  C   UNL     1      31.886 -23.394 -16.859  0.00  0.00    +0.032 C 
ATOM     10  C   UNL     1      36.836 -21.766 -18.099  0.00  0.00    +0.001 C 
ATOM     11  C   UNL     1      35.692 -21.599 -18.878  0.00  0.00    +0.000 C 
ENDBRANCH   1   2
BRANCH   1  14
ATOM     12  F   UNL     1      35.671 -26.416 -15.401  0.00  0.00    -0.201 F 
ATOM     13  N   UNL     1      39.199 -26.636 -14.603  0.00  0.00    -0.240 NA
ATOM     14  C   UNL     1      37.101 -24.814 -14.374  0.00  0.00    +0.096 C 
ATOM     15  C   UNL     1      36.878 -26.058 -14.947  0.00  0.00    +0.174 C 
ATOM     16  C   UNL     1      38.365 -24.474 -13.914  0.00  0.00    +0.039 C 
ATOM     17  C   UNL     1      37.953 -26.926 -15.038  0.00  0.00    +0.130 C 
ATOM     18  C   UNL     1      39.373 -25.415 -14.051  0.00  0.00    +0.100 C 
ENDBRANCH   1  14
BRANCH   1  19
ATOM     19  C   UNL     1      35.782 -23.216 -12.980  0.00  0.00    +0.113 C 
BRANCH  19  20
ATOM     20  C   UNL     1      35.156 -24.183 -11.979  0.00  0.00    +0.023 C 
ATOM     21  C   UNL     1      35.930 -24.258 -10.669  0.00  0.00    +0.002 C 
ENDBRANCH  19  20
ENDBRANCH   1  19
TORSDOF 4
ENDMDL
MODEL 4
REMARK VINA RESULT:      -8.3      7.211     10.818
REMARK  Name = 3081185
REMARK  4 active torsions:
REMARK  status: ('A' for Active; 'I' for Inactive)
REMARK    1  A    between atoms: N_1  and  N_2
REMARK    2  A    between atoms: N_1  and  C_14
REMARK    3  A    between atoms: N_1  and  C_19
REMARK    4  A    between atoms: C_19  and  C_20
REMARK                            x       y       z     vdW  Elec       q    Type
REMARK                         _______ _______ _______ _____ _____    ______ ____
ROOT
ATOM      1  N   UNL     1      34.862 -17.261 -21.786  0.00  0.00    -0.232 N 
ENDROOT
BRANCH   1   2
ATOM      2  N   UNL     1      35.229 -18.456 -21.202  0.00  0.00    -0.215 N 
ATOM      3  C   UNL     1      34.362 -19.397 -20.694  0.00  0.00    +0.070 C 
ATOM      4  C   UNL     1      35.138 -20.448 -20.200  0.00  0.00    +0.013 C 
ATOM      5  C   UNL     1      36.500 -20.103 -20.427  0.00  0.00    -0.004 C 
ATOM      6  C   UNL     1      36.523 -18.874 -21.045  0.00  0.00    +0.081 C 
ATOM      7  C   UNL     1      32.964 -19.400 -20.637  0.00  0.00    +0.016 C 
ATOM      8  C   UNL     1      34.491 -21.555 -19.618  0.00  0.00    +0.001 C 
ATOM      9  C   UNL     1      37.684 -20.912 -20.069  0.00  0.00    +0.032 C 
ATOM     10  C   UNL     1      32.342 -20.510 -20.056  0.00  0.00    +0.001 C 
ATOM     11  C   UNL     1      33.092 -21.572 -19.553  0.00  0.00    +0.000 C 
ENDBRANCH   1   2
BRANCH   1  14
ATOM     12  F   UNL     1      34.772 -19.409 -23.580  0.00  0.00    -0.201 F 
ATOM     13  N   UNL     1      34.252 -16.678 -25.905  0.00  0.00    -0.240 NA
ATOM     14  C   UNL     1      34.656 -17.065 -23.174  0.00  0.00    +0.096 C 
ATOM     15  C   UNL     1      34.619 -18.158 -24.030  0.00  0.00    +0.174 C 
ATOM     16  C   UNL     1      34.494 -15.782 -23.674  0.00  0.00    +0.039 C 
ATOM     17  C   UNL     1      34.414 -17.912 -25.378  0.00  0.00    +0.130 C 
ATOM     18  C   UNL     1      34.296 -15.643 -25.038  0.00  0.00    +0.100 C 
ENDBRANCH   1  14
BRANCH   1  19
ATOM     19  C   UNL     1      34.687 -16.145 -20.853  0.00  0.00    +0.113 C 
BRANCH  19  20
ATOM     20  C   UNL     1      33.206 -15.824 -20.669  0.00  0.00    +0.023 C 
ATOM     21  C   UNL     1      32.925 -14.327 -20.651  0.00  0.00    +0.002 C 
ENDBRANCH  19  20
ENDBRANCH   1  19
TORSDOF 4
ENDMDL
MODEL 5
REMARK VINA RESULT:      -8.2      7.588     10.653
REMARK  Name = 3081185
REMARK  4 active torsions:
REMARK  status: ('A' for Active; 'I' for Inactive)
REMARK    1  A    between atoms: N_1  and  N_2
REMARK    2  A    between atoms: N_1  and  C_14
REMARK    3  A    between atoms: N_1  and  C_19
REMARK    4  A    between atoms: C_19  and  C_20
REMARK                            x       y       z     vdW  Elec       q    Type
REMARK                         _______ _______ _______ _____ _____    ______ ____
ROOT
ATOM      1  N   UNL     1      34.811 -17.137 -22.756  0.00  0.00    -0.232 N 
ENDROOT
BRANCH   1   2
ATOM      2  N   UNL     1      35.173 -18.180 -21.929  0.00  0.00    -0.215 N 
ATOM      3  C   UNL     1      34.301 -19.031 -21.287  0.00  0.00    +0.070 C 
ATOM      4  C   UNL     1      35.074 -19.937 -20.556  0.00  0.00    +0.013 C 
ATOM      5  C   UNL     1      36.438 -19.599 -20.780  0.00  0.00    -0.004 C 
ATOM      6  C   UNL     1      36.466 -18.516 -21.628  0.00  0.00    +0.081 C 
ATOM      7  C   UNL     1      32.903 -19.070 -21.299  0.00  0.00    +0.016 C 
ATOM      8  C   UNL     1      34.421 -20.929 -19.798  0.00  0.00    +0.001 C 
ATOM      9  C   UNL     1      37.618 -20.281 -20.211  0.00  0.00    +0.032 C 
ATOM     10  C   UNL     1      32.276 -20.063 -20.540  0.00  0.00    +0.001 C 
ATOM     11  C   UNL     1      33.021 -20.979 -19.800  0.00  0.00    +0.000 C 
ENDBRANCH   1   2
BRANCH   1  14
ATOM     12  F   UNL     1      34.980 -16.200 -20.123  0.00  0.00    -0.201 F 
ATOM     13  N   UNL     1      32.799 -13.661 -21.513  0.00  0.00    -0.240 NA
ATOM     14  C   UNL     1      34.134 -15.966 -22.336  0.00  0.00    +0.096 C 
ATOM     15  C   UNL     1      34.243 -15.536 -21.021  0.00  0.00    +0.174 C 
ATOM     16  C   UNL     1      33.362 -15.253 -23.242  0.00  0.00    +0.039 C 
ATOM     17  C   UNL     1      33.561 -14.384 -20.663  0.00  0.00    +0.130 C 
ATOM     18  C   UNL     1      32.719 -14.115 -22.783  0.00  0.00    +0.100 C 
ENDBRANCH   1  14
BRANCH   1  19
ATOM     19  C   UNL     1      35.181 -17.308 -24.163  0.00  0.00    +0.113 C 
BRANCH  19  20
ATOM     20  C   UNL     1      34.269 -18.327 -24.840  0.00  0.00    +0.023 C 
ATOM     21  C   UNL     1      34.852 -19.735 -24.834  0.00  0.00    +0.002 C 
ENDBRANCH  19  20
ENDBRANCH   1  19
TORSDOF 4
ENDMDL
MODEL 6
REMARK VINA RESULT:      -8.2      1.236      2.585
REMARK  Name = 3081185
REMARK  4 active torsions:
REMARK  status: ('A' for Active; 'I' for Inactive)
REMARK    1  A    between atoms: N_1  and  N_2
REMARK    2  A    between atoms: N_1  and  C_14
REMARK    3  A    between atoms: N_1  and  C_19
REMARK    4  A    between atoms: C_19  and  C_20
REMARK                            x       y       z     vdW  Elec       q    Type
REMARK                         _______ _______ _______ _____ _____    ______ ____
ROOT
ATOM      1  N   UNL     1      35.105 -24.082 -14.319  0.00  0.00    -0.232 N 
ENDROOT
BRANCH   1   2
ATOM      2  N   UNL     1      34.204 -23.687 -15.286  0.00  0.00    -0.215 N 
ATOM      3  C   UNL     1      32.834 -23.679 -15.147  0.00  0.00    +0.070 C 
ATOM      4  C   UNL     1      32.300 -23.213 -16.351  0.00  0.00    +0.013 C 
ATOM      5  C   UNL     1      33.397 -22.943 -17.217  0.00  0.00    -0.004 C 
ATOM      6  C   UNL     1      34.553 -23.244 -16.534  0.00  0.00    +0.081 C 
ATOM      7  C   UNL     1      32.034 -24.044 -14.058  0.00  0.00    +0.016 C 
ATOM      8  C   UNL     1      30.902 -23.106 -16.477  0.00  0.00    +0.001 C 
ATOM      9  C   UNL     1      33.320 -22.431 -18.600  0.00  0.00    +0.032 C 
ATOM     10  C   UNL     1      30.648 -23.929 -14.206  0.00  0.00    +0.001 C 
ATOM     11  C   UNL     1      30.088 -23.468 -15.396  0.00  0.00    +0.000 C 
ENDBRANCH   1   2
BRANCH   1  14
ATOM     12  F   UNL     1      37.672 -22.986 -14.095  0.00  0.00    -0.201 F 
ATOM     13  N   UNL     1      38.557 -26.372 -15.037  0.00  0.00    -0.240 NA
ATOM     14  C   UNL     1      36.269 -24.853 -14.561  0.00  0.00    +0.096 C 
ATOM     15  C   UNL     1      37.523 -24.271 -14.439  0.00  0.00    +0.174 C 
ATOM     16  C   UNL     1      36.150 -26.187 -14.919  0.00  0.00    +0.039 C 
ATOM     17  C   UNL     1      38.628 -25.069 -14.686  0.00  0.00    +0.130 C 
ATOM     18  C   UNL     1      37.318 -26.899 -15.145  0.00  0.00    +0.100 C 
ENDBRANCH   1  14
BRANCH   1  19
ATOM     19  C   UNL     1      34.785 -23.642 -12.959  0.00  0.00    +0.113 C 
BRANCH  19  20
ATOM     20  C   UNL     1      35.292 -24.650 -11.933  0.00  0.00    +0.023 C 
ATOM     21  C   UNL     1      36.209 -24.021 -10.891  0.00  0.00    +0.002 C 
ENDBRANCH  19  20
ENDBRANCH   1  19
TORSDOF 4
ENDMDL
MODEL 7
REMARK VINA RESULT:      -8.2      7.753     11.020
REMARK  Name = 3081185
REMARK  4 active torsions:
REMARK  status: ('A' for Active; 'I' for Inactive)
REMARK    1  A    between atoms: N_1  and  N_2
REMARK    2  A    between atoms: N_1  and  C_14
REMARK    3  A    between atoms: N_1  and  C_19
REMARK    4  A    between atoms: C_19  and  C_20
REMARK                            x       y       z     vdW  Elec       q    Type
REMARK                         _______ _______ _______ _____ _____    ______ ____
ROOT
ATOM      1  N   UNL     1      34.748 -17.986 -22.291  0.00  0.00    -0.232 N 
ENDROOT
BRANCH   1   2
ATOM      2  N   UNL     1      34.161 -16.745 -22.154  0.00  0.00    -0.215 N 
ATOM      3  C   UNL     1      33.833 -15.897 -23.188  0.00  0.00    +0.070 C 
ATOM      4  C   UNL     1      33.265 -14.755 -22.620  0.00  0.00    +0.013 C 
ATOM      5  C   UNL     1      33.265 -14.947 -21.210  0.00  0.00    -0.004 C 
ATOM      6  C   UNL     1      33.821 -16.179 -20.955  0.00  0.00    +0.081 C 
ATOM      7  C   UNL     1      33.993 -16.053 -24.570  0.00  0.00    +0.016 C 
ATOM      8  C   UNL     1      32.835 -13.716 -23.469  0.00  0.00    +0.001 C 
ATOM      9  C   UNL     1      32.760 -14.001 -20.193  0.00  0.00    +0.032 C 
ATOM     10  C   UNL     1      33.559 -15.009 -25.393  0.00  0.00    +0.001 C 
ATOM     11  C   UNL     1      32.989 -13.858 -24.853  0.00  0.00    +0.000 C 
ENDBRANCH   1   2
BRANCH   1  14
ATOM     12  F   UNL     1      36.928 -19.191 -21.012  0.00  0.00    -0.201 F 
ATOM     13  N   UNL     1      34.248 -21.194 -19.619  0.00  0.00    -0.240 NA
ATOM     14  C   UNL     1      34.580 -19.067 -21.391  0.00  0.00    +0.096 C 
ATOM     15  C   UNL     1      35.688 -19.636 -20.778  0.00  0.00    +0.174 C 
ATOM     16  C   UNL     1      33.309 -19.553 -21.125  0.00  0.00    +0.039 C 
ATOM     17  C   UNL     1      35.469 -20.690 -19.905  0.00  0.00    +0.130 C 
ATOM     18  C   UNL     1      33.198 -20.611 -20.237  0.00  0.00    +0.100 C 
ENDBRANCH   1  14
BRANCH   1  19
ATOM     19  C   UNL     1      35.598 -18.141 -23.474  0.00  0.00    +0.113 C 
BRANCH  19  20
ATOM     20  C   UNL     1      35.227 -19.406 -24.242  0.00  0.00    +0.023 C 
ATOM     21  C   UNL     1      34.017 -19.213 -25.147  0.00  0.00    +0.002 C 
ENDBRANCH  19  20
ENDBRANCH   1  19
TORSDOF 4
ENDMDL
MODEL 8
REMARK VINA RESULT:      -8.1      1.398      3.652
REMARK  Name = 3081185
REMARK  4 active torsions:
REMARK  status: ('A' for Active; 'I' for Inactive)
REMARK    1  A    between atoms: N_1  and  N_2
REMARK    2  A    between atoms: N_1  and  C_14
REMARK    3  A    between atoms: N_1  and  C_19
REMARK    4  A    between atoms: C_19  and  C_20
REMARK                            x       y       z     vdW  Elec       q    Type
REMARK                         _______ _______ _______ _____ _____    ______ ____
ROOT
ATOM      1  N   UNL     1      35.091 -24.011 -14.296  0.00  0.00    -0.232 N 
ENDROOT
BRANCH   1   2
ATOM      2  N   UNL     1      34.125 -23.681 -15.224  0.00  0.00    -0.215 N 
ATOM      3  C   UNL     1      34.359 -23.104 -16.452  0.00  0.00    +0.070 C 
ATOM      4  C   UNL     1      33.118 -22.939 -17.072  0.00  0.00    +0.013 C 
ATOM      5  C   UNL     1      32.133 -23.434 -16.173  0.00  0.00    -0.004 C 
ATOM      6  C   UNL     1      32.782 -23.884 -15.047  0.00  0.00    +0.081 C 
ATOM      7  C   UNL     1      35.562 -22.723 -17.056  0.00  0.00    +0.016 C 
ATOM      8  C   UNL     1      33.073 -22.363 -18.357  0.00  0.00    +0.001 C 
ATOM      9  C   UNL     1      30.673 -23.466 -16.398  0.00  0.00    +0.032 C 
ATOM     10  C   UNL     1      35.493 -22.153 -18.331  0.00  0.00    +0.001 C 
ATOM     11  C   UNL     1      34.269 -21.975 -18.974  0.00  0.00    +0.000 C 
ENDBRANCH   1   2
BRANCH   1  14
ATOM     12  F   UNL     1      37.684 -22.995 -14.004  0.00  0.00    -0.201 F 
ATOM     13  N   UNL     1      38.489 -26.358 -15.089  0.00  0.00    -0.240 NA
ATOM     14  C   UNL     1      36.237 -24.801 -14.563  0.00  0.00    +0.096 C 
ATOM     15  C   UNL     1      37.504 -24.259 -14.406  0.00  0.00    +0.174 C 
ATOM     16  C   UNL     1      36.087 -26.115 -14.981  0.00  0.00    +0.039 C 
ATOM     17  C   UNL     1      38.591 -25.074 -14.680  0.00  0.00    +0.130 C 
ATOM     18  C   UNL     1      37.237 -26.846 -15.229  0.00  0.00    +0.100 C 
ENDBRANCH   1  14
BRANCH   1  19
ATOM     19  C   UNL     1      34.864 -23.478 -12.951  0.00  0.00    +0.113 C 
BRANCH  19  20
ATOM     20  C   UNL     1      35.142 -24.543 -11.894  0.00  0.00    +0.023 C 
ATOM     21  C   UNL     1      36.182 -24.103 -10.872  0.00  0.00    +0.002 C 
ENDBRANCH  19  20
ENDBRANCH   1  19
TORSDOF 4
ENDMDL
MODEL 9
REMARK VINA RESULT:      -8.0      0.694      2.382
REMARK  Name = 3081185
REMARK  4 active torsions:
REMARK  status: ('A' for Active; 'I' for Inactive)
REMARK    1  A    between atoms: N_1  and  N_2
REMARK    2  A    between atoms: N_1  and  C_14
REMARK    3  A    between atoms: N_1  and  C_19
REMARK    4  A    between atoms: C_19  and  C_20
REMARK                            x       y       z     vdW  Elec       q    Type
REMARK                         _______ _______ _______ _____ _____    ______ ____
ROOT
ATOM      1  N   UNL     1      35.204 -24.724 -14.218  0.00  0.00    -0.232 N 
ENDROOT
BRANCH   1   2
ATOM      2  N   UNL     1      34.026 -24.255 -14.762  0.00  0.00    -0.215 N 
ATOM      3  C   UNL     1      33.905 -23.608 -15.971  0.00  0.00    +0.070 C 
ATOM      4  C   UNL     1      32.552 -23.306 -16.142  0.00  0.00    +0.013 C 
ATOM      5  C   UNL     1      31.867 -23.793 -14.994  0.00  0.00    -0.004 C 
ATOM      6  C   UNL     1      32.799 -24.371 -14.164  0.00  0.00    +0.081 C 
ATOM      7  C   UNL     1      34.879 -23.272 -16.917  0.00  0.00    +0.016 C 
ATOM      8  C   UNL     1      32.149 -22.634 -17.313  0.00  0.00    +0.001 C 
ATOM      9  C   UNL     1      30.416 -23.700 -14.730  0.00  0.00    +0.032 C 
ATOM     10  C   UNL     1      34.456 -22.606 -18.072  0.00  0.00    +0.001 C 
ATOM     11  C   UNL     1      33.113 -22.290 -18.269  0.00  0.00    +0.000 C 
ENDBRANCH   1   2
BRANCH   1  14
ATOM     12  F   UNL     1      37.090 -22.664 -14.424  0.00  0.00    -0.201 F 
ATOM     13  N   UNL     1      37.101 -23.114 -10.828  0.00  0.00    -0.240 NA
ATOM     14  C   UNL     1      35.844 -24.181 -13.076  0.00  0.00    +0.096 C 
ATOM     15  C   UNL     1      36.773 -23.160 -13.222  0.00  0.00    +0.174 C 
ATOM     16  C   UNL     1      35.539 -24.672 -11.816  0.00  0.00    +0.039 C 
ATOM     17  C   UNL     1      37.369 -22.664 -12.074  0.00  0.00    +0.130 C 
ATOM     18  C   UNL     1      36.191 -24.108 -10.731  0.00  0.00    +0.100 C 
ENDBRANCH   1  14
BRANCH   1  19
ATOM     19  C   UNL     1      35.794 -25.870 -14.915  0.00  0.00    +0.113 C 
BRANCH  19  20
ATOM     20  C   UNL     1      37.288 -25.655 -15.137  0.00  0.00    +0.023 C 
ATOM     21  C   UNL     1      38.150 -26.542 -14.248  0.00  0.00    +0.002 C 
ENDBRANCH  19  20
ENDBRANCH   1  19
TORSDOF 4
ENDMDL
