MODEL 1
REMARK VINA RESULT:     -10.3      0.000      0.000
REMARK  Name = 44633765
REMARK  7 active torsions:
REMARK  status: ('A' for Active; 'I' for Inactive)
REMARK    1  A    between atoms: C_2  and  C_22
REMARK    2  A    between atoms: C_3  and  C_15
REMARK    3  A    between atoms: C_4  and  C_9
REMARK    4  A    between atoms: N_21  and  C_24
REMARK    5  A    between atoms: C_24  and  C_26
REMARK    6  A    between atoms: C_29  and  O_31
REMARK    7  A    between atoms: C_30  and  O_33
REMARK                            x       y       z     vdW  Elec       q    Type
REMARK                         _______ _______ _______ _____ _____    ______ ____
ROOT
ATOM      1  N   UNL     1      32.463 -23.951 -13.481  0.00  0.00    -0.242 NA
ATOM      2  C   UNL     1      33.373 -23.640 -15.700  0.00  0.00    +0.072 C 
ATOM      3  C   UNL     1      32.316 -23.774 -14.814  0.00  0.00    +0.103 C 
ATOM      4  C   UNL     1      34.855 -23.872 -13.820  0.00  0.00    +0.021 C 
ATOM      5  C   UNL     1      34.663 -23.691 -15.185  0.00  0.00    +0.008 C 
ATOM      6  C   UNL     1      33.732 -23.996 -13.019  0.00  0.00    +0.099 C 
ENDROOT
BRANCH   4   9
ATOM      7 CL   UNL     1      39.700 -25.688 -13.964  0.00  0.00    -0.081 Cl
ATOM      8  N   UNL     1      37.727 -23.222 -11.536  0.00  0.00    -0.241 NA
ATOM      9  C   UNL     1      36.183 -23.930 -13.256  0.00  0.00    +0.022 C 
ATOM     10  C   UNL     1      37.178 -24.706 -13.839  0.00  0.00    +0.015 C 
ATOM     11  C   UNL     1      36.506 -23.213 -12.115  0.00  0.00    +0.099 C 
ATOM     12  C   UNL     1      38.447 -24.741 -13.273  0.00  0.00    +0.077 C 
ATOM     13  C   UNL     1      38.668 -23.988 -12.131  0.00  0.00    +0.110 C 
ENDBRANCH   4   9
BRANCH   3  15
ATOM     14  N   UNL     1      30.369 -22.506 -15.233  0.00  0.00    -0.242 NA
ATOM     15  C   UNL     1      30.938 -23.732 -15.252  0.00  0.00    +0.099 C 
ATOM     16  C   UNL     1      30.282 -24.885 -15.654  0.00  0.00    +0.021 C 
ATOM     17  C   UNL     1      28.958 -24.772 -16.062  0.00  0.00    +0.003 C 
ATOM     18  C   UNL     1      29.081 -22.436 -15.635  0.00  0.00    +0.099 C 
ATOM     19  C   UNL     1      28.338 -23.528 -16.055  0.00  0.00    +0.021 C 
ENDBRANCH   3  15
BRANCH   2  22
ATOM     20  O   UNL     1      33.579 -24.307 -17.939  0.00  0.00    -0.270 OA
ATOM     21  N   UNL     1      32.516 -22.286 -17.532  0.00  0.00    -0.295 N 
ATOM     22  C   UNL     1      33.180 -23.450 -17.131  0.00  0.00    +0.248 C 
ATOM     23  H   UNL     1      32.228 -21.651 -16.837  0.00  0.00    +0.150 HD
BRANCH  21  24
ATOM     24  C   UNL     1      32.228 -21.968 -18.912  0.00  0.00    +0.145 C 
BRANCH  24  26
ATOM     25  N   UNL     1      34.595 -21.478 -19.158  0.00  0.00    -0.372 NA
ATOM     26  C   UNL     1      33.335 -21.179 -19.548  0.00  0.00    +0.114 C 
ATOM     27  C   UNL     1      33.025 -20.203 -20.481  0.00  0.00    +0.086 C 
ATOM     28  C   UNL     1      34.074 -19.489 -21.051  0.00  0.00    +0.024 C 
ATOM     29  C   UNL     1      35.383 -19.768 -20.675  0.00  0.00    +0.200 C 
ATOM     30  C   UNL     1      35.588 -20.764 -19.733  0.00  0.00    +0.312 C 
BRANCH  29  31
ATOM     31  O   UNL     1      36.416 -19.080 -21.222  0.00  0.00    -0.466 OA
ATOM     32  C   UNL     1      36.121 -18.231 -22.332  0.00  0.00    +0.253 C 
ENDBRANCH  29  31
BRANCH  30  33
ATOM     33  O   UNL     1      36.865 -21.069 -19.341  0.00  0.00    -0.446 OA
ATOM     34  C   UNL     1      37.008 -21.749 -18.100  0.00  0.00    +0.255 C 
ENDBRANCH  30  33
ENDBRANCH  24  26
ENDBRANCH  21  24
ENDBRANCH   2  22
TORSDOF 7
ENDMDL
MODEL 2
REMARK VINA RESULT:     -10.1     12.628     17.677
REMARK  Name = 44633765
REMARK  7 active torsions:
REMARK  status: ('A' for Active; 'I' for Inactive)
REMARK    1  A    between atoms: C_2  and  C_22
REMARK    2  A    between atoms: C_3  and  C_15
REMARK    3  A    between atoms: C_4  and  C_9
REMARK    4  A    between atoms: N_21  and  C_24
REMARK    5  A    between atoms: C_24  and  C_26
REMARK    6  A    between atoms: C_29  and  O_31
REMARK    7  A    between atoms: C_30  and  O_33
REMARK                            x       y       z     vdW  Elec       q    Type
REMARK                         _______ _______ _______ _____ _____    ______ ____
ROOT
ATOM      1  N   UNL     1      30.784  -6.457 -22.493  0.00  0.00    -0.242 NA
ATOM      2  C   UNL     1      32.870  -7.125 -23.518  0.00  0.00    +0.072 C 
ATOM      3  C   UNL     1      31.843  -7.290 -22.602  0.00  0.00    +0.103 C 
ATOM      4  C   UNL     1      31.731  -5.155 -24.297  0.00  0.00    +0.021 C 
ATOM      5  C   UNL     1      32.805  -6.035 -24.378  0.00  0.00    +0.008 C 
ATOM      6  C   UNL     1      30.756  -5.409 -23.345  0.00  0.00    +0.099 C 
ENDROOT
BRANCH   4   9
ATOM      7 CL   UNL     1      32.905  -2.854 -28.781  0.00  0.00    -0.081 Cl
ATOM      8  N   UNL     1      30.788  -1.786 -25.581  0.00  0.00    -0.241 NA
ATOM      9  C   UNL     1      31.635  -4.013 -25.175  0.00  0.00    +0.022 C 
ATOM     10  C   UNL     1      32.259  -4.010 -26.418  0.00  0.00    +0.015 C 
ATOM     11  C   UNL     1      30.918  -2.887 -24.807  0.00  0.00    +0.099 C 
ATOM     12  C   UNL     1      32.149  -2.896 -27.242  0.00  0.00    +0.077 C 
ATOM     13  C   UNL     1      31.408  -1.819 -26.781  0.00  0.00    +0.110 C 
ENDBRANCH   4   9
BRANCH   3  15
ATOM     14  N   UNL     1      31.420  -9.575 -22.187  0.00  0.00    -0.242 NA
ATOM     15  C   UNL     1      31.820  -8.394 -21.666  0.00  0.00    +0.099 C 
ATOM     16  C   UNL     1      32.188  -8.214 -20.342  0.00  0.00    +0.021 C 
ATOM     17  C   UNL     1      32.141  -9.318 -19.498  0.00  0.00    +0.003 C 
ATOM     18  C   UNL     1      31.386 -10.625 -21.337  0.00  0.00    +0.099 C 
ATOM     19  C   UNL     1      31.733 -10.550 -19.997  0.00  0.00    +0.021 C 
ENDBRANCH   3  15
BRANCH   2  22
ATOM     20  O   UNL     1      35.111  -7.717 -23.160  0.00  0.00    -0.270 OA
ATOM     21  N   UNL     1      33.755  -9.288 -24.196  0.00  0.00    -0.295 N 
ATOM     22  C   UNL     1      33.998  -8.042 -23.609  0.00  0.00    +0.248 C 
ATOM     23  H   UNL     1      32.849  -9.478 -24.530  0.00  0.00    +0.150 HD
BRANCH  21  24
ATOM     24  C   UNL     1      34.765 -10.313 -24.337  0.00  0.00    +0.145 C 
BRANCH  24  26
ATOM     25  N   UNL     1      33.862 -12.521 -23.875  0.00  0.00    -0.372 NA
ATOM     26  C   UNL     1      34.185 -11.610 -24.821  0.00  0.00    +0.114 C 
ATOM     27  C   UNL     1      34.012 -11.811 -26.181  0.00  0.00    +0.086 C 
ATOM     28  C   UNL     1      33.473 -13.024 -26.597  0.00  0.00    +0.024 C 
ATOM     29  C   UNL     1      33.129 -13.985 -25.654  0.00  0.00    +0.200 C 
ATOM     30  C   UNL     1      33.341 -13.687 -24.317  0.00  0.00    +0.312 C 
BRANCH  29  31
ATOM     31  O   UNL     1      32.603 -15.173 -26.044  0.00  0.00    -0.466 OA
ATOM     32  C   UNL     1      33.446 -16.323 -25.955  0.00  0.00    +0.253 C 
ENDBRANCH  29  31
BRANCH  30  33
ATOM     33  O   UNL     1      33.011 -14.610 -23.359  0.00  0.00    -0.446 OA
ATOM     34  C   UNL     1      32.556 -14.102 -22.111  0.00  0.00    +0.255 C 
ENDBRANCH  30  33
ENDBRANCH  24  26
ENDBRANCH  21  24
ENDBRANCH   2  22
TORSDOF 7
ENDMDL
MODEL 3
REMARK VINA RESULT:     -10.1      3.167      6.203
REMARK  Name = 44633765
REMARK  7 active torsions:
REMARK  status: ('A' for Active; 'I' for Inactive)
REMARK    1  A    between atoms: C_2  and  C_22
REMARK    2  A    between atoms: C_3  and  C_15
REMARK    3  A    between atoms: C_4  and  C_9
REMARK    4  A    between atoms: N_21  and  C_24
REMARK    5  A    between atoms: C_24  and  C_26
REMARK    6  A    between atoms: C_29  and  O_31
REMARK    7  A    between atoms: C_30  and  O_33
REMARK                            x       y       z     vdW  Elec       q    Type
REMARK                         _______ _______ _______ _____ _____    ______ ____
ROOT
ATOM      1  N   UNL     1      32.711 -23.473 -14.441  0.00  0.00    -0.242 NA
ATOM      2  C   UNL     1      32.904 -23.214 -16.837  0.00  0.00    +0.072 C 
ATOM      3  C   UNL     1      33.434 -23.472 -15.583  0.00  0.00    +0.103 C 
ATOM      4  C   UNL     1      30.767 -22.930 -15.772  0.00  0.00    +0.021 C 
ATOM      5  C   UNL     1      31.545 -22.939 -16.925  0.00  0.00    +0.008 C 
ATOM      6  C   UNL     1      31.393 -23.200 -14.566  0.00  0.00    +0.099 C 
ENDROOT
BRANCH   4   9
ATOM      7 CL   UNL     1      26.494 -22.048 -18.556  0.00  0.00    -0.081 Cl
ATOM      8  N   UNL     1      27.277 -22.247 -14.655  0.00  0.00    -0.241 NA
ATOM      9  C   UNL     1      29.352 -22.647 -15.830  0.00  0.00    +0.022 C 
ATOM     10  C   UNL     1      28.698 -22.504 -17.048  0.00  0.00    +0.015 C 
ATOM     11  C   UNL     1      28.603 -22.511 -14.672  0.00  0.00    +0.099 C 
ATOM     12  C   UNL     1      27.335 -22.232 -17.072  0.00  0.00    +0.077 C 
ATOM     13  C   UNL     1      26.676 -22.114 -15.859  0.00  0.00    +0.110 C 
ENDBRANCH   4   9
BRANCH   3  15
ATOM     14  N   UNL     1      35.670 -22.716 -15.533  0.00  0.00    -0.242 NA
ATOM     15  C   UNL     1      34.836 -23.771 -15.389  0.00  0.00    +0.099 C 
ATOM     16  C   UNL     1      35.257 -25.054 -15.080  0.00  0.00    +0.021 C 
ATOM     17  C   UNL     1      36.620 -25.270 -14.908  0.00  0.00    +0.003 C 
ATOM     18  C   UNL     1      36.987 -22.963 -15.359  0.00  0.00    +0.099 C 
ATOM     19  C   UNL     1      37.508 -24.209 -15.048  0.00  0.00    +0.021 C 
ENDBRANCH   3  15
BRANCH   2  22
ATOM     20  O   UNL     1      33.733 -24.222 -18.786  0.00  0.00    -0.270 OA
ATOM     21  N   UNL     1      34.427 -22.054 -18.340  0.00  0.00    -0.295 N 
ATOM     22  C   UNL     1      33.712 -23.221 -18.049  0.00  0.00    +0.248 C 
ATOM     23  H   UNL     1      34.363 -21.300 -17.711  0.00  0.00    +0.150 HD
BRANCH  21  24
ATOM     24  C   UNL     1      35.253 -21.898 -19.516  0.00  0.00    +0.145 C 
BRANCH  24  26
ATOM     25  N   UNL     1      35.930 -20.008 -20.884  0.00  0.00    -0.372 NA
ATOM     26  C   UNL     1      34.906 -20.657 -20.285  0.00  0.00    +0.114 C 
ATOM     27  C   UNL     1      33.585 -20.242 -20.344  0.00  0.00    +0.086 C 
ATOM     28  C   UNL     1      33.297 -19.087 -21.063  0.00  0.00    +0.024 C 
ATOM     29  C   UNL     1      34.323 -18.392 -21.693  0.00  0.00    +0.200 C 
ATOM     30  C   UNL     1      35.611 -18.890 -21.574  0.00  0.00    +0.312 C 
BRANCH  29  31
ATOM     31  O   UNL     1      34.057 -17.264 -22.399  0.00  0.00    -0.466 OA
ATOM     32  C   UNL     1      34.056 -16.030 -21.680  0.00  0.00    +0.253 C 
ENDBRANCH  29  31
BRANCH  30  33
ATOM     33  O   UNL     1      36.648 -18.234 -22.184  0.00  0.00    -0.446 OA
ATOM     34  C   UNL     1      37.951 -18.763 -21.978  0.00  0.00    +0.255 C 
ENDBRANCH  30  33
ENDBRANCH  24  26
ENDBRANCH  21  24
ENDBRANCH   2  22
TORSDOF 7
ENDMDL
MODEL 4
REMARK VINA RESULT:      -9.8      1.227      1.985
REMARK  Name = 44633765
REMARK  7 active torsions:
REMARK  status: ('A' for Active; 'I' for Inactive)
REMARK    1  A    between atoms: C_2  and  C_22
REMARK    2  A    between atoms: C_3  and  C_15
REMARK    3  A    between atoms: C_4  and  C_9
REMARK    4  A    between atoms: N_21  and  C_24
REMARK    5  A    between atoms: C_24  and  C_26
REMARK    6  A    between atoms: C_29  and  O_31
REMARK    7  A    between atoms: C_30  and  O_33
REMARK                            x       y       z     vdW  Elec       q    Type
REMARK                         _______ _______ _______ _____ _____    ______ ____
ROOT
ATOM      1  N   UNL     1      32.123 -24.090 -13.473  0.00  0.00    -0.242 NA
ATOM      2  C   UNL     1      32.997 -23.484 -15.644  0.00  0.00    +0.072 C 
ATOM      3  C   UNL     1      31.955 -23.723 -14.763  0.00  0.00    +0.103 C 
ATOM      4  C   UNL     1      34.510 -24.009 -13.850  0.00  0.00    +0.021 C 
ATOM      5  C   UNL     1      34.296 -23.632 -15.171  0.00  0.00    +0.008 C 
ATOM      6  C   UNL     1      33.399 -24.225 -13.049  0.00  0.00    +0.099 C 
ENDROOT
BRANCH   4   9
ATOM      7 CL   UNL     1      39.490 -25.198 -14.605  0.00  0.00    -0.081 Cl
ATOM      8  N   UNL     1      37.351 -24.072 -11.439  0.00  0.00    -0.241 NA
ATOM      9  C   UNL     1      35.846 -24.172 -13.328  0.00  0.00    +0.022 C 
ATOM     10  C   UNL     1      36.895 -24.565 -14.152  0.00  0.00    +0.015 C 
ATOM     11  C   UNL     1      36.124 -23.939 -11.991  0.00  0.00    +0.099 C 
ATOM     12  C   UNL     1      38.171 -24.713 -13.621  0.00  0.00    +0.077 C 
ATOM     13  C   UNL     1      38.345 -24.457 -12.270  0.00  0.00    +0.110 C 
ENDBRANCH   4   9
BRANCH   3  15
ATOM     14  N   UNL     1      30.053 -24.673 -15.789  0.00  0.00    -0.242 NA
ATOM     15  C   UNL     1      30.570 -23.594 -15.161  0.00  0.00    +0.099 C 
ATOM     16  C   UNL     1      29.857 -22.434 -14.899  0.00  0.00    +0.021 C 
ATOM     17  C   UNL     1      28.530 -22.378 -15.310  0.00  0.00    +0.003 C 
ATOM     18  C   UNL     1      28.761 -24.582 -16.174  0.00  0.00    +0.099 C 
ATOM     19  C   UNL     1      27.964 -23.469 -15.960  0.00  0.00    +0.021 C 
ENDBRANCH   3  15
BRANCH   2  22
ATOM     20  O   UNL     1      31.793 -22.405 -17.343  0.00  0.00    -0.270 OA
ATOM     21  N   UNL     1      33.744 -23.495 -17.961  0.00  0.00    -0.295 N 
ATOM     22  C   UNL     1      32.782 -23.089 -17.030  0.00  0.00    +0.248 C 
ATOM     23  H   UNL     1      34.503 -24.036 -17.641  0.00  0.00    +0.150 HD
BRANCH  21  24
ATOM     24  C   UNL     1      33.684 -23.163 -19.366  0.00  0.00    +0.145 C 
BRANCH  24  26
ATOM     25  N   UNL     1      33.982 -21.029 -20.489  0.00  0.00    -0.372 NA
ATOM     26  C   UNL     1      34.539 -21.975 -19.699  0.00  0.00    +0.114 C 
ATOM     27  C   UNL     1      35.828 -21.904 -19.197  0.00  0.00    +0.086 C 
ATOM     28  C   UNL     1      36.595 -20.791 -19.526  0.00  0.00    +0.024 C 
ATOM     29  C   UNL     1      36.057 -19.798 -20.336  0.00  0.00    +0.200 C 
ATOM     30  C   UNL     1      34.756 -19.962 -20.787  0.00  0.00    +0.312 C 
BRANCH  29  31
ATOM     31  O   UNL     1      36.792 -18.706 -20.665  0.00  0.00    -0.466 OA
ATOM     32  C   UNL     1      37.640 -18.811 -21.810  0.00  0.00    +0.253 C 
ENDBRANCH  29  31
BRANCH  30  33
ATOM     33  O   UNL     1      34.192 -19.002 -21.584  0.00  0.00    -0.446 OA
ATOM     34  C   UNL     1      34.324 -19.178 -22.989  0.00  0.00    +0.255 C 
ENDBRANCH  30  33
ENDBRANCH  24  26
ENDBRANCH  21  24
ENDBRANCH   2  22
TORSDOF 7
ENDMDL
MODEL 5
REMARK VINA RESULT:      -9.7      3.057      7.771
REMARK  Name = 44633765
REMARK  7 active torsions:
REMARK  status: ('A' for Active; 'I' for Inactive)
REMARK    1  A    between atoms: C_2  and  C_22
REMARK    2  A    between atoms: C_3  and  C_15
REMARK    3  A    between atoms: C_4  and  C_9
REMARK    4  A    between atoms: N_21  and  C_24
REMARK    5  A    between atoms: C_24  and  C_26
REMARK    6  A    between atoms: C_29  and  O_31
REMARK    7  A    between atoms: C_30  and  O_33
REMARK                            x       y       z     vdW  Elec       q    Type
REMARK                         _______ _______ _______ _____ _____    ______ ____
ROOT
ATOM      1  N   UNL     1      38.057 -22.255 -16.146  0.00  0.00    -0.242 NA
ATOM      2  C   UNL     1      35.851 -23.236 -16.011  0.00  0.00    +0.072 C 
ATOM      3  C   UNL     1      37.143 -23.051 -15.546  0.00  0.00    +0.103 C 
ATOM      4  C   UNL     1      36.384 -21.734 -17.813  0.00  0.00    +0.021 C 
ATOM      5  C   UNL     1      35.472 -22.561 -17.166  0.00  0.00    +0.008 C 
ATOM      6  C   UNL     1      37.652 -21.616 -17.267  0.00  0.00    +0.099 C 
ENDROOT
BRANCH   4   9
ATOM      7 CL   UNL     1      32.757 -20.131 -21.138  0.00  0.00    -0.081 Cl
ATOM      8  N   UNL     1      36.712 -19.706 -20.923  0.00  0.00    -0.241 NA
ATOM      9  C   UNL     1      36.022 -21.020 -19.014  0.00  0.00    +0.022 C 
ATOM     10  C   UNL     1      34.697 -20.942 -19.430  0.00  0.00    +0.015 C 
ATOM     11  C   UNL     1      36.983 -20.390 -19.788  0.00  0.00    +0.099 C 
ATOM     12  C   UNL     1      34.379 -20.248 -20.592  0.00  0.00    +0.077 C 
ATOM     13  C   UNL     1      35.414 -19.653 -21.296  0.00  0.00    +0.110 C 
ENDBRANCH   4   9
BRANCH   3  15
ATOM     14  N   UNL     1      37.334 -23.078 -13.194  0.00  0.00    -0.242 NA
ATOM     15  C   UNL     1      37.630 -23.707 -14.353  0.00  0.00    +0.099 C 
ATOM     16  C   UNL     1      38.344 -24.892 -14.431  0.00  0.00    +0.021 C 
ATOM     17  C   UNL     1      38.783 -25.468 -13.244  0.00  0.00    +0.003 C 
ATOM     18  C   UNL     1      37.777 -23.667 -12.061  0.00  0.00    +0.099 C 
ATOM     19  C   UNL     1      38.498 -24.850 -12.032  0.00  0.00    +0.021 C 
ENDBRANCH   3  15
BRANCH   2  22
ATOM     20  O   UNL     1      34.784 -25.296 -15.667  0.00  0.00    -0.270 OA
ATOM     21  N   UNL     1      34.128 -23.528 -14.318  0.00  0.00    -0.295 N 
ATOM     22  C   UNL     1      34.890 -24.102 -15.341  0.00  0.00    +0.248 C 
ATOM     23  H   UNL     1      34.264 -22.574 -14.113  0.00  0.00    +0.150 HD
BRANCH  21  24
ATOM     24  C   UNL     1      33.151 -24.261 -13.544  0.00  0.00    +0.145 C 
BRANCH  24  26
ATOM     25  N   UNL     1      31.660 -23.458 -15.286  0.00  0.00    -0.372 NA
ATOM     26  C   UNL     1      31.784 -24.196 -14.160  0.00  0.00    +0.114 C 
ATOM     27  C   UNL     1      30.737 -24.878 -13.562  0.00  0.00    +0.086 C 
ATOM     28  C   UNL     1      29.482 -24.796 -14.157  0.00  0.00    +0.024 C 
ATOM     29  C   UNL     1      29.316 -24.046 -15.315  0.00  0.00    +0.200 C 
ATOM     30  C   UNL     1      30.427 -23.402 -15.836  0.00  0.00    +0.312 C 
BRANCH  29  31
ATOM     31  O   UNL     1      28.098 -23.957 -15.907  0.00  0.00    -0.466 OA
ATOM     32  C   UNL     1      27.447 -22.686 -15.875  0.00  0.00    +0.253 C 
ENDBRANCH  29  31
BRANCH  30  33
ATOM     33  O   UNL     1      30.301 -22.656 -16.979  0.00  0.00    -0.446 OA
ATOM     34  C   UNL     1      31.506 -22.275 -17.630  0.00  0.00    +0.255 C 
ENDBRANCH  30  33
ENDBRANCH  24  26
ENDBRANCH  21  24
ENDBRANCH   2  22
TORSDOF 7
ENDMDL
MODEL 6
REMARK VINA RESULT:      -9.6      3.681      8.619
REMARK  Name = 44633765
REMARK  7 active torsions:
REMARK  status: ('A' for Active; 'I' for Inactive)
REMARK    1  A    between atoms: C_2  and  C_22
REMARK    2  A    between atoms: C_3  and  C_15
REMARK    3  A    between atoms: C_4  and  C_9
REMARK    4  A    between atoms: N_21  and  C_24
REMARK    5  A    between atoms: C_24  and  C_26
REMARK    6  A    between atoms: C_29  and  O_31
REMARK    7  A    between atoms: C_30  and  O_33
REMARK                            x       y       z     vdW  Elec       q    Type
REMARK                         _______ _______ _______ _____ _____    ______ ____
ROOT
ATOM      1  N   UNL     1      32.738 -20.634 -20.304  0.00  0.00    -0.242 NA
ATOM      2  C   UNL     1      35.124 -20.791 -19.942  0.00  0.00    +0.072 C 
ATOM      3  C   UNL     1      33.817 -21.188 -19.706  0.00  0.00    +0.103 C 
ATOM      4  C   UNL     1      34.252 -19.164 -21.484  0.00  0.00    +0.021 C 
ATOM      5  C   UNL     1      35.336 -19.760 -20.849  0.00  0.00    +0.008 C 
ATOM      6  C   UNL     1      32.985 -19.634 -21.179  0.00  0.00    +0.099 C 
ENDROOT
BRANCH   4   9
ATOM      7 CL   UNL     1      34.399 -14.097 -22.527  0.00  0.00    -0.081 Cl
ATOM      8  N   UNL     1      34.920 -17.397 -24.697  0.00  0.00    -0.241 NA
ATOM      9  C   UNL     1      34.440 -18.091 -22.431  0.00  0.00    +0.022 C 
ATOM     10  C   UNL     1      34.335 -16.761 -22.039  0.00  0.00    +0.015 C 
ATOM     11  C   UNL     1      34.732 -18.353 -23.760  0.00  0.00    +0.099 C 
ATOM     12  C   UNL     1      34.522 -15.749 -22.973  0.00  0.00    +0.077 C 
ATOM     13  C   UNL     1      34.809 -16.117 -24.278  0.00  0.00    +0.110 C 
ENDBRANCH   4   9
BRANCH   3  15
ATOM     14  N   UNL     1      34.177 -23.403 -18.973  0.00  0.00    -0.242 NA
ATOM     15  C   UNL     1      33.494 -22.252 -18.781  0.00  0.00    +0.099 C 
ATOM     16  C   UNL     1      32.549 -22.069 -17.785  0.00  0.00    +0.021 C 
ATOM     17  C   UNL     1      32.287 -23.135 -16.931  0.00  0.00    +0.003 C 
ATOM     18  C   UNL     1      33.896 -24.417 -18.125  0.00  0.00    +0.099 C 
ATOM     19  C   UNL     1      32.969 -24.335 -17.098  0.00  0.00    +0.021 C 
ENDBRANCH   3  15
BRANCH   2  22
ATOM     20  O   UNL     1      37.130 -22.006 -19.944  0.00  0.00    -0.270 OA
ATOM     21  N   UNL     1      36.341 -21.272 -17.890  0.00  0.00    -0.295 N 
ATOM     22  C   UNL     1      36.265 -21.408 -19.280  0.00  0.00    +0.248 C 
ATOM     23  H   UNL     1      35.619 -20.786 -17.429  0.00  0.00    +0.150 HD
BRANCH  21  24
ATOM     24  C   UNL     1      37.422 -21.807 -17.094  0.00  0.00    +0.145 C 
BRANCH  24  26
ATOM     25  N   UNL     1      37.807 -23.441 -15.338  0.00  0.00    -0.372 NA
ATOM     26  C   UNL     1      36.919 -22.611 -15.931  0.00  0.00    +0.114 C 
ATOM     27  C   UNL     1      35.601 -22.472 -15.529  0.00  0.00    +0.086 C 
ATOM     28  C   UNL     1      35.166 -23.233 -14.449  0.00  0.00    +0.024 C 
ATOM     29  C   UNL     1      36.050 -24.097 -13.813  0.00  0.00    +0.200 C 
ATOM     30  C   UNL     1      37.349 -24.163 -14.291  0.00  0.00    +0.312 C 
BRANCH  29  31
ATOM     31  O   UNL     1      35.640 -24.845 -12.758  0.00  0.00    -0.466 OA
ATOM     32  C   UNL     1      35.668 -24.228 -11.470  0.00  0.00    +0.253 C 
ENDBRANCH  29  31
BRANCH  30  33
ATOM     33  O   UNL     1      38.248 -25.002 -13.687  0.00  0.00    -0.446 OA
ATOM     34  C   UNL     1      39.404 -25.349 -14.439  0.00  0.00    +0.255 C 
ENDBRANCH  30  33
ENDBRANCH  24  26
ENDBRANCH  21  24
ENDBRANCH   2  22
TORSDOF 7
ENDMDL
MODEL 7
REMARK VINA RESULT:      -9.4     12.029     16.612
REMARK  Name = 44633765
REMARK  7 active torsions:
REMARK  status: ('A' for Active; 'I' for Inactive)
REMARK    1  A    between atoms: C_2  and  C_22
REMARK    2  A    between atoms: C_3  and  C_15
REMARK    3  A    between atoms: C_4  and  C_9
REMARK    4  A    between atoms: N_21  and  C_24
REMARK    5  A    between atoms: C_24  and  C_26
REMARK    6  A    between atoms: C_29  and  O_31
REMARK    7  A    between atoms: C_30  and  O_33
REMARK                            x       y       z     vdW  Elec       q    Type
REMARK                         _______ _______ _______ _____ _____    ______ ____
ROOT
ATOM      1  N   UNL     1      31.754 -11.046 -22.415  0.00  0.00    -0.242 NA
ATOM      2  C   UNL     1      33.637 -10.152 -23.640  0.00  0.00    +0.072 C 
ATOM      3  C   UNL     1      32.557 -10.022 -22.783  0.00  0.00    +0.103 C 
ATOM      4  C   UNL     1      33.108 -12.493 -23.801  0.00  0.00    +0.021 C 
ATOM      5  C   UNL     1      33.911 -11.415 -24.154  0.00  0.00    +0.008 C 
ATOM      6  C   UNL     1      32.051 -12.258 -22.936  0.00  0.00    +0.099 C 
ENDROOT
BRANCH   4   9
ATOM      7 CL   UNL     1      35.179 -17.199 -23.209  0.00  0.00    -0.081 Cl
ATOM      8  N   UNL     1      33.121 -15.414 -26.116  0.00  0.00    -0.241 NA
ATOM      9  C   UNL     1      33.366 -13.816 -24.318  0.00  0.00    +0.022 C 
ATOM     10  C   UNL     1      34.075 -14.752 -23.573  0.00  0.00    +0.015 C 
ATOM     11  C   UNL     1      32.914 -14.193 -25.572  0.00  0.00    +0.099 C 
ATOM     12  C   UNL     1      34.307 -16.018 -24.098  0.00  0.00    +0.077 C 
ATOM     13  C   UNL     1      33.814 -16.297 -25.362  0.00  0.00    +0.110 C 
ENDBRANCH   4   9
BRANCH   3  15
ATOM     14  N   UNL     1      31.324  -8.014 -22.923  0.00  0.00    -0.242 NA
ATOM     15  C   UNL     1      32.193  -8.751 -22.195  0.00  0.00    +0.099 C 
ATOM     16  C   UNL     1      32.716  -8.353 -20.976  0.00  0.00    +0.021 C 
ATOM     17  C   UNL     1      32.323  -7.118 -20.470  0.00  0.00    +0.003 C 
ATOM     18  C   UNL     1      30.965  -6.820 -22.401  0.00  0.00    +0.099 C 
ATOM     19  C   UNL     1      31.431  -6.331 -21.190  0.00  0.00    +0.021 C 
ENDBRANCH   3  15
BRANCH   2  22
ATOM     20  O   UNL     1      35.720  -9.147 -24.029  0.00  0.00    -0.270 OA
ATOM     21  N   UNL     1      33.836  -7.841 -24.377  0.00  0.00    -0.295 N 
ATOM     22  C   UNL     1      34.484  -9.028 -24.017  0.00  0.00    +0.248 C 
ATOM     23  H   UNL     1      32.852  -7.819 -24.344  0.00  0.00    +0.150 HD
BRANCH  21  24
ATOM     24  C   UNL     1      34.534  -6.648 -24.797  0.00  0.00    +0.145 C 
BRANCH  24  26
ATOM     25  N   UNL     1      32.584  -5.205 -24.661  0.00  0.00    -0.372 NA
ATOM     26  C   UNL     1      33.609  -5.647 -25.425  0.00  0.00    +0.114 C 
ATOM     27  C   UNL     1      33.838  -5.234 -26.727  0.00  0.00    +0.086 C 
ATOM     28  C   UNL     1      32.961  -4.307 -27.281  0.00  0.00    +0.024 C 
ATOM     29  C   UNL     1      31.896  -3.829 -26.526  0.00  0.00    +0.200 C 
ATOM     30  C   UNL     1      31.753  -4.305 -25.232  0.00  0.00    +0.312 C 
BRANCH  29  31
ATOM     31  O   UNL     1      31.032  -2.925 -27.052  0.00  0.00    -0.466 OA
ATOM     32  C   UNL     1      31.439  -2.250 -28.243  0.00  0.00    +0.253 C 
ENDBRANCH  29  31
BRANCH  30  33
ATOM     33  O   UNL     1      30.717  -3.854 -24.458  0.00  0.00    -0.446 OA
ATOM     34  C   UNL     1      31.062  -3.214 -23.235  0.00  0.00    +0.255 C 
ENDBRANCH  30  33
ENDBRANCH  24  26
ENDBRANCH  21  24
ENDBRANCH   2  22
TORSDOF 7
ENDMDL
MODEL 8
REMARK VINA RESULT:      -9.3      7.983     12.294
REMARK  Name = 44633765
REMARK  7 active torsions:
REMARK  status: ('A' for Active; 'I' for Inactive)
REMARK    1  A    between atoms: C_2  and  C_22
REMARK    2  A    between atoms: C_3  and  C_15
REMARK    3  A    between atoms: C_4  and  C_9
REMARK    4  A    between atoms: N_21  and  C_24
REMARK    5  A    between atoms: C_24  and  C_26
REMARK    6  A    between atoms: C_29  and  O_31
REMARK    7  A    between atoms: C_30  and  O_33
REMARK                            x       y       z     vdW  Elec       q    Type
REMARK                         _______ _______ _______ _____ _____    ______ ____
ROOT
ATOM      1  N   UNL     1      35.029 -15.319 -23.813  0.00  0.00    -0.242 NA
ATOM      2  C   UNL     1      33.451 -14.731 -22.078  0.00  0.00    +0.072 C 
ATOM      3  C   UNL     1      34.142 -14.468 -23.249  0.00  0.00    +0.103 C 
ATOM      4  C   UNL     1      34.591 -16.847 -21.991  0.00  0.00    +0.021 C 
ATOM      5  C   UNL     1      33.685 -15.945 -21.443  0.00  0.00    +0.008 C 
ATOM      6  C   UNL     1      35.231 -16.489 -23.167  0.00  0.00    +0.099 C 
ENDROOT
BRANCH   4   9
ATOM      7 CL   UNL     1      32.855 -21.280 -19.960  0.00  0.00    -0.081 Cl
ATOM      8  N   UNL     1      36.470 -19.688 -20.478  0.00  0.00    -0.241 NA
ATOM      9  C   UNL     1      34.856 -18.116 -21.355  0.00  0.00    +0.022 C 
ATOM     10  C   UNL     1      33.820 -18.977 -21.011  0.00  0.00    +0.015 C 
ATOM     11  C   UNL     1      36.152 -18.515 -21.071  0.00  0.00    +0.099 C 
ATOM     12  C   UNL     1      34.107 -20.193 -20.400  0.00  0.00    +0.077 C 
ATOM     13  C   UNL     1      35.436 -20.498 -20.158  0.00  0.00    +0.110 C 
ENDBRANCH   4   9
BRANCH   3  15
ATOM     14  N   UNL     1      34.338 -12.117 -23.320  0.00  0.00    -0.242 NA
ATOM     15  C   UNL     1      33.965 -13.234 -23.984  0.00  0.00    +0.099 C 
ATOM     16  C   UNL     1      33.450 -13.237 -25.270  0.00  0.00    +0.021 C 
ATOM     17  C   UNL     1      33.307 -12.014 -25.917  0.00  0.00    +0.003 C 
ATOM     18  C   UNL     1      34.184 -10.948 -23.980  0.00  0.00    +0.099 C 
ATOM     19  C   UNL     1      33.678 -10.843 -25.266  0.00  0.00    +0.021 C 
ENDBRANCH   3  15
BRANCH   2  22
ATOM     20  O   UNL     1      32.457 -13.622 -20.266  0.00  0.00    -0.270 OA
ATOM     21  N   UNL     1      31.679 -13.092 -22.385  0.00  0.00    -0.295 N 
ATOM     22  C   UNL     1      32.501 -13.792 -21.496  0.00  0.00    +0.248 C 
ATOM     23  H   UNL     1      31.769 -13.277 -23.348  0.00  0.00    +0.150 HD
BRANCH  21  24
ATOM     24  C   UNL     1      30.704 -12.110 -21.965  0.00  0.00    +0.145 C 
BRANCH  24  26
ATOM     25  N   UNL     1      31.427  -9.977 -22.877  0.00  0.00    -0.372 NA
ATOM     26  C   UNL     1      31.320 -10.754 -21.775  0.00  0.00    +0.114 C 
ATOM     27  C   UNL     1      31.741 -10.371 -20.512  0.00  0.00    +0.086 C 
ATOM     28  C   UNL     1      32.308  -9.109 -20.370  0.00  0.00    +0.024 C 
ATOM     29  C   UNL     1      32.435  -8.281 -21.480  0.00  0.00    +0.200 C 
ATOM     30  C   UNL     1      31.982  -8.758 -22.700  0.00  0.00    +0.312 C 
BRANCH  29  31
ATOM     31  O   UNL     1      32.987  -7.047 -21.357  0.00  0.00    -0.466 OA
ATOM     32  C   UNL     1      32.116  -5.978 -20.985  0.00  0.00    +0.253 C 
ENDBRANCH  29  31
BRANCH  30  33
ATOM     33  O   UNL     1      32.089  -7.968 -23.815  0.00  0.00    -0.446 OA
ATOM     34  C   UNL     1      30.909  -7.298 -24.240  0.00  0.00    +0.255 C 
ENDBRANCH  30  33
ENDBRANCH  24  26
ENDBRANCH  21  24
ENDBRANCH   2  22
TORSDOF 7
ENDMDL
MODEL 9
REMARK VINA RESULT:      -9.2      2.718      6.067
REMARK  Name = 44633765
REMARK  7 active torsions:
REMARK  status: ('A' for Active; 'I' for Inactive)
REMARK    1  A    between atoms: C_2  and  C_22
REMARK    2  A    between atoms: C_3  and  C_15
REMARK    3  A    between atoms: C_4  and  C_9
REMARK    4  A    between atoms: N_21  and  C_24
REMARK    5  A    between atoms: C_24  and  C_26
REMARK    6  A    between atoms: C_29  and  O_31
REMARK    7  A    between atoms: C_30  and  O_33
REMARK                            x       y       z     vdW  Elec       q    Type
REMARK                         _______ _______ _______ _____ _____    ______ ____
ROOT
ATOM      1  N   UNL     1      33.934 -24.709 -13.016  0.00  0.00    -0.242 NA
ATOM      2  C   UNL     1      34.516 -23.358 -14.935  0.00  0.00    +0.072 C 
ATOM      3  C   UNL     1      34.833 -24.033 -13.767  0.00  0.00    +0.103 C 
ATOM      4  C   UNL     1      32.240 -24.064 -14.615  0.00  0.00    +0.021 C 
ATOM      5  C   UNL     1      33.193 -23.379 -15.360  0.00  0.00    +0.008 C 
ATOM      6  C   UNL     1      32.658 -24.707 -13.461  0.00  0.00    +0.099 C 
ENDROOT
BRANCH   4   9
ATOM      7 CL   UNL     1      28.265 -21.913 -17.137  0.00  0.00    -0.081 Cl
ATOM      8  N   UNL     1      28.734 -25.260 -15.028  0.00  0.00    -0.241 NA
ATOM      9  C   UNL     1      30.857 -24.104 -15.030  0.00  0.00    +0.022 C 
ATOM     10  C   UNL     1      30.310 -23.085 -15.802  0.00  0.00    +0.015 C 
ATOM     11  C   UNL     1      30.035 -25.160 -14.674  0.00  0.00    +0.099 C 
ATOM     12  C   UNL     1      28.976 -23.152 -16.187  0.00  0.00    +0.077 C 
ATOM     13  C   UNL     1      28.237 -24.250 -15.777  0.00  0.00    +0.110 C 
ENDBRANCH   4   9
BRANCH   3  15
ATOM     14  N   UNL     1      36.994 -24.978 -13.826  0.00  0.00    -0.242 NA
ATOM     15  C   UNL     1      36.181 -24.070 -13.243  0.00  0.00    +0.099 C 
ATOM     16  C   UNL     1      36.573 -23.222 -12.220  0.00  0.00    +0.021 C 
ATOM     17  C   UNL     1      37.884 -23.313 -11.765  0.00  0.00    +0.003 C 
ATOM     18  C   UNL     1      38.261 -25.038 -13.358  0.00  0.00    +0.099 C 
ATOM     19  C   UNL     1      38.750 -24.236 -12.340  0.00  0.00    +0.021 C 
ENDBRANCH   3  15
BRANCH   2  22
ATOM     20  O   UNL     1      36.408 -21.990 -15.158  0.00  0.00    -0.270 OA
ATOM     21  N   UNL     1      35.406 -22.735 -17.113  0.00  0.00    -0.295 N 
ATOM     22  C   UNL     1      35.509 -22.637 -15.721  0.00  0.00    +0.248 C 
ATOM     23  H   UNL     1      34.668 -23.265 -17.490  0.00  0.00    +0.150 HD
BRANCH  21  24
ATOM     24  C   UNL     1      36.327 -22.098 -18.026  0.00  0.00    +0.145 C 
BRANCH  24  26
ATOM     25  N   UNL     1      36.308 -20.304 -19.665  0.00  0.00    -0.372 NA
ATOM     26  C   UNL     1      35.613 -21.309 -19.085  0.00  0.00    +0.114 C 
ATOM     27  C   UNL     1      34.307 -21.635 -19.410  0.00  0.00    +0.086 C 
ATOM     28  C   UNL     1      33.673 -20.884 -20.394  0.00  0.00    +0.024 C 
ATOM     29  C   UNL     1      34.355 -19.843 -21.013  0.00  0.00    +0.200 C 
ATOM     30  C   UNL     1      35.660 -19.596 -20.616  0.00  0.00    +0.312 C 
BRANCH  29  31
ATOM     31  O   UNL     1      33.750 -19.101 -21.974  0.00  0.00    -0.466 OA
ATOM     32  C   UNL     1      34.277 -19.193 -23.299  0.00  0.00    +0.253 C 
ENDBRANCH  29  31
BRANCH  30  33
ATOM     33  O   UNL     1      36.364 -18.580 -21.207  0.00  0.00    -0.446 OA
ATOM     34  C   UNL     1      37.616 -18.922 -21.789  0.00  0.00    +0.255 C 
ENDBRANCH  30  33
ENDBRANCH  24  26
ENDBRANCH  21  24
ENDBRANCH   2  22
TORSDOF 7
ENDMDL
