MODEL 1
REMARK VINA RESULT:      -9.9      0.000      0.000
REMARK  Name = 87055263
REMARK  9 active torsions:
REMARK  status: ('A' for Active; 'I' for Inactive)
REMARK    1  A    between atoms: C_2  and  C_12
REMARK    2  A    between atoms: C_3  and  C_28
REMARK    3  A    between atoms: C_10  and  O_36
REMARK    4  A    between atoms: C_13  and  O_18
REMARK    5  A    between atoms: O_18  and  C_19
REMARK    6  A    between atoms: C_19  and  C_20
REMARK    7  A    between atoms: C_20  and  N_21
REMARK    8  A    between atoms: C_22  and  C_27
REMARK    9  A    between atoms: C_31  and  O_34
REMARK                            x       y       z     vdW  Elec       q    Type
REMARK                         _______ _______ _______ _____ _____    ______ ____
ROOT
ATOM      1  O   UNL     1      31.771 -23.723 -17.676  0.00  0.00    -0.470 OA
ATOM      2  C   UNL     1      33.164 -23.685 -17.330  0.00  0.00    +0.139 C 
ATOM      3  C   UNL     1      33.490 -23.465 -15.864  0.00  0.00    +0.030 C 
ATOM      4  C   UNL     1      32.559 -23.109 -14.954  0.00  0.00    -0.019 C 
ATOM      5  C   UNL     1      31.184 -22.900 -15.457  0.00  0.00    +0.021 C 
ATOM      6  C   UNL     1      30.869 -23.225 -16.781  0.00  0.00    +0.210 C 
ATOM      7  C   UNL     1      32.834 -22.906 -13.488  0.00  0.00    +0.031 C 
ATOM      8  C   UNL     1      30.154 -22.392 -14.645  0.00  0.00    +0.036 C 
ATOM      9  C   UNL     1      29.567 -23.067 -17.273  0.00  0.00    +0.024 C 
ATOM     10  C   UNL     1      28.857 -22.226 -15.138  0.00  0.00    +0.133 C 
ATOM     11  C   UNL     1      28.562 -22.565 -16.453  0.00  0.00    +0.036 C 
ENDROOT
BRANCH   2  12
ATOM     12  C   UNL     1      33.788 -22.638 -18.200  0.00  0.00    +0.034 C 
ATOM     13  C   UNL     1      34.952 -20.688 -19.820  0.00  0.00    +0.138 C 
ATOM     14  C   UNL     1      35.176 -22.509 -18.249  0.00  0.00    +0.006 C 
ATOM     15  C   UNL     1      32.982 -21.792 -18.962  0.00  0.00    +0.006 C 
ATOM     16  C   UNL     1      35.758 -21.533 -19.058  0.00  0.00    +0.037 C 
ATOM     17  C   UNL     1      33.563 -20.817 -19.772  0.00  0.00    +0.037 C 
BRANCH  13  18
ATOM     18  O   UNL     1      35.519 -19.735 -20.609  0.00  0.00    -0.478 OA
BRANCH  18  19
ATOM     19  C   UNL     1      34.639 -18.944 -21.407  0.00  0.00    +0.183 C 
BRANCH  19  20
ATOM     20  C   UNL     1      35.047 -19.077 -22.865  0.00  0.00    -0.029 C 
BRANCH  20  21
ATOM     21  N   UNL     1      35.599 -17.823 -23.363  0.00  0.00    +0.389 N 
ATOM     22  C   UNL     1      34.928 -15.886 -23.813  0.00  0.00    -0.006 C 
ATOM     23  C   UNL     1      35.166 -16.686 -22.509  0.00  0.00    -0.076 C 
ATOM     24  C   UNL     1      34.760 -17.282 -24.462  0.00  0.00    -0.076 C 
ATOM     25  H   UNL     1      36.586 -18.038 -23.503  0.00  0.00    -0.080 HD
BRANCH  22  27
ATOM     26  F   UNL     1      34.181 -13.683 -23.874  0.00  0.00    -0.235 F 
ATOM     27  C   UNL     1      33.727 -14.964 -23.845  0.00  0.00    +0.189 C 
ENDBRANCH  22  27
ENDBRANCH  20  21
ENDBRANCH  19  20
ENDBRANCH  18  19
ENDBRANCH  13  18
ENDBRANCH   2  12
BRANCH   3  28
ATOM     28  C   UNL     1      34.878 -23.713 -15.487  0.00  0.00    +0.006 C 
ATOM     29  C   UNL     1      35.345 -25.022 -15.363  0.00  0.00    +0.037 C 
ATOM     30  C   UNL     1      35.738 -22.641 -15.248  0.00  0.00    +0.000 C 
ATOM     31  C   UNL     1      36.671 -25.258 -15.002  0.00  0.00    +0.134 C 
ATOM     32  C   UNL     1      37.064 -22.877 -14.887  0.00  0.00    +0.003 C 
ATOM     33  C   UNL     1      37.531 -24.186 -14.765  0.00  0.00    +0.037 C 
BRANCH  31  34
ATOM     34  O   UNL     1      37.128 -26.535 -14.883  0.00  0.00    -0.506 OA
ATOM     35  H   UNL     1      37.670 -26.903 -15.553  0.00  0.00    +0.292 HD
ENDBRANCH  31  34
ENDBRANCH   3  28
BRANCH  10  36
ATOM     36  O   UNL     1      27.880 -21.733 -14.328  0.00  0.00    -0.506 OA
ATOM     37  H   UNL     1      27.070 -21.441 -14.696  0.00  0.00    +0.292 HD
ENDBRANCH  10  36
TORSDOF 9
ENDMDL
MODEL 2
REMARK VINA RESULT:      -9.4      0.854      1.439
REMARK  Name = 87055263
REMARK  9 active torsions:
REMARK  status: ('A' for Active; 'I' for Inactive)
REMARK    1  A    between atoms: C_2  and  C_12
REMARK    2  A    between atoms: C_3  and  C_28
REMARK    3  A    between atoms: C_10  and  O_36
REMARK    4  A    between atoms: C_13  and  O_18
REMARK    5  A    between atoms: O_18  and  C_19
REMARK    6  A    between atoms: C_19  and  C_20
REMARK    7  A    between atoms: C_20  and  N_21
REMARK    8  A    between atoms: C_22  and  C_27
REMARK    9  A    between atoms: C_31  and  O_34
REMARK                            x       y       z     vdW  Elec       q    Type
REMARK                         _______ _______ _______ _____ _____    ______ ____
ROOT
ATOM      1  O   UNL     1      31.592 -23.740 -17.705  0.00  0.00    -0.470 OA
ATOM      2  C   UNL     1      32.996 -23.695 -17.407  0.00  0.00    +0.139 C 
ATOM      3  C   UNL     1      33.371 -23.456 -15.955  0.00  0.00    +0.030 C 
ATOM      4  C   UNL     1      32.470 -23.092 -15.019  0.00  0.00    -0.019 C 
ATOM      5  C   UNL     1      31.078 -22.892 -15.477  0.00  0.00    +0.021 C 
ATOM      6  C   UNL     1      30.719 -23.233 -16.785  0.00  0.00    +0.210 C 
ATOM      7  C   UNL     1      32.795 -22.872 -13.564  0.00  0.00    +0.031 C 
ATOM      8  C   UNL     1      30.075 -22.378 -14.636  0.00  0.00    +0.036 C 
ATOM      9  C   UNL     1      29.401 -23.084 -17.235  0.00  0.00    +0.024 C 
ATOM     10  C   UNL     1      28.762 -22.220 -15.087  0.00  0.00    +0.133 C 
ATOM     11  C   UNL     1      28.423 -22.576 -16.386  0.00  0.00    +0.036 C 
ENDROOT
BRANCH   2  12
ATOM     12  C   UNL     1      33.587 -22.656 -18.310  0.00  0.00    +0.034 C 
ATOM     13  C   UNL     1      34.686 -20.721 -19.991  0.00  0.00    +0.138 C 
ATOM     14  C   UNL     1      32.760 -21.713 -18.922  0.00  0.00    +0.006 C 
ATOM     15  C   UNL     1      34.963 -22.630 -18.537  0.00  0.00    +0.006 C 
ATOM     16  C   UNL     1      33.310 -20.746 -19.763  0.00  0.00    +0.037 C 
ATOM     17  C   UNL     1      35.512 -21.663 -19.378  0.00  0.00    +0.037 C 
BRANCH  13  18
ATOM     18  O   UNL     1      35.222 -19.777 -20.812  0.00  0.00    -0.478 OA
BRANCH  18  19
ATOM     19  C   UNL     1      34.328 -19.101 -21.696  0.00  0.00    +0.183 C 
BRANCH  19  20
ATOM     20  C   UNL     1      34.950 -19.057 -23.082  0.00  0.00    -0.029 C 
BRANCH  20  21
ATOM     21  N   UNL     1      35.540 -17.749 -23.342  0.00  0.00    +0.389 N 
ATOM     22  C   UNL     1      34.897 -15.774 -23.644  0.00  0.00    -0.006 C 
ATOM     23  C   UNL     1      34.969 -16.727 -22.426  0.00  0.00    -0.076 C 
ATOM     24  C   UNL     1      34.850 -17.080 -24.474  0.00  0.00    -0.076 C 
ATOM     25  H   UNL     1      36.541 -17.942 -23.367  0.00  0.00    -0.080 HD
BRANCH  22  27
ATOM     26  F   UNL     1      34.142 -13.592 -23.931  0.00  0.00    -0.235 F 
ATOM     27  C   UNL     1      33.694 -14.859 -23.731  0.00  0.00    +0.189 C 
ENDBRANCH  22  27
ENDBRANCH  20  21
ENDBRANCH  19  20
ENDBRANCH  18  19
ENDBRANCH  13  18
ENDBRANCH   2  12
BRANCH   3  28
ATOM     28  C   UNL     1      34.771 -23.696 -15.623  0.00  0.00    +0.006 C 
ATOM     29  C   UNL     1      35.700 -22.661 -15.722  0.00  0.00    +0.037 C 
ATOM     30  C   UNL     1      35.182 -24.963 -15.207  0.00  0.00    +0.000 C 
ATOM     31  C   UNL     1      37.039 -22.891 -15.405  0.00  0.00    +0.134 C 
ATOM     32  C   UNL     1      36.521 -25.194 -14.890  0.00  0.00    +0.003 C 
ATOM     33  C   UNL     1      37.449 -24.158 -14.988  0.00  0.00    +0.037 C 
BRANCH  31  34
ATOM     34  O   UNL     1      37.945 -21.880 -15.500  0.00  0.00    -0.506 OA
ATOM     35  H   UNL     1      37.953 -21.197 -14.859  0.00  0.00    +0.292 HD
ENDBRANCH  31  34
ENDBRANCH   3  28
BRANCH  10  36
ATOM     36  O   UNL     1      27.811 -21.720 -14.249  0.00  0.00    -0.506 OA
ATOM     37  H   UNL     1      27.218 -21.063 -14.554  0.00  0.00    +0.292 HD
ENDBRANCH  10  36
TORSDOF 9
ENDMDL
MODEL 3
REMARK VINA RESULT:      -8.5      6.445     12.086
REMARK  Name = 87055263
REMARK  9 active torsions:
REMARK  status: ('A' for Active; 'I' for Inactive)
REMARK    1  A    between atoms: C_2  and  C_12
REMARK    2  A    between atoms: C_3  and  C_28
REMARK    3  A    between atoms: C_10  and  O_36
REMARK    4  A    between atoms: C_13  and  O_18
REMARK    5  A    between atoms: O_18  and  C_19
REMARK    6  A    between atoms: C_19  and  C_20
REMARK    7  A    between atoms: C_20  and  N_21
REMARK    8  A    between atoms: C_22  and  C_27
REMARK    9  A    between atoms: C_31  and  O_34
REMARK                            x       y       z     vdW  Elec       q    Type
REMARK                         _______ _______ _______ _____ _____    ______ ____
ROOT
ATOM      1  O   UNL     1      32.459 -13.540 -24.680  0.00  0.00    -0.470 OA
ATOM      2  C   UNL     1      32.291 -13.116 -23.319  0.00  0.00    +0.139 C 
ATOM      3  C   UNL     1      32.758 -11.710 -22.987  0.00  0.00    +0.030 C 
ATOM      4  C   UNL     1      33.485 -10.961 -23.842  0.00  0.00    -0.019 C 
ATOM      5  C   UNL     1      33.851 -11.589 -25.131  0.00  0.00    +0.021 C 
ATOM      6  C   UNL     1      33.312 -12.833 -25.477  0.00  0.00    +0.210 C 
ATOM      7  C   UNL     1      33.946  -9.555 -23.564  0.00  0.00    +0.031 C 
ATOM      8  C   UNL     1      34.721 -10.974 -26.049  0.00  0.00    +0.036 C 
ATOM      9  C   UNL     1      33.617 -13.435 -26.705  0.00  0.00    +0.024 C 
ATOM     10  C   UNL     1      35.032 -11.578 -27.269  0.00  0.00    +0.133 C 
ATOM     11  C   UNL     1      34.478 -12.809 -27.600  0.00  0.00    +0.036 C 
ENDROOT
BRANCH   2  12
ATOM     12  C   UNL     1      32.974 -14.143 -22.468  0.00  0.00    +0.034 C 
ATOM     13  C   UNL     1      34.248 -16.053 -20.885  0.00  0.00    +0.138 C 
ATOM     14  C   UNL     1      34.361 -14.278 -22.520  0.00  0.00    +0.006 C 
ATOM     15  C   UNL     1      32.224 -14.962 -21.625  0.00  0.00    +0.006 C 
ATOM     16  C   UNL     1      34.998 -15.234 -21.729  0.00  0.00    +0.037 C 
ATOM     17  C   UNL     1      32.860 -15.917 -20.834  0.00  0.00    +0.037 C 
BRANCH  13  18
ATOM     18  O   UNL     1      34.869 -16.987 -20.113  0.00  0.00    -0.478 OA
BRANCH  18  19
ATOM     19  C   UNL     1      35.690 -17.942 -20.784  0.00  0.00    +0.183 C 
BRANCH  19  20
ATOM     20  C   UNL     1      34.830 -19.130 -21.184  0.00  0.00    -0.029 C 
BRANCH  20  21
ATOM     21  N   UNL     1      34.922 -19.374 -22.619  0.00  0.00    +0.389 N 
ATOM     22  C   UNL     1      34.888 -18.267 -24.401  0.00  0.00    -0.006 C 
ATOM     23  C   UNL     1      35.901 -18.448 -23.245  0.00  0.00    -0.076 C 
ATOM     24  C   UNL     1      33.833 -18.669 -23.341  0.00  0.00    -0.076 C 
ATOM     25  H   UNL     1      35.033 -20.386 -22.680  0.00  0.00    -0.080 HD
BRANCH  22  27
ATOM     26  F   UNL     1      33.619 -16.834 -25.724  0.00  0.00    -0.235 F 
ATOM     27  C   UNL     1      34.768 -16.882 -25.001  0.00  0.00    +0.189 C 
ENDBRANCH  22  27
ENDBRANCH  20  21
ENDBRANCH  19  20
ENDBRANCH  18  19
ENDBRANCH  13  18
ENDBRANCH   2  12
BRANCH   3  28
ATOM     28  C   UNL     1      32.325 -11.196 -21.692  0.00  0.00    +0.006 C 
ATOM     29  C   UNL     1      32.319  -9.822 -21.452  0.00  0.00    +0.037 C 
ATOM     30  C   UNL     1      31.919 -12.079 -20.691  0.00  0.00    +0.000 C 
ATOM     31  C   UNL     1      31.906  -9.331 -20.214  0.00  0.00    +0.134 C 
ATOM     32  C   UNL     1      31.506 -11.589 -19.452  0.00  0.00    +0.003 C 
ATOM     33  C   UNL     1      31.499 -10.215 -19.214  0.00  0.00    +0.037 C 
BRANCH  31  34
ATOM     34  O   UNL     1      31.898  -7.990 -19.980  0.00  0.00    -0.506 OA
ATOM     35  H   UNL     1      32.053  -7.665 -19.115  0.00  0.00    +0.292 HD
ENDBRANCH  31  34
ENDBRANCH   3  28
BRANCH  10  36
ATOM     36  O   UNL     1      35.877 -10.958 -28.138  0.00  0.00    -0.506 OA
ATOM     37  H   UNL     1      35.959 -10.025 -28.127  0.00  0.00    +0.292 HD
ENDBRANCH  10  36
TORSDOF 9
ENDMDL
MODEL 4
REMARK VINA RESULT:      -8.5      5.152     12.477
REMARK  Name = 87055263
REMARK  9 active torsions:
REMARK  status: ('A' for Active; 'I' for Inactive)
REMARK    1  A    between atoms: C_2  and  C_12
REMARK    2  A    between atoms: C_3  and  C_28
REMARK    3  A    between atoms: C_10  and  O_36
REMARK    4  A    between atoms: C_13  and  O_18
REMARK    5  A    between atoms: O_18  and  C_19
REMARK    6  A    between atoms: C_19  and  C_20
REMARK    7  A    between atoms: C_20  and  N_21
REMARK    8  A    between atoms: C_22  and  C_27
REMARK    9  A    between atoms: C_31  and  O_34
REMARK                            x       y       z     vdW  Elec       q    Type
REMARK                         _______ _______ _______ _____ _____    ______ ____
ROOT
ATOM      1  O   UNL     1      32.518 -13.506 -24.772  0.00  0.00    -0.470 OA
ATOM      2  C   UNL     1      32.331 -13.115 -23.403  0.00  0.00    +0.139 C 
ATOM      3  C   UNL     1      32.791 -11.716 -23.032  0.00  0.00    +0.030 C 
ATOM      4  C   UNL     1      33.527 -10.946 -23.860  0.00  0.00    -0.019 C 
ATOM      5  C   UNL     1      33.911 -11.542 -25.158  0.00  0.00    +0.021 C 
ATOM      6  C   UNL     1      33.380 -12.779 -25.541  0.00  0.00    +0.210 C 
ATOM      7  C   UNL     1      33.981  -9.545 -23.542  0.00  0.00    +0.031 C 
ATOM      8  C   UNL     1      34.791 -10.903 -26.050  0.00  0.00    +0.036 C 
ATOM      9  C   UNL     1      33.701 -13.351 -26.779  0.00  0.00    +0.024 C 
ATOM     10  C   UNL     1      35.119 -11.478 -27.281  0.00  0.00    +0.133 C 
ATOM     11  C   UNL     1      34.573 -12.701 -27.647  0.00  0.00    +0.036 C 
ENDROOT
BRANCH   2  12
ATOM     12  C   UNL     1      33.006 -14.160 -22.569  0.00  0.00    +0.034 C 
ATOM     13  C   UNL     1      34.263 -16.105 -21.016  0.00  0.00    +0.138 C 
ATOM     14  C   UNL     1      34.342 -14.482 -22.803  0.00  0.00    +0.006 C 
ATOM     15  C   UNL     1      32.298 -14.809 -21.557  0.00  0.00    +0.006 C 
ATOM     16  C   UNL     1      34.971 -15.456 -22.027  0.00  0.00    +0.037 C 
ATOM     17  C   UNL     1      32.926 -15.782 -20.781  0.00  0.00    +0.037 C 
BRANCH  13  18
ATOM     18  O   UNL     1      34.877 -17.056 -20.258  0.00  0.00    -0.478 OA
BRANCH  18  19
ATOM     19  C   UNL     1      35.542 -18.109 -20.953  0.00  0.00    +0.183 C 
BRANCH  19  20
ATOM     20  C   UNL     1      34.610 -19.308 -21.033  0.00  0.00    -0.029 C 
BRANCH  20  21
ATOM     21  N   UNL     1      35.345 -20.548 -20.812  0.00  0.00    +0.389 N 
ATOM     22  C   UNL     1      36.158 -21.621 -19.202  0.00  0.00    -0.006 C 
ATOM     23  C   UNL     1      34.726 -21.334 -19.714  0.00  0.00    -0.076 C 
ATOM     24  C   UNL     1      36.524 -20.310 -19.940  0.00  0.00    -0.076 C 
ATOM     25  H   UNL     1      35.447 -20.933 -21.751  0.00  0.00    -0.080 HD
BRANCH  22  27
ATOM     26  F   UNL     1      37.480 -22.369 -17.440  0.00  0.00    -0.235 F 
ATOM     27  C   UNL     1      36.361 -21.645 -17.702  0.00  0.00    +0.189 C 
ENDBRANCH  22  27
ENDBRANCH  20  21
ENDBRANCH  19  20
ENDBRANCH  18  19
ENDBRANCH  13  18
ENDBRANCH   2  12
BRANCH   3  28
ATOM     28  C   UNL     1      32.340 -11.234 -21.731  0.00  0.00    +0.006 C 
ATOM     29  C   UNL     1      32.329  -9.866 -21.458  0.00  0.00    +0.037 C 
ATOM     30  C   UNL     1      31.922 -12.141 -20.757  0.00  0.00    +0.000 C 
ATOM     31  C   UNL     1      31.899  -9.405 -20.214  0.00  0.00    +0.134 C 
ATOM     32  C   UNL     1      31.492 -11.681 -19.513  0.00  0.00    +0.003 C 
ATOM     33  C   UNL     1      31.480 -10.313 -19.241  0.00  0.00    +0.037 C 
BRANCH  31  34
ATOM     34  O   UNL     1      31.887  -8.070 -19.948  0.00  0.00    -0.506 OA
ATOM     35  H   UNL     1      32.272  -7.469 -20.555  0.00  0.00    +0.292 HD
ENDBRANCH  31  34
ENDBRANCH   3  28
BRANCH  10  36
ATOM     36  O   UNL     1      35.974 -10.835 -28.123  0.00  0.00    -0.506 OA
ATOM     37  H   UNL     1      36.073  -9.906 -28.071  0.00  0.00    +0.292 HD
ENDBRANCH  10  36
TORSDOF 9
ENDMDL
MODEL 5
REMARK VINA RESULT:      -8.1      1.591      5.441
REMARK  Name = 87055263
REMARK  9 active torsions:
REMARK  status: ('A' for Active; 'I' for Inactive)
REMARK    1  A    between atoms: C_2  and  C_12
REMARK    2  A    between atoms: C_3  and  C_28
REMARK    3  A    between atoms: C_10  and  O_36
REMARK    4  A    between atoms: C_13  and  O_18
REMARK    5  A    between atoms: O_18  and  C_19
REMARK    6  A    between atoms: C_19  and  C_20
REMARK    7  A    between atoms: C_20  and  N_21
REMARK    8  A    between atoms: C_22  and  C_27
REMARK    9  A    between atoms: C_31  and  O_34
REMARK                            x       y       z     vdW  Elec       q    Type
REMARK                         _______ _______ _______ _____ _____    ______ ____
ROOT
ATOM      1  O   UNL     1      37.389 -22.502 -15.352  0.00  0.00    -0.470 OA
ATOM      2  C   UNL     1      35.979 -22.471 -15.623  0.00  0.00    +0.139 C 
ATOM      3  C   UNL     1      35.204 -23.738 -15.312  0.00  0.00    +0.030 C 
ATOM      4  C   UNL     1      35.806 -24.906 -15.002  0.00  0.00    -0.019 C 
ATOM      5  C   UNL     1      37.285 -24.915 -15.015  0.00  0.00    +0.021 C 
ATOM      6  C   UNL     1      37.988 -23.717 -15.180  0.00  0.00    +0.210 C 
ATOM      7  C   UNL     1      35.075 -26.178 -14.662  0.00  0.00    +0.031 C 
ATOM      8  C   UNL     1      38.032 -26.095 -14.851  0.00  0.00    +0.036 C 
ATOM      9  C   UNL     1      39.389 -23.693 -15.164  0.00  0.00    +0.024 C 
ATOM     10  C   UNL     1      39.429 -26.074 -14.843  0.00  0.00    +0.133 C 
ATOM     11  C   UNL     1      40.109 -24.872 -14.998  0.00  0.00    +0.036 C 
ENDROOT
BRANCH   2  12
ATOM     12  C   UNL     1      35.834 -22.070 -17.059  0.00  0.00    +0.034 C 
ATOM     13  C   UNL     1      35.563 -21.324 -19.732  0.00  0.00    +0.138 C 
ATOM     14  C   UNL     1      36.844 -21.340 -17.684  0.00  0.00    +0.006 C 
ATOM     15  C   UNL     1      34.689 -22.429 -17.770  0.00  0.00    +0.006 C 
ATOM     16  C   UNL     1      36.708 -20.966 -19.021  0.00  0.00    +0.037 C 
ATOM     17  C   UNL     1      34.553 -22.056 -19.107  0.00  0.00    +0.037 C 
BRANCH  13  18
ATOM     18  O   UNL     1      35.431 -20.959 -21.037  0.00  0.00    -0.478 OA
BRANCH  18  19
ATOM     19  C   UNL     1      35.170 -19.582 -21.303  0.00  0.00    +0.183 C 
BRANCH  19  20
ATOM     20  C   UNL     1      34.966 -19.401 -22.798  0.00  0.00    -0.029 C 
BRANCH  20  21
ATOM     21  N   UNL     1      35.584 -18.163 -23.257  0.00  0.00    +0.389 N 
ATOM     22  C   UNL     1      35.019 -16.177 -23.636  0.00  0.00    -0.006 C 
ATOM     23  C   UNL     1      35.221 -17.034 -22.362  0.00  0.00    -0.076 C 
ATOM     24  C   UNL     1      34.769 -17.538 -24.331  0.00  0.00    -0.076 C 
ATOM     25  H   UNL     1      36.556 -18.428 -23.413  0.00  0.00    -0.080 HD
BRANCH  22  27
ATOM     26  F   UNL     1      34.397 -13.936 -23.614  0.00  0.00    -0.235 F 
ATOM     27  C   UNL     1      33.872 -15.189 -23.626  0.00  0.00    +0.189 C 
ENDBRANCH  22  27
ENDBRANCH  20  21
ENDBRANCH  19  20
ENDBRANCH  18  19
ENDBRANCH  13  18
ENDBRANCH   2  12
BRANCH   3  28
ATOM     28  C   UNL     1      33.751 -23.601 -15.319  0.00  0.00    +0.006 C 
ATOM     29  C   UNL     1      33.054 -23.480 -14.117  0.00  0.00    +0.037 C 
ATOM     30  C   UNL     1      33.057 -23.592 -16.530  0.00  0.00    +0.000 C 
ATOM     31  C   UNL     1      31.666 -23.349 -14.125  0.00  0.00    +0.134 C 
ATOM     32  C   UNL     1      31.669 -23.462 -16.538  0.00  0.00    +0.003 C 
ATOM     33  C   UNL     1      30.973 -23.340 -15.336  0.00  0.00    +0.037 C 
BRANCH  31  34
ATOM     34  O   UNL     1      30.986 -23.229 -12.952  0.00  0.00    -0.506 OA
ATOM     35  H   UNL     1      30.996 -23.932 -12.331  0.00  0.00    +0.292 HD
ENDBRANCH  31  34
ENDBRANCH   3  28
BRANCH  10  36
ATOM     36  O   UNL     1      40.126 -27.232 -14.682  0.00  0.00    -0.506 OA
ATOM     37  H   UNL     1      40.855 -27.421 -15.237  0.00  0.00    +0.292 HD
ENDBRANCH  10  36
TORSDOF 9
ENDMDL
MODEL 6
REMARK VINA RESULT:      -7.8     11.991     15.574
REMARK  Name = 87055263
REMARK  9 active torsions:
REMARK  status: ('A' for Active; 'I' for Inactive)
REMARK    1  A    between atoms: C_2  and  C_12
REMARK    2  A    between atoms: C_3  and  C_28
REMARK    3  A    between atoms: C_10  and  O_36
REMARK    4  A    between atoms: C_13  and  O_18
REMARK    5  A    between atoms: O_18  and  C_19
REMARK    6  A    between atoms: C_19  and  C_20
REMARK    7  A    between atoms: C_20  and  N_21
REMARK    8  A    between atoms: C_22  and  C_27
REMARK    9  A    between atoms: C_31  and  O_34
REMARK                            x       y       z     vdW  Elec       q    Type
REMARK                         _______ _______ _______ _____ _____    ______ ____
ROOT
ATOM      1  O   UNL     1      34.817  -9.353 -24.455  0.00  0.00    -0.470 OA
ATOM      2  C   UNL     1      33.894  -9.197 -23.365  0.00  0.00    +0.139 C 
ATOM      3  C   UNL     1      33.079 -10.421 -22.990  0.00  0.00    +0.030 C 
ATOM      4  C   UNL     1      33.044 -11.536 -23.749  0.00  0.00    -0.019 C 
ATOM      5  C   UNL     1      33.818 -11.507 -25.010  0.00  0.00    +0.021 C 
ATOM      6  C   UNL     1      34.662 -10.426 -25.284  0.00  0.00    +0.210 C 
ATOM      7  C   UNL     1      32.271 -12.781 -23.400  0.00  0.00    +0.031 C 
ATOM      8  C   UNL     1      33.754 -12.545 -25.957  0.00  0.00    +0.036 C 
ATOM      9  C   UNL     1      35.430 -10.388 -26.456  0.00  0.00    +0.024 C 
ATOM     10  C   UNL     1      34.513 -12.504 -27.129  0.00  0.00    +0.133 C 
ATOM     11  C   UNL     1      35.353 -11.426 -27.379  0.00  0.00    +0.036 C 
ENDROOT
BRANCH   2  12
ATOM     12  C   UNL     1      33.018  -8.034 -23.716  0.00  0.00    +0.034 C 
ATOM     13  C   UNL     1      31.387  -5.868 -24.370  0.00  0.00    +0.138 C 
ATOM     14  C   UNL     1      33.547  -6.744 -23.737  0.00  0.00    +0.006 C 
ATOM     15  C   UNL     1      31.673  -8.242 -24.024  0.00  0.00    +0.006 C 
ATOM     16  C   UNL     1      32.731  -5.660 -24.063  0.00  0.00    +0.037 C 
ATOM     17  C   UNL     1      30.857  -7.159 -24.351  0.00  0.00    +0.037 C 
BRANCH  13  18
ATOM     18  O   UNL     1      30.590  -4.811 -24.689  0.00  0.00    -0.478 OA
BRANCH  18  19
ATOM     19  C   UNL     1      31.181  -3.513 -24.633  0.00  0.00    +0.183 C 
BRANCH  19  20
ATOM     20  C   UNL     1      30.694  -2.703 -25.824  0.00  0.00    -0.029 C 
BRANCH  20  21
ATOM     21  N   UNL     1      31.793  -2.422 -26.740  0.00  0.00    +0.389 N 
ATOM     22  C   UNL     1      33.585  -3.323 -27.360  0.00  0.00    -0.006 C 
ATOM     23  C   UNL     1      32.080  -3.606 -27.591  0.00  0.00    -0.076 C 
ATOM     24  C   UNL     1      33.101  -2.624 -26.066  0.00  0.00    -0.076 C 
ATOM     25  H   UNL     1      31.537  -1.523 -27.148  0.00  0.00    -0.080 HD
BRANCH  22  27
ATOM     26  F   UNL     1      35.772  -4.115 -27.405  0.00  0.00    -0.235 F 
ATOM     27  C   UNL     1      34.493  -4.523 -27.196  0.00  0.00    +0.189 C 
ENDBRANCH  22  27
ENDBRANCH  20  21
ENDBRANCH  19  20
ENDBRANCH  18  19
ENDBRANCH  13  18
ENDBRANCH   2  12
BRANCH   3  28
ATOM     28  C   UNL     1      32.368 -10.334 -21.719  0.00  0.00    +0.006 C 
ATOM     29  C   UNL     1      32.427  -9.163 -20.964  0.00  0.00    +0.037 C 
ATOM     30  C   UNL     1      31.630 -11.424 -21.256  0.00  0.00    +0.000 C 
ATOM     31  C   UNL     1      31.748  -9.080 -19.749  0.00  0.00    +0.134 C 
ATOM     32  C   UNL     1      30.951 -11.342 -20.041  0.00  0.00    +0.003 C 
ATOM     33  C   UNL     1      31.009 -10.170 -19.287  0.00  0.00    +0.037 C 
BRANCH  31  34
ATOM     34  O   UNL     1      31.804  -7.937 -19.013  0.00  0.00    -0.506 OA
ATOM     35  H   UNL     1      31.068  -7.678 -18.493  0.00  0.00    +0.292 HD
ENDBRANCH  31  34
ENDBRANCH   3  28
BRANCH  10  36
ATOM     36  O   UNL     1      34.430 -13.524 -28.028  0.00  0.00    -0.506 OA
ATOM     37  H   UNL     1      33.600 -13.763 -28.389  0.00  0.00    +0.292 HD
ENDBRANCH  10  36
TORSDOF 9
ENDMDL
MODEL 7
REMARK VINA RESULT:      -7.7      3.749      7.770
REMARK  Name = 87055263
REMARK  9 active torsions:
REMARK  status: ('A' for Active; 'I' for Inactive)
REMARK    1  A    between atoms: C_2  and  C_12
REMARK    2  A    between atoms: C_3  and  C_28
REMARK    3  A    between atoms: C_10  and  O_36
REMARK    4  A    between atoms: C_13  and  O_18
REMARK    5  A    between atoms: O_18  and  C_19
REMARK    6  A    between atoms: C_19  and  C_20
REMARK    7  A    between atoms: C_20  and  N_21
REMARK    8  A    between atoms: C_22  and  C_27
REMARK    9  A    between atoms: C_31  and  O_34
REMARK                            x       y       z     vdW  Elec       q    Type
REMARK                         _______ _______ _______ _____ _____    ______ ____
ROOT
ATOM      1  O   UNL     1      35.073 -25.005 -15.253  0.00  0.00    -0.470 OA
ATOM      2  C   UNL     1      34.685 -24.123 -16.318  0.00  0.00    +0.139 C 
ATOM      3  C   UNL     1      35.625 -22.968 -16.614  0.00  0.00    +0.030 C 
ATOM      4  C   UNL     1      36.655 -22.639 -15.807  0.00  0.00    -0.019 C 
ATOM      5  C   UNL     1      36.816 -23.440 -14.574  0.00  0.00    +0.021 C 
ATOM      6  C   UNL     1      36.025 -24.576 -14.373  0.00  0.00    +0.210 C 
ATOM      7  C   UNL     1      37.625 -21.519 -16.076  0.00  0.00    +0.031 C 
ATOM      8  C   UNL     1      37.758 -23.114 -13.581  0.00  0.00    +0.036 C 
ATOM      9  C   UNL     1      36.179 -25.371 -13.230  0.00  0.00    +0.024 C 
ATOM     10  C   UNL     1      37.906 -23.902 -12.437  0.00  0.00    +0.133 C 
ATOM     11  C   UNL     1      37.118 -25.033 -12.261  0.00  0.00    +0.036 C 
ENDROOT
BRANCH   2  12
ATOM     12  C   UNL     1      33.305 -23.644 -15.989  0.00  0.00    +0.034 C 
ATOM     13  C   UNL     1      30.733 -22.753 -15.379  0.00  0.00    +0.138 C 
ATOM     14  C   UNL     1      32.313 -23.650 -16.971  0.00  0.00    +0.006 C 
ATOM     15  C   UNL     1      33.010 -23.193 -14.703  0.00  0.00    +0.006 C 
ATOM     16  C   UNL     1      31.028 -23.203 -16.666  0.00  0.00    +0.037 C 
ATOM     17  C   UNL     1      31.725 -22.747 -14.397  0.00  0.00    +0.037 C 
BRANCH  13  18
ATOM     18  O   UNL     1      29.478 -22.316 -15.081  0.00  0.00    -0.478 OA
BRANCH  18  19
ATOM     19  C   UNL     1      28.455 -23.305 -14.980  0.00  0.00    +0.183 C 
BRANCH  19  20
ATOM     20  C   UNL     1      27.153 -22.717 -15.501  0.00  0.00    -0.029 C 
BRANCH  20  21
ATOM     21  N   UNL     1      27.401 -21.852 -16.649  0.00  0.00    +0.389 N 
ATOM     22  C   UNL     1      26.617 -21.536 -18.570  0.00  0.00    -0.006 C 
ATOM     23  C   UNL     1      26.133 -21.243 -17.128  0.00  0.00    -0.076 C 
ATOM     24  C   UNL     1      27.461 -22.649 -17.901  0.00  0.00    -0.076 C 
ATOM     25  H   UNL     1      28.187 -21.277 -16.346  0.00  0.00    -0.080 HD
BRANCH  22  27
ATOM     26  F   UNL     1      25.842 -21.371 -20.757  0.00  0.00    -0.235 F 
ATOM     27  C   UNL     1      25.569 -21.975 -19.571  0.00  0.00    +0.189 C 
ENDBRANCH  22  27
ENDBRANCH  20  21
ENDBRANCH  19  20
ENDBRANCH  18  19
ENDBRANCH  13  18
ENDBRANCH   2  12
BRANCH   3  28
ATOM     28  C   UNL     1      35.372 -22.259 -17.864  0.00  0.00    +0.006 C 
ATOM     29  C   UNL     1      34.088 -22.241 -18.409  0.00  0.00    +0.037 C 
ATOM     30  C   UNL     1      36.414 -21.601 -18.517  0.00  0.00    +0.000 C 
ATOM     31  C   UNL     1      33.846 -21.564 -19.604  0.00  0.00    +0.134 C 
ATOM     32  C   UNL     1      36.173 -20.925 -19.713  0.00  0.00    +0.003 C 
ATOM     33  C   UNL     1      34.889 -20.905 -20.256  0.00  0.00    +0.037 C 
BRANCH  31  34
ATOM     34  O   UNL     1      32.593 -21.545 -20.136  0.00  0.00    -0.506 OA
ATOM     35  H   UNL     1      32.461 -21.784 -21.032  0.00  0.00    +0.292 HD
ENDBRANCH  31  34
ENDBRANCH   3  28
BRANCH  10  36
ATOM     36  O   UNL     1      38.826 -23.562 -11.493  0.00  0.00    -0.506 OA
ATOM     37  H   UNL     1      38.962 -22.661 -11.274  0.00  0.00    +0.292 HD
ENDBRANCH  10  36
TORSDOF 9
ENDMDL
MODEL 8
REMARK VINA RESULT:      -7.0      1.335      1.905
REMARK  Name = 87055263
REMARK  9 active torsions:
REMARK  status: ('A' for Active; 'I' for Inactive)
REMARK    1  A    between atoms: C_2  and  C_12
REMARK    2  A    between atoms: C_3  and  C_28
REMARK    3  A    between atoms: C_10  and  O_36
REMARK    4  A    between atoms: C_13  and  O_18
REMARK    5  A    between atoms: O_18  and  C_19
REMARK    6  A    between atoms: C_19  and  C_20
REMARK    7  A    between atoms: C_20  and  N_21
REMARK    8  A    between atoms: C_22  and  C_27
REMARK    9  A    between atoms: C_31  and  O_34
REMARK                            x       y       z     vdW  Elec       q    Type
REMARK                         _______ _______ _______ _____ _____    ______ ____
ROOT
ATOM      1  O   UNL     1      32.894 -24.287 -16.816  0.00  0.00    -0.470 OA
ATOM      2  C   UNL     1      34.327 -24.258 -16.733  0.00  0.00    +0.139 C 
ATOM      3  C   UNL     1      34.920 -24.154 -15.339  0.00  0.00    +0.030 C 
ATOM      4  C   UNL     1      34.175 -23.886 -14.246  0.00  0.00    -0.019 C 
ATOM      5  C   UNL     1      32.731 -23.656 -14.467  0.00  0.00    +0.021 C 
ATOM      6  C   UNL     1      32.175 -23.876 -15.731  0.00  0.00    +0.210 C 
ATOM      7  C   UNL     1      34.718 -23.800 -12.844  0.00  0.00    +0.031 C 
ATOM      8  C   UNL     1      31.870 -23.231 -13.438  0.00  0.00    +0.036 C 
ATOM      9  C   UNL     1      30.804 -23.696 -15.959  0.00  0.00    +0.024 C 
ATOM     10  C   UNL     1      30.505 -23.043 -13.667  0.00  0.00    +0.133 C 
ATOM     11  C   UNL     1      29.970 -23.278 -14.928  0.00  0.00    +0.036 C 
ENDROOT
BRANCH   2  12
ATOM     12  C   UNL     1      34.780 -23.135 -17.613  0.00  0.00    +0.034 C 
ATOM     13  C   UNL     1      35.622 -21.042 -19.254  0.00  0.00    +0.138 C 
ATOM     14  C   UNL     1      33.996 -22.740 -18.698  0.00  0.00    +0.006 C 
ATOM     15  C   UNL     1      35.985 -22.483 -17.349  0.00  0.00    +0.006 C 
ATOM     16  C   UNL     1      34.418 -21.694 -19.519  0.00  0.00    +0.037 C 
ATOM     17  C   UNL     1      36.406 -21.437 -18.169  0.00  0.00    +0.037 C 
BRANCH  13  18
ATOM     18  O   UNL     1      36.034 -20.021 -20.055  0.00  0.00    -0.478 OA
BRANCH  18  19
ATOM     19  C   UNL     1      35.044 -19.397 -20.871  0.00  0.00    +0.183 C 
BRANCH  19  20
ATOM     20  C   UNL     1      35.734 -18.451 -21.841  0.00  0.00    -0.029 C 
BRANCH  20  21
ATOM     21  N   UNL     1      34.754 -17.673 -22.589  0.00  0.00    +0.389 N 
ATOM     22  C   UNL     1      34.156 -15.670 -22.777  0.00  0.00    -0.006 C 
ATOM     23  C   UNL     1      35.394 -16.489 -23.218  0.00  0.00    -0.076 C 
ATOM     24  C   UNL     1      34.011 -16.758 -21.685  0.00  0.00    -0.076 C 
ATOM     25  H   UNL     1      34.271 -18.377 -23.147  0.00  0.00    -0.080 HD
BRANCH  22  27
ATOM     26  F   UNL     1      33.387 -13.903 -21.474  0.00  0.00    -0.235 F 
ATOM     27  C   UNL     1      34.402 -14.252 -22.307  0.00  0.00    +0.189 C 
ENDBRANCH  22  27
ENDBRANCH  20  21
ENDBRANCH  19  20
ENDBRANCH  18  19
ENDBRANCH  13  18
ENDBRANCH   2  12
BRANCH   3  28
ATOM     28  C   UNL     1      36.353 -24.413 -15.248  0.00  0.00    +0.006 C 
ATOM     29  C   UNL     1      36.817 -25.711 -15.032  0.00  0.00    +0.037 C 
ATOM     30  C   UNL     1      37.262 -23.361 -15.374  0.00  0.00    +0.000 C 
ATOM     31  C   UNL     1      38.187 -25.957 -14.945  0.00  0.00    +0.134 C 
ATOM     32  C   UNL     1      38.632 -23.607 -15.286  0.00  0.00    +0.003 C 
ATOM     33  C   UNL     1      39.094 -24.905 -15.072  0.00  0.00    +0.037 C 
BRANCH  31  34
ATOM     34  O   UNL     1      38.639 -27.224 -14.736  0.00  0.00    -0.506 OA
ATOM     35  H   UNL     1      38.786 -27.795 -15.464  0.00  0.00    +0.292 HD
ENDBRANCH  31  34
ENDBRANCH   3  28
BRANCH  10  36
ATOM     36  O   UNL     1      29.696 -22.631 -12.652  0.00  0.00    -0.506 OA
ATOM     37  H   UNL     1      29.871 -21.823 -12.212  0.00  0.00    +0.292 HD
ENDBRANCH  10  36
TORSDOF 9
ENDMDL
