MODEL 1
REMARK VINA RESULT:      -5.6      0.000      0.000
REMARK  Name = 5563
REMARK  5 active torsions:
REMARK  status: ('A' for Active; 'I' for Inactive)
REMARK    1  A    between atoms: P_1  and  O_3
REMARK    2  A    between atoms: P_1  and  O_5
REMARK    3  A    between atoms: P_1  and  O_7
REMARK    4  A    between atoms: O_7  and  C_8
REMARK    5  A    between atoms: C_8  and  C_12
REMARK                            x       y       z     vdW  Elec       q    Type
REMARK                         _______ _______ _______ _____ _____    ______ ____
ROOT
ATOM      1  P   UNL     1      40.414 -25.848 -14.469  0.00  0.00    +0.473 P 
ATOM      2  O   UNL     1      40.804 -24.512 -13.910  0.00  0.00    -0.227 OA
ENDROOT
BRANCH   1   3
ATOM      3  O   UNL     1      40.347 -25.930 -16.082  0.00  0.00    -0.303 OA
ATOM      4  H   UNL     1      40.163 -25.049 -16.444  0.00  0.00    +0.222 HD
ENDBRANCH   1   3
BRANCH   1   5
ATOM      5  O   UNL     1      41.401 -27.068 -14.075  0.00  0.00    -0.303 OA
ATOM      6  H   UNL     1      41.607 -27.586 -14.869  0.00  0.00    +0.222 HD
ENDBRANCH   1   5
BRANCH   1   7
ATOM      7  O   UNL     1      38.964 -26.391 -13.996  0.00  0.00    -0.269 OA
BRANCH   7   8
ATOM      8  C   UNL     1      38.080 -25.489 -13.355  0.00  0.00    +0.199 C 
BRANCH   8  12
ATOM      9 CL   UNL     1      36.501 -26.504 -15.311  0.00  0.00    -0.080 Cl
ATOM     10 CL   UNL     1      37.405 -23.739 -15.339  0.00  0.00    -0.080 Cl
ATOM     11 CL   UNL     1      35.488 -24.630 -13.333  0.00  0.00    -0.080 Cl
ATOM     12  C   UNL     1      36.929 -25.101 -14.283  0.00  0.00    +0.226 C 
ENDBRANCH   8  12
ENDBRANCH   7   8
ENDBRANCH   1   7
TORSDOF 5
ENDMDL
MODEL 2
REMARK VINA RESULT:      -5.5      3.836      4.808
REMARK  Name = 5563
REMARK  5 active torsions:
REMARK  status: ('A' for Active; 'I' for Inactive)
REMARK    1  A    between atoms: P_1  and  O_3
REMARK    2  A    between atoms: P_1  and  O_5
REMARK    3  A    between atoms: P_1  and  O_7
REMARK    4  A    between atoms: O_7  and  C_8
REMARK    5  A    between atoms: C_8  and  C_12
REMARK                            x       y       z     vdW  Elec       q    Type
REMARK                         _______ _______ _______ _____ _____    ______ ____
ROOT
ATOM      1  P   UNL     1      35.921 -24.216 -11.039  0.00  0.00    +0.473 P 
ATOM      2  O   UNL     1      35.348 -24.577  -9.700  0.00  0.00    -0.227 OA
ENDROOT
BRANCH   1   3
ATOM      3  O   UNL     1      34.872 -23.579 -12.091  0.00  0.00    -0.303 OA
ATOM      4  H   UNL     1      35.200 -23.709 -12.995  0.00  0.00    +0.222 HD
ENDBRANCH   1   3
BRANCH   1   5
ATOM      5  O   UNL     1      37.116 -23.126 -10.999  0.00  0.00    -0.303 OA
ATOM      6  H   UNL     1      37.266 -22.779 -11.892  0.00  0.00    +0.222 HD
ENDBRANCH   1   5
BRANCH   1   7
ATOM      7  O   UNL     1      36.584 -25.448 -11.855  0.00  0.00    -0.269 OA
BRANCH   7   8
ATOM      8  C   UNL     1      37.950 -25.362 -12.216  0.00  0.00    +0.199 C 
BRANCH   8  12
ATOM      9 CL   UNL     1      37.534 -24.038 -14.545  0.00  0.00    -0.080 Cl
ATOM     10 CL   UNL     1      37.189 -26.917 -14.328  0.00  0.00    -0.080 Cl
ATOM     11 CL   UNL     1      39.851 -25.745 -14.140  0.00  0.00    -0.080 Cl
ATOM     12  C   UNL     1      38.125 -25.517 -13.727  0.00  0.00    +0.226 C 
ENDBRANCH   8  12
ENDBRANCH   7   8
ENDBRANCH   1   7
TORSDOF 5
ENDMDL
MODEL 3
REMARK VINA RESULT:      -5.5      0.996      2.085
REMARK  Name = 5563
REMARK  5 active torsions:
REMARK  status: ('A' for Active; 'I' for Inactive)
REMARK    1  A    between atoms: P_1  and  O_3
REMARK    2  A    between atoms: P_1  and  O_5
REMARK    3  A    between atoms: P_1  and  O_7
REMARK    4  A    between atoms: O_7  and  C_8
REMARK    5  A    between atoms: C_8  and  C_12
REMARK                            x       y       z     vdW  Elec       q    Type
REMARK                         _______ _______ _______ _____ _____    ______ ____
ROOT
ATOM      1  P   UNL     1      40.459 -26.038 -14.478  0.00  0.00    +0.473 P 
ATOM      2  O   UNL     1      41.435 -27.079 -14.017  0.00  0.00    -0.227 OA
ENDROOT
BRANCH   1   3
ATOM      3  O   UNL     1      40.792 -24.524 -14.016  0.00  0.00    -0.303 OA
ATOM      4  H   UNL     1      41.559 -24.195 -14.512  0.00  0.00    +0.222 HD
ENDBRANCH   1   3
BRANCH   1   5
ATOM      5  O   UNL     1      40.303 -25.910 -16.083  0.00  0.00    -0.303 OA
ATOM      6  H   UNL     1      39.985 -26.752 -16.445  0.00  0.00    +0.222 HD
ENDBRANCH   1   5
BRANCH   1   7
ATOM      7  O   UNL     1      38.933 -26.263 -13.984  0.00  0.00    -0.269 OA
BRANCH   7   8
ATOM      8  C   UNL     1      37.882 -26.016 -14.901  0.00  0.00    +0.199 C 
BRANCH   8  12
ATOM      9 CL   UNL     1      37.808 -23.395 -15.588  0.00  0.00    -0.080 Cl
ATOM     10 CL   UNL     1      37.410 -24.281 -12.847  0.00  0.00    -0.080 Cl
ATOM     11 CL   UNL     1      35.405 -24.868 -14.878  0.00  0.00    -0.080 Cl
ATOM     12  C   UNL     1      37.159 -24.713 -14.564  0.00  0.00    +0.226 C 
ENDBRANCH   8  12
ENDBRANCH   7   8
ENDBRANCH   1   7
TORSDOF 5
ENDMDL
MODEL 4
REMARK VINA RESULT:      -5.5      3.835      4.586
REMARK  Name = 5563
REMARK  5 active torsions:
REMARK  status: ('A' for Active; 'I' for Inactive)
REMARK    1  A    between atoms: P_1  and  O_3
REMARK    2  A    between atoms: P_1  and  O_5
REMARK    3  A    between atoms: P_1  and  O_7
REMARK    4  A    between atoms: O_7  and  C_8
REMARK    5  A    between atoms: C_8  and  C_12
REMARK                            x       y       z     vdW  Elec       q    Type
REMARK                         _______ _______ _______ _____ _____    ______ ____
ROOT
ATOM      1  P   UNL     1      35.930 -24.209 -11.036  0.00  0.00    +0.473 P 
ATOM      2  O   UNL     1      35.349 -24.571  -9.702  0.00  0.00    -0.227 OA
ENDROOT
BRANCH   1   3
ATOM      3  O   UNL     1      34.885 -23.578 -12.097  0.00  0.00    -0.303 OA
ATOM      4  H   UNL     1      34.282 -24.271 -12.409  0.00  0.00    +0.222 HD
ENDBRANCH   1   3
BRANCH   1   5
ATOM      5  O   UNL     1      37.119 -23.113 -10.989  0.00  0.00    -0.303 OA
ATOM      6  H   UNL     1      37.663 -23.260 -10.200  0.00  0.00    +0.222 HD
ENDBRANCH   1   5
BRANCH   1   7
ATOM      7  O   UNL     1      36.604 -25.438 -11.846  0.00  0.00    -0.269 OA
BRANCH   7   8
ATOM      8  C   UNL     1      37.966 -25.334 -12.222  0.00  0.00    +0.199 C 
BRANCH   8  12
ATOM      9 CL   UNL     1      37.168 -26.900 -14.287  0.00  0.00    -0.080 Cl
ATOM     10 CL   UNL     1      39.843 -25.765 -14.158  0.00  0.00    -0.080 Cl
ATOM     11 CL   UNL     1      37.538 -24.033 -14.585  0.00  0.00    -0.080 Cl
ATOM     12  C   UNL     1      38.127 -25.492 -13.734  0.00  0.00    +0.226 C 
ENDBRANCH   8  12
ENDBRANCH   7   8
ENDBRANCH   1   7
TORSDOF 5
ENDMDL
MODEL 5
REMARK VINA RESULT:      -5.5      3.800      4.696
REMARK  Name = 5563
REMARK  5 active torsions:
REMARK  status: ('A' for Active; 'I' for Inactive)
REMARK    1  A    between atoms: P_1  and  O_3
REMARK    2  A    between atoms: P_1  and  O_5
REMARK    3  A    between atoms: P_1  and  O_7
REMARK    4  A    between atoms: O_7  and  C_8
REMARK    5  A    between atoms: C_8  and  C_12
REMARK                            x       y       z     vdW  Elec       q    Type
REMARK                         _______ _______ _______ _____ _____    ______ ____
ROOT
ATOM      1  P   UNL     1      36.020 -24.187 -11.151  0.00  0.00    +0.473 P 
ATOM      2  O   UNL     1      37.084 -23.173 -10.851  0.00  0.00    -0.227 OA
ENDROOT
BRANCH   1   3
ATOM      3  O   UNL     1      35.292 -24.828  -9.858  0.00  0.00    -0.303 OA
ATOM      4  H   UNL     1      35.961 -25.175  -9.248  0.00  0.00    +0.222 HD
ENDBRANCH   1   3
BRANCH   1   5
ATOM      5  O   UNL     1      34.785 -23.638 -12.040  0.00  0.00    -0.303 OA
ATOM      6  H   UNL     1      35.054 -22.830 -12.504  0.00  0.00    +0.222 HD
ENDBRANCH   1   5
BRANCH   1   7
ATOM      7  O   UNL     1      36.522 -25.478 -11.989  0.00  0.00    -0.269 OA
BRANCH   7   8
ATOM      8  C   UNL     1      37.898 -25.584 -12.309  0.00  0.00    +0.199 C 
BRANCH   8  12
ATOM      9 CL   UNL     1      39.849 -25.795 -14.178  0.00  0.00    -0.080 Cl
ATOM     10 CL   UNL     1      37.575 -24.015 -14.520  0.00  0.00    -0.080 Cl
ATOM     11 CL   UNL     1      37.195 -26.904 -14.594  0.00  0.00    -0.080 Cl
ATOM     12  C   UNL     1      38.108 -25.573 -13.823  0.00  0.00    +0.226 C 
ENDBRANCH   8  12
ENDBRANCH   7   8
ENDBRANCH   1   7
TORSDOF 5
ENDMDL
MODEL 6
REMARK VINA RESULT:      -5.2      1.811      2.747
REMARK  Name = 5563
REMARK  5 active torsions:
REMARK  status: ('A' for Active; 'I' for Inactive)
REMARK    1  A    between atoms: P_1  and  O_3
REMARK    2  A    between atoms: P_1  and  O_5
REMARK    3  A    between atoms: P_1  and  O_7
REMARK    4  A    between atoms: O_7  and  C_8
REMARK    5  A    between atoms: C_8  and  C_12
REMARK                            x       y       z     vdW  Elec       q    Type
REMARK                         _______ _______ _______ _____ _____    ______ ____
ROOT
ATOM      1  P   UNL     1      39.576 -25.290 -14.744  0.00  0.00    +0.473 P 
ATOM      2  O   UNL     1      40.970 -25.837 -14.834  0.00  0.00    -0.227 OA
ENDROOT
BRANCH   1   3
ATOM      3  O   UNL     1      39.281 -23.994 -15.664  0.00  0.00    -0.303 OA
ATOM      4  H   UNL     1      38.322 -23.870 -15.752  0.00  0.00    +0.222 HD
ENDBRANCH   1   3
BRANCH   1   5
ATOM      5  O   UNL     1      38.408 -26.324 -15.174  0.00  0.00    -0.303 OA
ATOM      6  H   UNL     1      38.770 -26.987 -15.782  0.00  0.00    +0.222 HD
ENDBRANCH   1   5
BRANCH   1   7
ATOM      7  O   UNL     1      39.118 -24.824 -13.263  0.00  0.00    -0.269 OA
BRANCH   7   8
ATOM      8  C   UNL     1      37.917 -25.351 -12.729  0.00  0.00    +0.199 C 
BRANCH   8  12
ATOM      9 CL   UNL     1      37.687 -22.792 -11.864  0.00  0.00    -0.080 Cl
ATOM     10 CL   UNL     1      35.617 -24.775 -11.374  0.00  0.00    -0.080 Cl
ATOM     11 CL   UNL     1      36.109 -23.814 -14.081  0.00  0.00    -0.080 Cl
ATOM     12  C   UNL     1      36.879 -24.247 -12.525  0.00  0.00    +0.226 C 
ENDBRANCH   8  12
ENDBRANCH   7   8
ENDBRANCH   1   7
TORSDOF 5
ENDMDL
MODEL 7
REMARK VINA RESULT:      -5.1      1.711      2.265
REMARK  Name = 5563
REMARK  5 active torsions:
REMARK  status: ('A' for Active; 'I' for Inactive)
REMARK    1  A    between atoms: P_1  and  O_3
REMARK    2  A    between atoms: P_1  and  O_5
REMARK    3  A    between atoms: P_1  and  O_7
REMARK    4  A    between atoms: O_7  and  C_8
REMARK    5  A    between atoms: C_8  and  C_12
REMARK                            x       y       z     vdW  Elec       q    Type
REMARK                         _______ _______ _______ _____ _____    ______ ____
ROOT
ATOM      1  P   UNL     1      39.525 -25.717 -14.658  0.00  0.00    +0.473 P 
ATOM      2  O   UNL     1      40.836 -26.441 -14.747  0.00  0.00    -0.227 OA
ENDROOT
BRANCH   1   3
ATOM      3  O   UNL     1      39.482 -24.275 -15.388  0.00  0.00    -0.303 OA
ATOM      4  H   UNL     1      39.342 -24.398 -16.341  0.00  0.00    +0.222 HD
ENDBRANCH   1   3
BRANCH   1   5
ATOM      5  O   UNL     1      38.266 -26.500 -15.305  0.00  0.00    -0.303 OA
ATOM      6  H   UNL     1      38.099 -26.161 -16.198  0.00  0.00    +0.222 HD
ENDBRANCH   1   5
BRANCH   1   7
ATOM      7  O   UNL     1      39.019 -25.401 -13.153  0.00  0.00    -0.269 OA
BRANCH   7   8
ATOM      8  C   UNL     1      37.675 -25.698 -12.815  0.00  0.00    +0.199 C 
BRANCH   8  12
ATOM      9 CL   UNL     1      36.201 -23.833 -14.118  0.00  0.00    -0.080 Cl
ATOM     10 CL   UNL     1      37.935 -23.143 -11.888  0.00  0.00    -0.080 Cl
ATOM     11 CL   UNL     1      35.530 -24.724 -11.434  0.00  0.00    -0.080 Cl
ATOM     12  C   UNL     1      36.880 -24.416 -12.567  0.00  0.00    +0.226 C 
ENDBRANCH   8  12
ENDBRANCH   7   8
ENDBRANCH   1   7
TORSDOF 5
ENDMDL
MODEL 8
REMARK VINA RESULT:      -5.1      1.156      2.069
REMARK  Name = 5563
REMARK  5 active torsions:
REMARK  status: ('A' for Active; 'I' for Inactive)
REMARK    1  A    between atoms: P_1  and  O_3
REMARK    2  A    between atoms: P_1  and  O_5
REMARK    3  A    between atoms: P_1  and  O_7
REMARK    4  A    between atoms: O_7  and  C_8
REMARK    5  A    between atoms: C_8  and  C_12
REMARK                            x       y       z     vdW  Elec       q    Type
REMARK                         _______ _______ _______ _____ _____    ______ ____
ROOT
ATOM      1  P   UNL     1      39.883 -25.274 -14.758  0.00  0.00    +0.473 P 
ATOM      2  O   UNL     1      41.012 -24.636 -14.005  0.00  0.00    -0.227 OA
ENDROOT
BRANCH   1   3
ATOM      3  O   UNL     1      40.265 -25.850 -16.220  0.00  0.00    -0.303 OA
ATOM      4  H   UNL     1      41.204 -25.686 -16.398  0.00  0.00    +0.222 HD
ENDBRANCH   1   3
BRANCH   1   5
ATOM      5  O   UNL     1      39.205 -26.546 -14.023  0.00  0.00    -0.303 OA
ATOM      6  H   UNL     1      39.468 -26.559 -13.090  0.00  0.00    +0.222 HD
ENDBRANCH   1   5
BRANCH   1   7
ATOM      7  O   UNL     1      38.617 -24.307 -15.044  0.00  0.00    -0.269 OA
BRANCH   7   8
ATOM      8  C   UNL     1      37.653 -24.133 -14.021  0.00  0.00    +0.199 C 
BRANCH   8  12
ATOM      9 CL   UNL     1      35.930 -23.144 -15.866  0.00  0.00    -0.080 Cl
ATOM     10 CL   UNL     1      35.028 -24.095 -13.270  0.00  0.00    -0.080 Cl
ATOM     11 CL   UNL     1      36.055 -25.980 -15.242  0.00  0.00    -0.080 Cl
ATOM     12  C   UNL     1      36.239 -24.335 -14.564  0.00  0.00    +0.226 C 
ENDBRANCH   8  12
ENDBRANCH   7   8
ENDBRANCH   1   7
TORSDOF 5
ENDMDL
MODEL 9
REMARK VINA RESULT:      -5.0     11.596     12.290
REMARK  Name = 5563
REMARK  5 active torsions:
REMARK  status: ('A' for Active; 'I' for Inactive)
REMARK    1  A    between atoms: P_1  and  O_3
REMARK    2  A    between atoms: P_1  and  O_5
REMARK    3  A    between atoms: P_1  and  O_7
REMARK    4  A    between atoms: O_7  and  C_8
REMARK    5  A    between atoms: C_8  and  C_12
REMARK                            x       y       z     vdW  Elec       q    Type
REMARK                         _______ _______ _______ _____ _____    ______ ____
ROOT
ATOM      1  P   UNL     1      34.037 -15.256 -21.762  0.00  0.00    +0.473 P 
ATOM      2  O   UNL     1      32.555 -15.037 -21.684  0.00  0.00    -0.227 OA
ENDROOT
BRANCH   1   3
ATOM      3  O   UNL     1      34.815 -14.345 -22.847  0.00  0.00    -0.303 OA
ATOM      4  H   UNL     1      35.088 -13.510 -22.434  0.00  0.00    +0.222 HD
ENDBRANCH   1   3
BRANCH   1   5
ATOM      5  O   UNL     1      34.843 -14.969 -20.389  0.00  0.00    -0.303 OA
ATOM      6  H   UNL     1      34.367 -14.304 -19.868  0.00  0.00    +0.222 HD
ENDBRANCH   1   5
BRANCH   1   7
ATOM      7  O   UNL     1      34.487 -16.766 -22.135  0.00  0.00    -0.269 OA
BRANCH   7   8
ATOM      8  C   UNL     1      35.024 -17.584 -21.111  0.00  0.00    +0.199 C 
BRANCH   8  12
ATOM      9 CL   UNL     1      36.033 -20.047 -20.596  0.00  0.00    -0.080 Cl
ATOM     10 CL   UNL     1      34.857 -19.371 -23.168  0.00  0.00    -0.080 Cl
ATOM     11 CL   UNL     1      33.174 -19.568 -20.797  0.00  0.00    -0.080 Cl
ATOM     12  C   UNL     1      34.777 -19.063 -21.409  0.00  0.00    +0.226 C 
ENDBRANCH   8  12
ENDBRANCH   7   8
ENDBRANCH   1   7
TORSDOF 5
ENDMDL
