MODEL 1
REMARK VINA RESULT:      -8.8      0.000      0.000
REMARK  Name = 449489
REMARK  7 active torsions:
REMARK  status: ('A' for Active; 'I' for Inactive)
REMARK    1  A    between atoms: C_2  and  O_16
REMARK    2  A    between atoms: C_3  and  C_18
REMARK    3  A    between atoms: C_5  and  N_9
REMARK    4  A    between atoms: C_18  and  O_19
REMARK    5  A    between atoms: O_19  and  P_20
REMARK    6  A    between atoms: P_20  and  O_22
REMARK    7  A    between atoms: P_20  and  O_24
REMARK                            x       y       z     vdW  Elec       q    Type
REMARK                         _______ _______ _______ _____ _____    ______ ____
ROOT
ATOM      1  O   UNL     1      35.803 -24.985 -15.877  0.00  0.00    -0.335 OA
ATOM      2  C   UNL     1      37.309 -23.623 -14.653  0.00  0.00    +0.144 C 
ATOM      3  C   UNL     1      36.690 -25.012 -14.742  0.00  0.00    +0.174 C 
ATOM      4  C   UNL     1      36.237 -22.733 -15.239  0.00  0.00    +0.083 C 
ATOM      5  C   UNL     1      35.608 -23.627 -16.296  0.00  0.00    +0.202 C 
ENDROOT
BRANCH   5   9
ATOM      6  I   UNL     1      30.852 -23.680 -13.776  0.00  0.00    -0.036 I 
ATOM      7  O   UNL     1      34.383 -22.761 -18.715  0.00  0.00    -0.252 OA
ATOM      8  O   UNL     1      30.207 -22.723 -16.806  0.00  0.00    -0.269 OA
ATOM      9  N   UNL     1      34.207 -23.381 -16.471  0.00  0.00    -0.218 N 
ATOM     10  N   UNL     1      32.307 -22.750 -17.742  0.00  0.00    -0.235 N 
ATOM     11  C   UNL     1      33.691 -22.952 -17.713  0.00  0.00    +0.315 C 
ATOM     12  C   UNL     1      33.359 -23.571 -15.387  0.00  0.00    +0.081 C 
ATOM     13  C   UNL     1      32.036 -23.376 -15.420  0.00  0.00    +0.099 C 
ATOM     14  C   UNL     1      31.413 -22.924 -16.694  0.00  0.00    +0.259 C 
ATOM     15  H   UNL     1      31.926 -22.452 -18.599  0.00  0.00    +0.159 HD
ENDBRANCH   5   9
BRANCH   2  16
ATOM     16  O   UNL     1      38.480 -23.561 -15.463  0.00  0.00    -0.382 OA
ATOM     17  H   UNL     1      39.186 -23.107 -14.975  0.00  0.00    +0.210 HD
ENDBRANCH   2  16
BRANCH   3  18
ATOM     18  C   UNL     1      35.868 -25.373 -13.513  0.00  0.00    +0.186 C 
BRANCH  18  19
ATOM     19  O   UNL     1      36.630 -25.083 -12.352  0.00  0.00    -0.271 OA
BRANCH  19  20
ATOM     20  P   UNL     1      36.011 -24.063 -11.259  0.00  0.00    +0.473 P 
ATOM     21  O   UNL     1      36.975 -23.046 -10.723  0.00  0.00    -0.227 OA
BRANCH  20  22
ATOM     22  O   UNL     1      35.351 -25.040 -10.151  0.00  0.00    -0.303 OA
ATOM     23  H   UNL     1      34.620 -24.580  -9.710  0.00  0.00    +0.222 HD
ENDBRANCH  20  22
BRANCH  20  24
ATOM     24  O   UNL     1      34.727 -23.449 -12.025  0.00  0.00    -0.303 OA
ATOM     25  H   UNL     1      34.833 -22.490 -12.117  0.00  0.00    +0.222 HD
ENDBRANCH  20  24
ENDBRANCH  19  20
ENDBRANCH  18  19
ENDBRANCH   3  18
TORSDOF 7
ENDMDL
MODEL 2
REMARK VINA RESULT:      -8.6      2.804      4.154
REMARK  Name = 449489
REMARK  7 active torsions:
REMARK  status: ('A' for Active; 'I' for Inactive)
REMARK    1  A    between atoms: C_2  and  O_16
REMARK    2  A    between atoms: C_3  and  C_18
REMARK    3  A    between atoms: C_5  and  N_9
REMARK    4  A    between atoms: C_18  and  O_19
REMARK    5  A    between atoms: O_19  and  P_20
REMARK    6  A    between atoms: P_20  and  O_22
REMARK    7  A    between atoms: P_20  and  O_24
REMARK                            x       y       z     vdW  Elec       q    Type
REMARK                         _______ _______ _______ _____ _____    ______ ____
ROOT
ATOM      1  O   UNL     1      35.865 -22.793 -14.670  0.00  0.00    -0.335 OA
ATOM      2  C   UNL     1      36.038 -25.018 -13.869  0.00  0.00    +0.144 C 
ATOM      3  C   UNL     1      36.823 -23.751 -14.183  0.00  0.00    +0.174 C 
ATOM      4  C   UNL     1      34.887 -24.957 -14.846  0.00  0.00    +0.083 C 
ATOM      5  C   UNL     1      34.628 -23.463 -14.958  0.00  0.00    +0.202 C 
ENDROOT
BRANCH   5   9
ATOM      6  I   UNL     1      36.203 -21.371 -19.661  0.00  0.00    -0.036 I 
ATOM      7  O   UNL     1      31.947 -23.685 -15.887  0.00  0.00    -0.252 OA
ATOM      8  O   UNL     1      33.025 -21.922 -19.988  0.00  0.00    -0.269 OA
ATOM      9  N   UNL     1      34.169 -23.073 -16.259  0.00  0.00    -0.218 N 
ATOM     10  N   UNL     1      32.507 -22.802 -17.927  0.00  0.00    -0.235 N 
ATOM     11  C   UNL     1      32.816 -23.222 -16.630  0.00  0.00    +0.315 C 
ATOM     12  C   UNL     1      35.089 -22.544 -17.155  0.00  0.00    +0.081 C 
ATOM     13  C   UNL     1      34.788 -22.143 -18.397  0.00  0.00    +0.099 C 
ATOM     14  C   UNL     1      33.381 -22.266 -18.865  0.00  0.00    +0.259 C 
ATOM     15  H   UNL     1      31.568 -22.896 -18.207  0.00  0.00    +0.159 HD
ENDBRANCH   5   9
BRANCH   2  16
ATOM     16  O   UNL     1      35.540 -24.962 -12.535  0.00  0.00    -0.382 OA
ATOM     17  H   UNL     1      36.066 -24.330 -12.019  0.00  0.00    +0.210 HD
ENDBRANCH   2  16
BRANCH   3  18
ATOM     18  C   UNL     1      37.872 -23.958 -15.267  0.00  0.00    +0.186 C 
BRANCH  18  19
ATOM     19  O   UNL     1      39.111 -24.274 -14.651  0.00  0.00    -0.271 OA
BRANCH  19  20
ATOM     20  P   UNL     1      39.679 -25.782 -14.792  0.00  0.00    +0.473 P 
ATOM     21  O   UNL     1      38.677 -26.866 -14.524  0.00  0.00    -0.227 OA
BRANCH  20  22
ATOM     22  O   UNL     1      40.982 -25.794 -13.834  0.00  0.00    -0.303 OA
ATOM     23  H   UNL     1      40.958 -25.022 -13.246  0.00  0.00    +0.222 HD
ENDBRANCH  20  22
BRANCH  20  24
ATOM     24  O   UNL     1      40.313 -25.790 -16.280  0.00  0.00    -0.303 OA
ATOM     25  H   UNL     1      39.612 -25.628 -16.931  0.00  0.00    +0.222 HD
ENDBRANCH  20  24
ENDBRANCH  19  20
ENDBRANCH  18  19
ENDBRANCH   3  18
TORSDOF 7
ENDMDL
MODEL 3
REMARK VINA RESULT:      -8.6      3.341      6.517
REMARK  Name = 449489
REMARK  7 active torsions:
REMARK  status: ('A' for Active; 'I' for Inactive)
REMARK    1  A    between atoms: C_2  and  O_16
REMARK    2  A    between atoms: C_3  and  C_18
REMARK    3  A    between atoms: C_5  and  N_9
REMARK    4  A    between atoms: C_18  and  O_19
REMARK    5  A    between atoms: O_19  and  P_20
REMARK    6  A    between atoms: P_20  and  O_22
REMARK    7  A    between atoms: P_20  and  O_24
REMARK                            x       y       z     vdW  Elec       q    Type
REMARK                         _______ _______ _______ _____ _____    ______ ____
ROOT
ATOM      1  O   UNL     1      31.957 -25.409 -14.525  0.00  0.00    -0.335 OA
ATOM      2  C   UNL     1      30.322 -24.083 -13.436  0.00  0.00    +0.144 C 
ATOM      3  C   UNL     1      30.536 -25.182 -14.468  0.00  0.00    +0.174 C 
ATOM      4  C   UNL     1      31.599 -23.280 -13.521  0.00  0.00    +0.083 C 
ATOM      5  C   UNL     1      32.636 -24.345 -13.843  0.00  0.00    +0.202 C 
ENDROOT
BRANCH   5   9
ATOM      6  I   UNL     1      33.800 -22.488 -18.759  0.00  0.00    -0.036 I 
ATOM      7  O   UNL     1      35.346 -24.051 -13.026  0.00  0.00    -0.252 OA
ATOM      8  O   UNL     1      36.607 -22.440 -17.137  0.00  0.00    -0.269 OA
ATOM      9  N   UNL     1      33.700 -23.854 -14.669  0.00  0.00    -0.218 N 
ATOM     10  N   UNL     1      35.954 -23.250 -15.086  0.00  0.00    -0.235 N 
ATOM     11  C   UNL     1      35.016 -23.743 -14.173  0.00  0.00    +0.315 C 
ATOM     12  C   UNL     1      33.408 -23.484 -15.975  0.00  0.00    +0.081 C 
ATOM     13  C   UNL     1      34.309 -23.012 -16.845  0.00  0.00    +0.099 C 
ATOM     14  C   UNL     1      35.722 -22.866 -16.400  0.00  0.00    +0.259 C 
ATOM     15  H   UNL     1      36.879 -23.166 -14.762  0.00  0.00    +0.159 HD
ENDBRANCH   5   9
BRANCH   2  16
ATOM     16  O   UNL     1      30.199 -24.655 -12.136  0.00  0.00    -0.382 OA
ATOM     17  H   UNL     1      30.467 -25.587 -12.167  0.00  0.00    +0.210 HD
ENDBRANCH   2  16
BRANCH   3  18
ATOM     18  C   UNL     1      30.068 -24.785 -15.862  0.00  0.00    +0.186 C 
BRANCH  18  19
ATOM     19  O   UNL     1      28.728 -24.327 -15.781  0.00  0.00    -0.271 OA
BRANCH  19  20
ATOM     20  P   UNL     1      28.343 -22.938 -16.515  0.00  0.00    +0.473 P 
ATOM     21  O   UNL     1      27.645 -21.932 -15.647  0.00  0.00    -0.227 OA
BRANCH  20  22
ATOM     22  O   UNL     1      27.519 -23.409 -17.824  0.00  0.00    -0.303 OA
ATOM     23  H   UNL     1      27.869 -22.956 -18.608  0.00  0.00    +0.222 HD
ENDBRANCH  20  22
BRANCH  20  24
ATOM     24  O   UNL     1      29.759 -22.448 -17.124  0.00  0.00    -0.303 OA
ATOM     25  H   UNL     1      30.291 -23.221 -17.369  0.00  0.00    +0.222 HD
ENDBRANCH  20  24
ENDBRANCH  19  20
ENDBRANCH  18  19
ENDBRANCH   3  18
TORSDOF 7
ENDMDL
MODEL 4
REMARK VINA RESULT:      -8.4      2.172      3.646
REMARK  Name = 449489
REMARK  7 active torsions:
REMARK  status: ('A' for Active; 'I' for Inactive)
REMARK    1  A    between atoms: C_2  and  O_16
REMARK    2  A    between atoms: C_3  and  C_18
REMARK    3  A    between atoms: C_5  and  N_9
REMARK    4  A    between atoms: C_18  and  O_19
REMARK    5  A    between atoms: O_19  and  P_20
REMARK    6  A    between atoms: P_20  and  O_22
REMARK    7  A    between atoms: P_20  and  O_24
REMARK                            x       y       z     vdW  Elec       q    Type
REMARK                         _______ _______ _______ _____ _____    ______ ____
ROOT
ATOM      1  O   UNL     1      36.958 -23.670 -13.873  0.00  0.00    -0.335 OA
ATOM      2  C   UNL     1      36.404 -25.032 -12.014  0.00  0.00    +0.144 C 
ATOM      3  C   UNL     1      37.440 -24.786 -13.103  0.00  0.00    +0.174 C 
ATOM      4  C   UNL     1      35.118 -24.562 -12.653  0.00  0.00    +0.083 C 
ATOM      5  C   UNL     1      35.588 -23.413 -13.531  0.00  0.00    +0.202 C 
ENDROOT
BRANCH   5   9
ATOM      6  I   UNL     1      30.603 -23.742 -15.537  0.00  0.00    -0.036 I 
ATOM      7  O   UNL     1      36.633 -22.720 -16.086  0.00  0.00    -0.252 OA
ATOM      8  O   UNL     1      32.487 -22.933 -18.049  0.00  0.00    -0.269 OA
ATOM      9  N   UNL     1      34.816 -23.279 -14.732  0.00  0.00    -0.218 N 
ATOM     10  N   UNL     1      34.554 -22.833 -17.045  0.00  0.00    -0.235 N 
ATOM     11  C   UNL     1      35.425 -22.930 -15.955  0.00  0.00    +0.315 C 
ATOM     12  C   UNL     1      33.445 -23.497 -14.667  0.00  0.00    +0.081 C 
ATOM     13  C   UNL     1      32.616 -23.403 -15.713  0.00  0.00    +0.099 C 
ATOM     14  C   UNL     1      33.181 -23.040 -17.041  0.00  0.00    +0.259 C 
ATOM     15  H   UNL     1      34.958 -22.592 -17.910  0.00  0.00    +0.159 HD
ENDBRANCH   5   9
BRANCH   2  16
ATOM     16  O   UNL     1      36.697 -24.226 -10.875  0.00  0.00    -0.382 OA
ATOM     17  H   UNL     1      37.638 -23.987 -10.881  0.00  0.00    +0.210 HD
ENDBRANCH   2  16
BRANCH   3  18
ATOM     18  C   UNL     1      37.601 -25.972 -14.045  0.00  0.00    +0.186 C 
BRANCH  18  19
ATOM     19  O   UNL     1      38.978 -26.302 -14.134  0.00  0.00    -0.271 OA
BRANCH  19  20
ATOM     20  P   UNL     1      39.980 -25.243 -14.835  0.00  0.00    +0.473 P 
ATOM     21  O   UNL     1      40.952 -24.578 -13.905  0.00  0.00    -0.227 OA
BRANCH  20  22
ATOM     22  O   UNL     1      38.989 -24.242 -15.629  0.00  0.00    -0.303 OA
ATOM     23  H   UNL     1      39.478 -23.800 -16.340  0.00  0.00    +0.222 HD
ENDBRANCH  20  22
BRANCH  20  24
ATOM     24  O   UNL     1      40.655 -26.115 -16.019  0.00  0.00    -0.303 OA
ATOM     25  H   UNL     1      41.113 -25.523 -16.635  0.00  0.00    +0.222 HD
ENDBRANCH  20  24
ENDBRANCH  19  20
ENDBRANCH  18  19
ENDBRANCH   3  18
TORSDOF 7
ENDMDL
MODEL 5
REMARK VINA RESULT:      -8.0      2.802      4.200
REMARK  Name = 449489
REMARK  7 active torsions:
REMARK  status: ('A' for Active; 'I' for Inactive)
REMARK    1  A    between atoms: C_2  and  O_16
REMARK    2  A    between atoms: C_3  and  C_18
REMARK    3  A    between atoms: C_5  and  N_9
REMARK    4  A    between atoms: C_18  and  O_19
REMARK    5  A    between atoms: O_19  and  P_20
REMARK    6  A    between atoms: P_20  and  O_22
REMARK    7  A    between atoms: P_20  and  O_24
REMARK                            x       y       z     vdW  Elec       q    Type
REMARK                         _______ _______ _______ _____ _____    ______ ____
ROOT
ATOM      1  O   UNL     1      36.859 -23.573 -14.179  0.00  0.00    -0.335 OA
ATOM      2  C   UNL     1      36.920 -25.094 -12.361  0.00  0.00    +0.144 C 
ATOM      3  C   UNL     1      37.649 -24.640 -13.620  0.00  0.00    +0.174 C 
ATOM      4  C   UNL     1      35.473 -24.795 -12.677  0.00  0.00    +0.083 C 
ATOM      5  C   UNL     1      35.575 -23.546 -13.538  0.00  0.00    +0.202 C 
ENDROOT
BRANCH   5   9
ATOM      6  I   UNL     1      34.639 -22.406 -18.715  0.00  0.00    -0.036 I 
ATOM      7  O   UNL     1      32.823 -24.134 -13.110  0.00  0.00    -0.252 OA
ATOM      8  O   UNL     1      31.754 -23.218 -17.481  0.00  0.00    -0.269 OA
ATOM      9  N   UNL     1      34.549 -23.472 -14.536  0.00  0.00    -0.218 N 
ATOM     10  N   UNL     1      32.312 -23.670 -15.296  0.00  0.00    -0.235 N 
ATOM     11  C   UNL     1      33.208 -23.785 -14.228  0.00  0.00    +0.315 C 
ATOM     12  C   UNL     1      34.901 -23.088 -15.824  0.00  0.00    +0.081 C 
ATOM     13  C   UNL     1      34.040 -22.981 -16.843  0.00  0.00    +0.099 C 
ATOM     14  C   UNL     1      32.605 -23.291 -16.599  0.00  0.00    +0.259 C 
ATOM     15  H   UNL     1      31.370 -23.882 -15.103  0.00  0.00    +0.159 HD
ENDBRANCH   5   9
BRANCH   2  16
ATOM     16  O   UNL     1      37.341 -24.309 -11.248  0.00  0.00    -0.382 OA
ATOM     17  H   UNL     1      36.751 -23.544 -11.150  0.00  0.00    +0.210 HD
ENDBRANCH   2  16
BRANCH   3  18
ATOM     18  C   UNL     1      37.762 -25.739 -14.667  0.00  0.00    +0.186 C 
BRANCH  18  19
ATOM     19  O   UNL     1      38.890 -26.545 -14.364  0.00  0.00    -0.271 OA
BRANCH  19  20
ATOM     20  P   UNL     1      40.365 -25.931 -14.617  0.00  0.00    +0.473 P 
ATOM     21  O   UNL     1      40.628 -24.614 -13.948  0.00  0.00    -0.227 OA
BRANCH  20  22
ATOM     22  O   UNL     1      40.509 -25.928 -16.228  0.00  0.00    -0.303 OA
ATOM     23  H   UNL     1      41.411 -25.667 -16.471  0.00  0.00    +0.222 HD
ENDBRANCH  20  22
BRANCH  20  24
ATOM     24  O   UNL     1      41.341 -27.137 -14.159  0.00  0.00    -0.303 OA
ATOM     25  H   UNL     1      41.143 -27.382 -13.242  0.00  0.00    +0.222 HD
ENDBRANCH  20  24
ENDBRANCH  19  20
ENDBRANCH  18  19
ENDBRANCH   3  18
TORSDOF 7
ENDMDL
MODEL 6
REMARK VINA RESULT:      -7.8      3.724      6.527
REMARK  Name = 449489
REMARK  7 active torsions:
REMARK  status: ('A' for Active; 'I' for Inactive)
REMARK    1  A    between atoms: C_2  and  O_16
REMARK    2  A    between atoms: C_3  and  C_18
REMARK    3  A    between atoms: C_5  and  N_9
REMARK    4  A    between atoms: C_18  and  O_19
REMARK    5  A    between atoms: O_19  and  P_20
REMARK    6  A    between atoms: P_20  and  O_22
REMARK    7  A    between atoms: P_20  and  O_24
REMARK                            x       y       z     vdW  Elec       q    Type
REMARK                         _______ _______ _______ _____ _____    ______ ____
ROOT
ATOM      1  O   UNL     1      31.879 -25.501 -14.347  0.00  0.00    -0.335 OA
ATOM      2  C   UNL     1      30.262 -24.049 -13.400  0.00  0.00    +0.144 C 
ATOM      3  C   UNL     1      30.472 -25.195 -14.381  0.00  0.00    +0.174 C 
ATOM      4  C   UNL     1      31.585 -23.321 -13.436  0.00  0.00    +0.083 C 
ATOM      5  C   UNL     1      32.577 -24.451 -13.661  0.00  0.00    +0.202 C 
ENDROOT
BRANCH   5   9
ATOM      6  I   UNL     1      37.946 -24.705 -13.940  0.00  0.00    -0.036 I 
ATOM      7  O   UNL     1      32.466 -22.927 -16.062  0.00  0.00    -0.252 OA
ATOM      8  O   UNL     1      37.033 -22.992 -16.536  0.00  0.00    -0.269 OA
ATOM      9  N   UNL     1      33.712 -24.050 -14.439  0.00  0.00    -0.218 N 
ATOM     10  N   UNL     1      34.748 -22.971 -16.279  0.00  0.00    -0.235 N 
ATOM     11  C   UNL     1      33.556 -23.293 -15.620  0.00  0.00    +0.315 C 
ATOM     12  C   UNL     1      34.978 -24.424 -14.007  0.00  0.00    +0.081 C 
ATOM     13  C   UNL     1      36.115 -24.115 -14.642  0.00  0.00    +0.099 C 
ATOM     14  C   UNL     1      36.037 -23.316 -15.896  0.00  0.00    +0.259 C 
ATOM     15  H   UNL     1      34.663 -22.442 -17.105  0.00  0.00    +0.159 HD
ENDBRANCH   5   9
BRANCH   2  16
ATOM     16  O   UNL     1      30.033 -24.566 -12.091  0.00  0.00    -0.382 OA
ATOM     17  H   UNL     1      30.301 -23.907 -11.432  0.00  0.00    +0.210 HD
ENDBRANCH   2  16
BRANCH   3  18
ATOM     18  C   UNL     1      30.107 -24.824 -15.812  0.00  0.00    +0.186 C 
BRANCH  18  19
ATOM     19  O   UNL     1      28.757 -24.386 -15.841  0.00  0.00    -0.271 OA
BRANCH  19  20
ATOM     20  P   UNL     1      28.399 -23.047 -16.675  0.00  0.00    +0.473 P 
ATOM     21  O   UNL     1      27.447 -23.247 -17.818  0.00  0.00    -0.227 OA
BRANCH  20  22
ATOM     22  O   UNL     1      29.845 -22.447 -17.079  0.00  0.00    -0.303 OA
ATOM     23  H   UNL     1      30.425 -23.168 -17.370  0.00  0.00    +0.222 HD
ENDBRANCH  20  22
BRANCH  20  24
ATOM     24  O   UNL     1      27.884 -22.033 -15.526  0.00  0.00    -0.303 OA
ATOM     25  H   UNL     1      28.479 -22.081 -14.762  0.00  0.00    +0.222 HD
ENDBRANCH  20  24
ENDBRANCH  19  20
ENDBRANCH  18  19
ENDBRANCH   3  18
TORSDOF 7
ENDMDL
MODEL 7
REMARK VINA RESULT:      -7.5      1.434      1.952
REMARK  Name = 449489
REMARK  7 active torsions:
REMARK  status: ('A' for Active; 'I' for Inactive)
REMARK    1  A    between atoms: C_2  and  O_16
REMARK    2  A    between atoms: C_3  and  C_18
REMARK    3  A    between atoms: C_5  and  N_9
REMARK    4  A    between atoms: C_18  and  O_19
REMARK    5  A    between atoms: O_19  and  P_20
REMARK    6  A    between atoms: P_20  and  O_22
REMARK    7  A    between atoms: P_20  and  O_24
REMARK                            x       y       z     vdW  Elec       q    Type
REMARK                         _______ _______ _______ _____ _____    ______ ____
ROOT
ATOM      1  O   UNL     1      35.617 -24.338 -15.945  0.00  0.00    -0.335 OA
ATOM      2  C   UNL     1      37.144 -22.548 -15.658  0.00  0.00    +0.144 C 
ATOM      3  C   UNL     1      36.696 -23.893 -15.102  0.00  0.00    +0.174 C 
ATOM      4  C   UNL     1      35.881 -21.994 -16.274  0.00  0.00    +0.083 C 
ATOM      5  C   UNL     1      35.180 -23.248 -16.772  0.00  0.00    +0.202 C 
ENDROOT
BRANCH   5   9
ATOM      6  I   UNL     1      30.925 -23.923 -13.545  0.00  0.00    -0.036 I 
ATOM      7  O   UNL     1      33.499 -22.423 -18.915  0.00  0.00    -0.252 OA
ATOM      8  O   UNL     1      29.704 -22.918 -16.376  0.00  0.00    -0.269 OA
ATOM      9  N   UNL     1      33.752 -23.149 -16.711  0.00  0.00    -0.218 N 
ATOM     10  N   UNL     1      31.617 -22.678 -17.629  0.00  0.00    -0.235 N 
ATOM     11  C   UNL     1      33.001 -22.729 -17.829  0.00  0.00    +0.315 C 
ATOM     12  C   UNL     1      33.114 -23.475 -15.520  0.00  0.00    +0.081 C 
ATOM     13  C   UNL     1      31.790 -23.424 -15.334  0.00  0.00    +0.099 C 
ATOM     14  C   UNL     1      30.927 -22.991 -16.466  0.00  0.00    +0.259 C 
ATOM     15  H   UNL     1      31.074 -22.388 -18.397  0.00  0.00    +0.159 HD
ENDBRANCH   5   9
BRANCH   2  16
ATOM     16  O   UNL     1      38.127 -22.744 -16.672  0.00  0.00    -0.382 OA
ATOM     17  H   UNL     1      38.312 -23.693 -16.763  0.00  0.00    +0.210 HD
ENDBRANCH   2  16
BRANCH   3  18
ATOM     18  C   UNL     1      36.170 -23.799 -13.676  0.00  0.00    +0.186 C 
BRANCH  18  19
ATOM     19  O   UNL     1      37.100 -24.422 -12.804  0.00  0.00    -0.271 OA
BRANCH  19  20
ATOM     20  P   UNL     1      37.457 -25.982 -13.046  0.00  0.00    +0.473 P 
ATOM     21  O   UNL     1      38.871 -26.251 -13.472  0.00  0.00    -0.227 OA
BRANCH  20  22
ATOM     22  O   UNL     1      36.318 -26.482 -14.079  0.00  0.00    -0.303 OA
ATOM     23  H   UNL     1      36.402 -27.439 -14.215  0.00  0.00    +0.222 HD
ENDBRANCH  20  22
BRANCH  20  24
ATOM     24  O   UNL     1      37.022 -26.672 -11.650  0.00  0.00    -0.303 OA
ATOM     25  H   UNL     1      37.531 -26.281 -10.923  0.00  0.00    +0.222 HD
ENDBRANCH  20  24
ENDBRANCH  19  20
ENDBRANCH  18  19
ENDBRANCH   3  18
TORSDOF 7
ENDMDL
MODEL 8
REMARK VINA RESULT:      -7.3      8.524     11.438
REMARK  Name = 449489
REMARK  7 active torsions:
REMARK  status: ('A' for Active; 'I' for Inactive)
REMARK    1  A    between atoms: C_2  and  O_16
REMARK    2  A    between atoms: C_3  and  C_18
REMARK    3  A    between atoms: C_5  and  N_9
REMARK    4  A    between atoms: C_18  and  O_19
REMARK    5  A    between atoms: O_19  and  P_20
REMARK    6  A    between atoms: P_20  and  O_22
REMARK    7  A    between atoms: P_20  and  O_24
REMARK                            x       y       z     vdW  Elec       q    Type
REMARK                         _______ _______ _______ _____ _____    ______ ____
ROOT
ATOM      1  O   UNL     1      35.744 -16.640 -22.890  0.00  0.00    -0.335 OA
ATOM      2  C   UNL     1      34.252 -16.979 -24.702  0.00  0.00    +0.144 C 
ATOM      3  C   UNL     1      34.648 -16.018 -23.588  0.00  0.00    +0.174 C 
ATOM      4  C   UNL     1      34.618 -18.330 -24.135  0.00  0.00    +0.083 C 
ATOM      5  C   UNL     1      35.846 -18.013 -23.296  0.00  0.00    +0.202 C 
ENDROOT
BRANCH   5   9
ATOM      6  I   UNL     1      33.021 -21.016 -19.835  0.00  0.00    -0.036 I 
ATOM      7  O   UNL     1      38.269 -18.611 -21.927  0.00  0.00    -0.252 OA
ATOM      8  O   UNL     1      36.099 -21.229 -18.840  0.00  0.00    -0.269 OA
ATOM      9  N   UNL     1      35.956 -18.844 -22.133  0.00  0.00    -0.218 N 
ATOM     10  N   UNL     1      37.165 -19.912 -20.396  0.00  0.00    -0.235 N 
ATOM     11  C   UNL     1      37.205 -19.084 -21.522  0.00  0.00    +0.315 C 
ATOM     12  C   UNL     1      34.800 -19.416 -21.615  0.00  0.00    +0.081 C 
ATOM     13  C   UNL     1      34.768 -20.210 -20.538  0.00  0.00    +0.099 C 
ATOM     14  C   UNL     1      36.045 -20.510 -19.835  0.00  0.00    +0.259 C 
ATOM     15  H   UNL     1      38.026 -20.092 -19.953  0.00  0.00    +0.159 HD
ENDBRANCH   5   9
BRANCH   2  16
ATOM     16  O   UNL     1      35.032 -16.719 -25.866  0.00  0.00    -0.382 OA
ATOM     17  H   UNL     1      35.610 -15.955 -25.705  0.00  0.00    +0.210 HD
ENDBRANCH   2  16
BRANCH   3  18
ATOM     18  C   UNL     1      33.527 -15.782 -22.584  0.00  0.00    +0.186 C 
BRANCH  18  19
ATOM     19  O   UNL     1      33.471 -14.397 -22.279  0.00  0.00    -0.271 OA
BRANCH  19  20
ATOM     20  P   UNL     1      32.935 -13.379 -23.417  0.00  0.00    +0.473 P 
ATOM     21  O   UNL     1      32.475 -14.033 -24.687  0.00  0.00    -0.227 OA
BRANCH  20  22
ATOM     22  O   UNL     1      34.143 -12.318 -23.585  0.00  0.00    -0.303 OA
ATOM     23  H   UNL     1      34.416 -11.997 -22.711  0.00  0.00    +0.222 HD
ENDBRANCH  20  22
BRANCH  20  24
ATOM     24  O   UNL     1      31.801 -12.531 -22.636  0.00  0.00    -0.303 OA
ATOM     25  H   UNL     1      31.183 -12.149 -23.279  0.00  0.00    +0.222 HD
ENDBRANCH  20  24
ENDBRANCH  19  20
ENDBRANCH  18  19
ENDBRANCH   3  18
TORSDOF 7
ENDMDL
MODEL 9
REMARK VINA RESULT:      -7.2      2.405      3.526
REMARK  Name = 449489
REMARK  7 active torsions:
REMARK  status: ('A' for Active; 'I' for Inactive)
REMARK    1  A    between atoms: C_2  and  O_16
REMARK    2  A    between atoms: C_3  and  C_18
REMARK    3  A    between atoms: C_5  and  N_9
REMARK    4  A    between atoms: C_18  and  O_19
REMARK    5  A    between atoms: O_19  and  P_20
REMARK    6  A    between atoms: P_20  and  O_22
REMARK    7  A    between atoms: P_20  and  O_24
REMARK                            x       y       z     vdW  Elec       q    Type
REMARK                         _______ _______ _______ _____ _____    ______ ____
ROOT
ATOM      1  O   UNL     1      38.077 -23.671 -14.469  0.00  0.00    -0.335 OA
ATOM      2  C   UNL     1      37.982 -23.931 -12.115  0.00  0.00    +0.144 C 
ATOM      3  C   UNL     1      38.573 -24.498 -13.399  0.00  0.00    +0.174 C 
ATOM      4  C   UNL     1      36.675 -23.330 -12.576  0.00  0.00    +0.083 C 
ATOM      5  C   UNL     1      37.010 -22.847 -13.977  0.00  0.00    +0.202 C 
ENDROOT
BRANCH   5   9
ATOM      6  I   UNL     1      31.729 -23.849 -14.251  0.00  0.00    -0.036 I 
ATOM      7  O   UNL     1      37.127 -22.382 -16.783  0.00  0.00    -0.252 OA
ATOM      8  O   UNL     1      32.635 -23.191 -17.293  0.00  0.00    -0.269 OA
ATOM      9  N   UNL     1      35.896 -22.927 -14.876  0.00  0.00    -0.218 N 
ATOM     10  N   UNL     1      34.883 -22.791 -17.015  0.00  0.00    -0.235 N 
ATOM     11  C   UNL     1      36.053 -22.678 -16.256  0.00  0.00    +0.315 C 
ATOM     12  C   UNL     1      34.649 -23.254 -14.359  0.00  0.00    +0.081 C 
ATOM     13  C   UNL     1      33.533 -23.360 -15.089  0.00  0.00    +0.099 C 
ATOM     14  C   UNL     1      33.614 -23.114 -16.555  0.00  0.00    +0.259 C 
ATOM     15  H   UNL     1      34.969 -22.622 -17.981  0.00  0.00    +0.159 HD
ENDBRANCH   5   9
BRANCH   2  16
ATOM     16  O   UNL     1      38.829 -22.904 -11.603  0.00  0.00    -0.382 OA
ATOM     17  H   UNL     1      38.795 -22.134 -12.193  0.00  0.00    +0.210 HD
ENDBRANCH   2  16
BRANCH   3  18
ATOM     18  C   UNL     1      38.134 -25.930 -13.671  0.00  0.00    +0.186 C 
BRANCH  18  19
ATOM     19  O   UNL     1      37.849 -26.067 -15.054  0.00  0.00    -0.271 OA
BRANCH  19  20
ATOM     20  P   UNL     1      36.636 -27.042 -15.498  0.00  0.00    +0.473 P 
ATOM     21  O   UNL     1      36.838 -27.751 -16.805  0.00  0.00    -0.227 OA
BRANCH  20  22
ATOM     22  O   UNL     1      35.330 -26.091 -15.423  0.00  0.00    -0.303 OA
ATOM     23  H   UNL     1      35.529 -25.310 -14.882  0.00  0.00    +0.222 HD
ENDBRANCH  20  22
BRANCH  20  24
ATOM     24  O   UNL     1      36.464 -28.010 -14.215  0.00  0.00    -0.303 OA
ATOM     25  H   UNL     1      35.523 -28.096 -13.998  0.00  0.00    +0.222 HD
ENDBRANCH  20  24
ENDBRANCH  19  20
ENDBRANCH  18  19
ENDBRANCH   3  18
TORSDOF 7
ENDMDL
