MODEL 1
REMARK VINA RESULT:     -10.2      0.000      0.000
REMARK  Name = 6452099
REMARK  4 active torsions:
REMARK  status: ('A' for Active; 'I' for Inactive)
REMARK    1  A    between atoms: C_5  and  C_18
REMARK    2  A    between atoms: C_21  and  O_24
REMARK    3  A    between atoms: C_22  and  O_26
REMARK    4  A    between atoms: C_23  and  O_28
REMARK                            x       y       z     vdW  Elec       q    Type
REMARK                         _______ _______ _______ _____ _____    ______ ____
ROOT
ATOM      1  O   UNL     1      35.571 -24.960 -13.477  0.00  0.00    -0.440 OA
ATOM      2  O   UNL     1      28.484 -22.730 -17.464  0.00  0.00    -0.435 OA
ATOM      3  O   UNL     1      27.902 -21.980 -15.249  0.00  0.00    -0.435 OA
ATOM      4  O   UNL     1      35.790 -25.500 -15.703  0.00  0.00    -0.245 OA
ATOM      5  C   UNL     1      33.090 -24.057 -16.137  0.00  0.00    +0.006 C 
ATOM      6  C   UNL     1      33.896 -24.281 -14.902  0.00  0.00    +0.075 C 
ATOM      7  C   UNL     1      31.696 -23.497 -15.826  0.00  0.00    +0.003 C 
ATOM      8  C   UNL     1      33.567 -23.890 -13.675  0.00  0.00    +0.028 C 
ATOM      9  C   UNL     1      32.311 -23.167 -13.347  0.00  0.00    -0.000 C 
ATOM     10  C   UNL     1      31.343 -23.068 -14.512  0.00  0.00    +0.003 C 
ATOM     11  C   UNL     1      34.589 -24.274 -12.688  0.00  0.00    +0.236 C 
ATOM     12  C   UNL     1      30.750 -23.410 -16.865  0.00  0.00    +0.040 C 
ATOM     13  C   UNL     1      35.178 -24.982 -14.786  0.00  0.00    +0.341 C 
ATOM     14  C   UNL     1      30.065 -22.537 -14.265  0.00  0.00    +0.040 C 
ATOM     15  C   UNL     1      29.505 -22.888 -16.578  0.00  0.00    +0.176 C 
ATOM     16  C   UNL     1      29.174 -22.461 -15.316  0.00  0.00    +0.176 C 
ATOM     17  C   UNL     1      27.473 -22.149 -16.616  0.00  0.00    +0.429 C 
ENDROOT
BRANCH   5  18
ATOM     18  C   UNL     1      33.829 -23.154 -17.078  0.00  0.00    +0.006 C 
ATOM     19  C   UNL     1      33.208 -22.717 -18.243  0.00  0.00    +0.040 C 
ATOM     20  C   UNL     1      35.130 -22.762 -16.780  0.00  0.00    +0.040 C 
ATOM     21  C   UNL     1      35.818 -21.923 -17.656  0.00  0.00    +0.175 C 
ATOM     22  C   UNL     1      33.896 -21.878 -19.120  0.00  0.00    +0.175 C 
ATOM     23  C   UNL     1      35.201 -21.481 -18.827  0.00  0.00    +0.206 C 
BRANCH  21  24
ATOM     24  O   UNL     1      37.092 -21.544 -17.359  0.00  0.00    -0.468 OA
ATOM     25  C   UNL     1      37.641 -22.028 -16.134  0.00  0.00    +0.253 C 
ENDBRANCH  21  24
BRANCH  22  26
ATOM     26  O   UNL     1      33.282 -21.452 -20.259  0.00  0.00    -0.468 OA
ATOM     27  C   UNL     1      32.735 -20.136 -20.248  0.00  0.00    +0.253 C 
ENDBRANCH  22  26
BRANCH  23  28
ATOM     28  O   UNL     1      35.871 -20.659 -19.683  0.00  0.00    -0.465 OA
ATOM     29  C   UNL     1      36.751 -21.279 -20.619  0.00  0.00    +0.253 C 
ENDBRANCH  23  28
ENDBRANCH   5  18
TORSDOF 4
ENDMDL
MODEL 2
REMARK VINA RESULT:     -10.2      0.007      2.337
REMARK  Name = 6452099
REMARK  4 active torsions:
REMARK  status: ('A' for Active; 'I' for Inactive)
REMARK    1  A    between atoms: C_5  and  C_18
REMARK    2  A    between atoms: C_21  and  O_24
REMARK    3  A    between atoms: C_22  and  O_26
REMARK    4  A    between atoms: C_23  and  O_28
REMARK                            x       y       z     vdW  Elec       q    Type
REMARK                         _______ _______ _______ _____ _____    ______ ____
ROOT
ATOM      1  O   UNL     1      35.573 -24.957 -13.481  0.00  0.00    -0.440 OA
ATOM      2  O   UNL     1      28.481 -22.724 -17.458  0.00  0.00    -0.435 OA
ATOM      3  O   UNL     1      27.904 -21.972 -15.243  0.00  0.00    -0.435 OA
ATOM      4  O   UNL     1      35.788 -25.499 -15.708  0.00  0.00    -0.245 OA
ATOM      5  C   UNL     1      33.088 -24.053 -16.138  0.00  0.00    +0.006 C 
ATOM      6  C   UNL     1      33.896 -24.278 -14.904  0.00  0.00    +0.075 C 
ATOM      7  C   UNL     1      31.696 -23.492 -15.825  0.00  0.00    +0.003 C 
ATOM      8  C   UNL     1      33.569 -23.885 -13.677  0.00  0.00    +0.028 C 
ATOM      9  C   UNL     1      32.315 -23.160 -13.347  0.00  0.00    -0.000 C 
ATOM     10  C   UNL     1      31.344 -23.062 -14.510  0.00  0.00    +0.003 C 
ATOM     11  C   UNL     1      34.592 -24.270 -12.691  0.00  0.00    +0.236 C 
ATOM     12  C   UNL     1      30.747 -23.406 -16.862  0.00  0.00    +0.040 C 
ATOM     13  C   UNL     1      35.177 -24.980 -14.789  0.00  0.00    +0.341 C 
ATOM     14  C   UNL     1      30.067 -22.530 -14.262  0.00  0.00    +0.040 C 
ATOM     15  C   UNL     1      29.504 -22.882 -16.574  0.00  0.00    +0.176 C 
ATOM     16  C   UNL     1      29.175 -22.453 -15.311  0.00  0.00    +0.176 C 
ATOM     17  C   UNL     1      27.472 -22.141 -16.609  0.00  0.00    +0.429 C 
ENDROOT
BRANCH   5  18
ATOM     18  C   UNL     1      33.826 -23.152 -17.081  0.00  0.00    +0.006 C 
ATOM     19  C   UNL     1      35.126 -22.758 -16.782  0.00  0.00    +0.040 C 
ATOM     20  C   UNL     1      33.205 -22.717 -18.247  0.00  0.00    +0.040 C 
ATOM     21  C   UNL     1      33.892 -21.878 -19.125  0.00  0.00    +0.175 C 
ATOM     22  C   UNL     1      35.813 -21.919 -17.660  0.00  0.00    +0.175 C 
ATOM     23  C   UNL     1      35.197 -21.478 -18.830  0.00  0.00    +0.206 C 
BRANCH  21  24
ATOM     24  O   UNL     1      33.278 -21.454 -20.264  0.00  0.00    -0.468 OA
ATOM     25  C   UNL     1      32.733 -20.135 -20.253  0.00  0.00    +0.253 C 
ENDBRANCH  21  24
BRANCH  22  26
ATOM     26  O   UNL     1      37.087 -21.538 -17.361  0.00  0.00    -0.468 OA
ATOM     27  C   UNL     1      37.635 -22.014 -16.135  0.00  0.00    +0.253 C 
ENDBRANCH  22  26
BRANCH  23  28
ATOM     28  O   UNL     1      35.869 -20.660 -19.688  0.00  0.00    -0.465 OA
ATOM     29  C   UNL     1      36.758 -21.283 -20.614  0.00  0.00    +0.253 C 
ENDBRANCH  23  28
ENDBRANCH   5  18
TORSDOF 4
ENDMDL
MODEL 3
REMARK VINA RESULT:     -10.0      2.379      5.394
REMARK  Name = 6452099
REMARK  4 active torsions:
REMARK  status: ('A' for Active; 'I' for Inactive)
REMARK    1  A    between atoms: C_5  and  C_18
REMARK    2  A    between atoms: C_21  and  O_24
REMARK    3  A    between atoms: C_22  and  O_26
REMARK    4  A    between atoms: C_23  and  O_28
REMARK                            x       y       z     vdW  Elec       q    Type
REMARK                         _______ _______ _______ _____ _____    ______ ____
ROOT
ATOM      1  O   UNL     1      36.630 -21.413 -18.848  0.00  0.00    -0.440 OA
ATOM      2  O   UNL     1      31.193 -23.942 -12.921  0.00  0.00    -0.435 OA
ATOM      3  O   UNL     1      29.913 -24.554 -14.868  0.00  0.00    -0.435 OA
ATOM      4  O   UNL     1      37.568 -21.013 -16.784  0.00  0.00    -0.245 OA
ATOM      5  C   UNL     1      35.136 -22.501 -15.587  0.00  0.00    +0.006 C 
ATOM      6  C   UNL     1      35.500 -22.193 -17.001  0.00  0.00    +0.075 C 
ATOM      7  C   UNL     1      33.709 -23.050 -15.462  0.00  0.00    +0.003 C 
ATOM      8  C   UNL     1      34.784 -22.508 -18.076  0.00  0.00    +0.028 C 
ATOM      9  C   UNL     1      33.481 -23.218 -18.022  0.00  0.00    -0.000 C 
ATOM     10  C   UNL     1      32.942 -23.397 -16.614  0.00  0.00    +0.003 C 
ATOM     11  C   UNL     1      35.436 -22.055 -19.315  0.00  0.00    +0.236 C 
ATOM     12  C   UNL     1      33.150 -23.209 -14.180  0.00  0.00    +0.040 C 
ATOM     13  C   UNL     1      36.684 -21.477 -17.483  0.00  0.00    +0.341 C 
ATOM     14  C   UNL     1      31.646 -23.921 -16.464  0.00  0.00    +0.040 C 
ATOM     15  C   UNL     1      31.873 -23.721 -14.079  0.00  0.00    +0.176 C 
ATOM     16  C   UNL     1      31.144 -24.070 -15.189  0.00  0.00    +0.176 C 
ATOM     17  C   UNL     1      29.954 -24.476 -13.428  0.00  0.00    +0.429 C 
ENDROOT
BRANCH   5  18
ATOM     18  C   UNL     1      36.128 -23.455 -14.995  0.00  0.00    +0.006 C 
ATOM     19  C   UNL     1      36.384 -24.665 -15.631  0.00  0.00    +0.040 C 
ATOM     20  C   UNL     1      36.784 -23.124 -13.814  0.00  0.00    +0.040 C 
ATOM     21  C   UNL     1      37.707 -24.014 -13.263  0.00  0.00    +0.175 C 
ATOM     22  C   UNL     1      37.307 -25.555 -15.080  0.00  0.00    +0.175 C 
ATOM     23  C   UNL     1      37.968 -25.229 -13.896  0.00  0.00    +0.206 C 
BRANCH  21  24
ATOM     24  O   UNL     1      38.344 -23.684 -12.105  0.00  0.00    -0.468 OA
ATOM     25  C   UNL     1      37.664 -22.792 -11.223  0.00  0.00    +0.253 C 
ENDBRANCH  21  24
BRANCH  22  26
ATOM     26  O   UNL     1      37.554 -26.738 -15.709  0.00  0.00    -0.468 OA
ATOM     27  C   UNL     1      36.423 -27.513 -16.099  0.00  0.00    +0.253 C 
ENDBRANCH  22  26
BRANCH  23  28
ATOM     28  O   UNL     1      38.871 -26.097 -13.359  0.00  0.00    -0.465 OA
ATOM     29  C   UNL     1      40.209 -26.024 -13.848  0.00  0.00    +0.253 C 
ENDBRANCH  23  28
ENDBRANCH   5  18
TORSDOF 4
ENDMDL
MODEL 4
REMARK VINA RESULT:     -10.0      2.378      5.623
REMARK  Name = 6452099
REMARK  4 active torsions:
REMARK  status: ('A' for Active; 'I' for Inactive)
REMARK    1  A    between atoms: C_5  and  C_18
REMARK    2  A    between atoms: C_21  and  O_24
REMARK    3  A    between atoms: C_22  and  O_26
REMARK    4  A    between atoms: C_23  and  O_28
REMARK                            x       y       z     vdW  Elec       q    Type
REMARK                         _______ _______ _______ _____ _____    ______ ____
ROOT
ATOM      1  O   UNL     1      36.635 -21.406 -18.860  0.00  0.00    -0.440 OA
ATOM      2  O   UNL     1      31.195 -23.943 -12.938  0.00  0.00    -0.435 OA
ATOM      3  O   UNL     1      29.915 -24.550 -14.887  0.00  0.00    -0.435 OA
ATOM      4  O   UNL     1      37.573 -21.010 -16.795  0.00  0.00    -0.245 OA
ATOM      5  C   UNL     1      35.139 -22.499 -15.601  0.00  0.00    +0.006 C 
ATOM      6  C   UNL     1      35.504 -22.188 -17.014  0.00  0.00    +0.075 C 
ATOM      7  C   UNL     1      33.712 -23.047 -15.478  0.00  0.00    +0.003 C 
ATOM      8  C   UNL     1      34.788 -22.501 -18.090  0.00  0.00    +0.028 C 
ATOM      9  C   UNL     1      33.484 -23.210 -18.038  0.00  0.00    -0.000 C 
ATOM     10  C   UNL     1      32.945 -23.392 -16.631  0.00  0.00    +0.003 C 
ATOM     11  C   UNL     1      35.440 -22.046 -19.328  0.00  0.00    +0.236 C 
ATOM     12  C   UNL     1      33.153 -23.208 -14.196  0.00  0.00    +0.040 C 
ATOM     13  C   UNL     1      36.688 -21.472 -17.495  0.00  0.00    +0.341 C 
ATOM     14  C   UNL     1      31.649 -23.914 -16.482  0.00  0.00    +0.040 C 
ATOM     15  C   UNL     1      31.875 -23.719 -14.096  0.00  0.00    +0.176 C 
ATOM     16  C   UNL     1      31.146 -24.066 -15.207  0.00  0.00    +0.176 C 
ATOM     17  C   UNL     1      29.955 -24.474 -13.447  0.00  0.00    +0.429 C 
ENDROOT
BRANCH   5  18
ATOM     18  C   UNL     1      36.131 -23.456 -15.011  0.00  0.00    +0.006 C 
ATOM     19  C   UNL     1      36.788 -23.126 -13.831  0.00  0.00    +0.040 C 
ATOM     20  C   UNL     1      36.386 -24.665 -15.649  0.00  0.00    +0.040 C 
ATOM     21  C   UNL     1      37.310 -25.555 -15.100  0.00  0.00    +0.175 C 
ATOM     22  C   UNL     1      37.712 -24.015 -13.282  0.00  0.00    +0.175 C 
ATOM     23  C   UNL     1      37.973 -25.229 -13.916  0.00  0.00    +0.206 C 
BRANCH  21  24
ATOM     24  O   UNL     1      37.556 -26.737 -15.730  0.00  0.00    -0.468 OA
ATOM     25  C   UNL     1      36.424 -27.521 -16.102  0.00  0.00    +0.253 C 
ENDBRANCH  21  24
BRANCH  22  26
ATOM     26  O   UNL     1      38.351 -23.686 -12.125  0.00  0.00    -0.468 OA
ATOM     27  C   UNL     1      37.681 -22.784 -11.248  0.00  0.00    +0.253 C 
ENDBRANCH  22  26
BRANCH  23  28
ATOM     28  O   UNL     1      38.874 -26.099 -13.378  0.00  0.00    -0.465 OA
ATOM     29  C   UNL     1      40.209 -26.040 -13.877  0.00  0.00    +0.253 C 
ENDBRANCH  23  28
ENDBRANCH   5  18
TORSDOF 4
ENDMDL
MODEL 5
REMARK VINA RESULT:      -8.7     13.903     17.275
REMARK  Name = 6452099
REMARK  4 active torsions:
REMARK  status: ('A' for Active; 'I' for Inactive)
REMARK    1  A    between atoms: C_5  and  C_18
REMARK    2  A    between atoms: C_21  and  O_24
REMARK    3  A    between atoms: C_22  and  O_26
REMARK    4  A    between atoms: C_23  and  O_28
REMARK                            x       y       z     vdW  Elec       q    Type
REMARK                         _______ _______ _______ _____ _____    ______ ____
ROOT
ATOM      1  O   UNL     1      31.759  -8.620 -19.364  0.00  0.00    -0.440 OA
ATOM      2  O   UNL     1      35.711 -10.181 -26.646  0.00  0.00    -0.435 OA
ATOM      3  O   UNL     1      34.479 -12.243 -26.455  0.00  0.00    -0.435 OA
ATOM      4  O   UNL     1      33.037  -6.783 -19.904  0.00  0.00    -0.245 OA
ATOM      5  C   UNL     1      33.626  -8.204 -22.587  0.00  0.00    +0.006 C 
ATOM      6  C   UNL     1      32.802  -8.621 -21.415  0.00  0.00    +0.075 C 
ATOM      7  C   UNL     1      33.821  -9.344 -23.594  0.00  0.00    +0.003 C 
ATOM      8  C   UNL     1      32.141  -9.768 -21.296  0.00  0.00    +0.028 C 
ATOM      9  C   UNL     1      32.138 -10.832 -22.334  0.00  0.00    -0.000 C 
ATOM     10  C   UNL     1      33.106 -10.574 -23.474  0.00  0.00    +0.003 C 
ATOM     11  C   UNL     1      31.430  -9.857 -20.011  0.00  0.00    +0.236 C 
ATOM     12  C   UNL     1      34.729  -9.167 -24.655  0.00  0.00    +0.040 C 
ATOM     13  C   UNL     1      32.575  -7.879 -20.172  0.00  0.00    +0.341 C 
ATOM     14  C   UNL     1      33.291 -11.590 -24.427  0.00  0.00    +0.040 C 
ATOM     15  C   UNL     1      34.884 -10.193 -25.565  0.00  0.00    +0.176 C 
ATOM     16  C   UNL     1      34.182 -11.368 -25.457  0.00  0.00    +0.176 C 
ATOM     17  C   UNL     1      35.445 -11.481 -27.209  0.00  0.00    +0.429 C 
ENDROOT
BRANCH   5  18
ATOM     18  C   UNL     1      33.012  -7.007 -23.249  0.00  0.00    +0.006 C 
ATOM     19  C   UNL     1      31.962  -6.339 -22.628  0.00  0.00    +0.040 C 
ATOM     20  C   UNL     1      33.497  -6.575 -24.479  0.00  0.00    +0.040 C 
ATOM     21  C   UNL     1      32.924  -5.462 -25.096  0.00  0.00    +0.175 C 
ATOM     22  C   UNL     1      31.390  -5.226 -23.245  0.00  0.00    +0.175 C 
ATOM     23  C   UNL     1      31.870  -4.788 -24.478  0.00  0.00    +0.206 C 
BRANCH  21  24
ATOM     24  O   UNL     1      33.402  -5.045 -26.301  0.00  0.00    -0.468 OA
ATOM     25  C   UNL     1      34.763  -5.355 -26.600  0.00  0.00    +0.253 C 
ENDBRANCH  21  24
BRANCH  22  26
ATOM     26  O   UNL     1      30.362  -4.576 -22.630  0.00  0.00    -0.468 OA
ATOM     27  C   UNL     1      30.013  -5.010 -21.318  0.00  0.00    +0.253 C 
ENDBRANCH  22  26
BRANCH  23  28
ATOM     28  O   UNL     1      31.312  -3.699 -25.078  0.00  0.00    -0.465 OA
ATOM     29  C   UNL     1      31.831  -2.421 -24.713  0.00  0.00    +0.253 C 
ENDBRANCH  23  28
ENDBRANCH   5  18
TORSDOF 4
ENDMDL
MODEL 6
REMARK VINA RESULT:      -8.7     13.889     17.272
REMARK  Name = 6452099
REMARK  4 active torsions:
REMARK  status: ('A' for Active; 'I' for Inactive)
REMARK    1  A    between atoms: C_5  and  C_18
REMARK    2  A    between atoms: C_21  and  O_24
REMARK    3  A    between atoms: C_22  and  O_26
REMARK    4  A    between atoms: C_23  and  O_28
REMARK                            x       y       z     vdW  Elec       q    Type
REMARK                         _______ _______ _______ _____ _____    ______ ____
ROOT
ATOM      1  O   UNL     1      31.743  -8.660 -19.369  0.00  0.00    -0.440 OA
ATOM      2  O   UNL     1      35.727 -10.169 -26.644  0.00  0.00    -0.435 OA
ATOM      3  O   UNL     1      34.498 -12.235 -26.472  0.00  0.00    -0.435 OA
ATOM      4  O   UNL     1      33.020  -6.818 -19.892  0.00  0.00    -0.245 OA
ATOM      5  C   UNL     1      33.622  -8.221 -22.582  0.00  0.00    +0.006 C 
ATOM      6  C   UNL     1      32.794  -8.647 -21.416  0.00  0.00    +0.075 C 
ATOM      7  C   UNL     1      33.823  -9.355 -23.595  0.00  0.00    +0.003 C 
ATOM      8  C   UNL     1      32.135  -9.796 -21.307  0.00  0.00    +0.028 C 
ATOM      9  C   UNL     1      32.137 -10.852 -22.351  0.00  0.00    -0.000 C 
ATOM     10  C   UNL     1      33.110 -10.586 -23.486  0.00  0.00    +0.003 C 
ATOM     11  C   UNL     1      31.418  -9.893 -20.025  0.00  0.00    +0.236 C 
ATOM     12  C   UNL     1      34.736  -9.170 -24.651  0.00  0.00    +0.040 C 
ATOM     13  C   UNL     1      32.561  -7.913 -20.169  0.00  0.00    +0.341 C 
ATOM     14  C   UNL     1      33.299 -11.596 -24.445  0.00  0.00    +0.040 C 
ATOM     15  C   UNL     1      34.895 -10.189 -25.567  0.00  0.00    +0.176 C 
ATOM     16  C   UNL     1      34.194 -11.366 -25.469  0.00  0.00    +0.176 C 
ATOM     17  C   UNL     1      35.465 -11.467 -27.216  0.00  0.00    +0.429 C 
ENDROOT
BRANCH   5  18
ATOM     18  C   UNL     1      33.010  -7.021 -23.239  0.00  0.00    +0.006 C 
ATOM     19  C   UNL     1      33.504  -6.577 -24.460  0.00  0.00    +0.040 C 
ATOM     20  C   UNL     1      31.952  -6.361 -22.621  0.00  0.00    +0.040 C 
ATOM     21  C   UNL     1      31.383  -5.244 -23.232  0.00  0.00    +0.175 C 
ATOM     22  C   UNL     1      32.934  -5.460 -25.071  0.00  0.00    +0.175 C 
ATOM     23  C   UNL     1      31.874  -4.793 -24.458  0.00  0.00    +0.206 C 
BRANCH  21  24
ATOM     24  O   UNL     1      30.349  -4.602 -22.621  0.00  0.00    -0.468 OA
ATOM     25  C   UNL     1      30.024  -5.013 -21.294  0.00  0.00    +0.253 C 
ENDBRANCH  21  24
BRANCH  22  26
ATOM     26  O   UNL     1      33.423  -5.030 -26.269  0.00  0.00    -0.468 OA
ATOM     27  C   UNL     1      34.760  -5.401 -26.594  0.00  0.00    +0.253 C 
ENDBRANCH  22  26
BRANCH  23  28
ATOM     28  O   UNL     1      31.317  -3.703 -25.057  0.00  0.00    -0.465 OA
ATOM     29  C   UNL     1      31.838  -2.426 -24.691  0.00  0.00    +0.253 C 
ENDBRANCH  23  28
ENDBRANCH   5  18
TORSDOF 4
ENDMDL
MODEL 7
REMARK VINA RESULT:      -7.9     12.560     15.904
REMARK  Name = 6452099
REMARK  4 active torsions:
REMARK  status: ('A' for Active; 'I' for Inactive)
REMARK    1  A    between atoms: C_5  and  C_18
REMARK    2  A    between atoms: C_21  and  O_24
REMARK    3  A    between atoms: C_22  and  O_26
REMARK    4  A    between atoms: C_23  and  O_28
REMARK                            x       y       z     vdW  Elec       q    Type
REMARK                         _______ _______ _______ _____ _____    ______ ____
ROOT
ATOM      1  O   UNL     1      31.812 -11.326 -19.442  0.00  0.00    -0.440 OA
ATOM      2  O   UNL     1      30.614  -4.789 -24.631  0.00  0.00    -0.435 OA
ATOM      3  O   UNL     1      31.024  -3.564 -22.597  0.00  0.00    -0.435 OA
ATOM      4  O   UNL     1      31.426 -12.142 -21.560  0.00  0.00    -0.245 OA
ATOM      5  C   UNL     1      31.501  -9.201 -22.514  0.00  0.00    +0.006 C 
ATOM      6  C   UNL     1      31.664  -9.797 -21.156  0.00  0.00    +0.075 C 
ATOM      7  C   UNL     1      31.374  -7.673 -22.465  0.00  0.00    +0.003 C 
ATOM      8  C   UNL     1      31.866  -9.123 -20.029  0.00  0.00    +0.028 C 
ATOM      9  C   UNL     1      31.948  -7.641 -19.955  0.00  0.00    -0.000 C 
ATOM     10  C   UNL     1      31.599  -6.946 -21.258  0.00  0.00    +0.003 C 
ATOM     11  C   UNL     1      31.983 -10.022 -18.870  0.00  0.00    +0.236 C 
ATOM     12  C   UNL     1      31.025  -6.981 -23.641  0.00  0.00    +0.040 C 
ATOM     13  C   UNL     1      31.614 -11.215 -20.790  0.00  0.00    +0.341 C 
ATOM     14  C   UNL     1      31.499  -5.544 -21.253  0.00  0.00    +0.040 C 
ATOM     15  C   UNL     1      30.932  -5.605 -23.590  0.00  0.00    +0.176 C 
ATOM     16  C   UNL     1      31.166  -4.907 -22.430  0.00  0.00    +0.176 C 
ATOM     17  C   UNL     1      30.679  -3.496 -23.996  0.00  0.00    +0.429 C 
ENDROOT
BRANCH   5  18
ATOM     18  C   UNL     1      32.638  -9.613 -23.398  0.00  0.00    +0.006 C 
ATOM     19  C   UNL     1      33.468  -8.644 -23.952  0.00  0.00    +0.040 C 
ATOM     20  C   UNL     1      32.855 -10.962 -23.659  0.00  0.00    +0.040 C 
ATOM     21  C   UNL     1      33.913 -11.346 -24.483  0.00  0.00    +0.175 C 
ATOM     22  C   UNL     1      34.526  -9.028 -24.776  0.00  0.00    +0.175 C 
ATOM     23  C   UNL     1      34.749 -10.378 -25.042  0.00  0.00    +0.206 C 
BRANCH  21  24
ATOM     24  O   UNL     1      34.119 -12.669 -24.736  0.00  0.00    -0.468 OA
ATOM     25  C   UNL     1      33.935 -13.572 -23.647  0.00  0.00    +0.253 C 
ENDBRANCH  21  24
BRANCH  22  26
ATOM     26  O   UNL     1      35.335  -8.073 -25.314  0.00  0.00    -0.468 OA
ATOM     27  C   UNL     1      34.890  -6.722 -25.227  0.00  0.00    +0.253 C 
ENDBRANCH  22  26
BRANCH  23  28
ATOM     28  O   UNL     1      35.784 -10.753 -25.845  0.00  0.00    -0.465 OA
ATOM     29  C   UNL     1      35.466 -11.102 -27.191  0.00  0.00    +0.253 C 
ENDBRANCH  23  28
ENDBRANCH   5  18
TORSDOF 4
ENDMDL
MODEL 8
REMARK VINA RESULT:      -7.9     12.562     15.922
REMARK  Name = 6452099
REMARK  4 active torsions:
REMARK  status: ('A' for Active; 'I' for Inactive)
REMARK    1  A    between atoms: C_5  and  C_18
REMARK    2  A    between atoms: C_21  and  O_24
REMARK    3  A    between atoms: C_22  and  O_26
REMARK    4  A    between atoms: C_23  and  O_28
REMARK                            x       y       z     vdW  Elec       q    Type
REMARK                         _______ _______ _______ _____ _____    ______ ____
ROOT
ATOM      1  O   UNL     1      31.803 -11.329 -19.428  0.00  0.00    -0.440 OA
ATOM      2  O   UNL     1      30.572  -4.798 -24.617  0.00  0.00    -0.435 OA
ATOM      3  O   UNL     1      30.961  -3.571 -22.580  0.00  0.00    -0.435 OA
ATOM      4  O   UNL     1      31.435 -12.146 -21.548  0.00  0.00    -0.245 OA
ATOM      5  C   UNL     1      31.489  -9.204 -22.499  0.00  0.00    +0.006 C 
ATOM      6  C   UNL     1      31.650  -9.800 -21.141  0.00  0.00    +0.075 C 
ATOM      7  C   UNL     1      31.348  -7.678 -22.450  0.00  0.00    +0.003 C 
ATOM      8  C   UNL     1      31.840  -9.125 -20.012  0.00  0.00    +0.028 C 
ATOM      9  C   UNL     1      31.909  -7.643 -19.936  0.00  0.00    -0.000 C 
ATOM     10  C   UNL     1      31.561  -6.949 -21.241  0.00  0.00    +0.003 C 
ATOM     11  C   UNL     1      31.960 -10.024 -18.853  0.00  0.00    +0.236 C 
ATOM     12  C   UNL     1      30.999  -6.987 -23.626  0.00  0.00    +0.040 C 
ATOM     13  C   UNL     1      31.611 -11.219 -20.777  0.00  0.00    +0.341 C 
ATOM     14  C   UNL     1      31.447  -5.548 -21.235  0.00  0.00    +0.040 C 
ATOM     15  C   UNL     1      30.893  -5.613 -23.574  0.00  0.00    +0.176 C 
ATOM     16  C   UNL     1      31.115  -4.913 -22.413  0.00  0.00    +0.176 C 
ATOM     17  C   UNL     1      30.623  -3.506 -23.980  0.00  0.00    +0.429 C 
ENDROOT
BRANCH   5  18
ATOM     18  C   UNL     1      32.634  -9.605 -23.378  0.00  0.00    +0.006 C 
ATOM     19  C   UNL     1      32.862 -10.952 -23.640  0.00  0.00    +0.040 C 
ATOM     20  C   UNL     1      33.461  -8.629 -23.924  0.00  0.00    +0.040 C 
ATOM     21  C   UNL     1      34.528  -9.003 -24.741  0.00  0.00    +0.175 C 
ATOM     22  C   UNL     1      33.929 -11.326 -24.458  0.00  0.00    +0.175 C 
ATOM     23  C   UNL     1      34.762 -10.352 -25.007  0.00  0.00    +0.206 C 
BRANCH  21  24
ATOM     24  O   UNL     1      35.334  -8.041 -25.270  0.00  0.00    -0.468 OA
ATOM     25  C   UNL     1      34.872  -6.693 -25.191  0.00  0.00    +0.253 C 
ENDBRANCH  21  24
BRANCH  22  26
ATOM     26  O   UNL     1      34.146 -12.647 -24.711  0.00  0.00    -0.468 OA
ATOM     27  C   UNL     1      33.984 -13.552 -23.622  0.00  0.00    +0.253 C 
ENDBRANCH  22  26
BRANCH  23  28
ATOM     28  O   UNL     1      35.803 -10.718 -25.808  0.00  0.00    -0.465 OA
ATOM     29  C   UNL     1      35.493 -11.054 -27.159  0.00  0.00    +0.253 C 
ENDBRANCH  23  28
ENDBRANCH   5  18
TORSDOF 4
ENDMDL
MODEL 9
REMARK VINA RESULT:      -7.7      1.720      7.107
REMARK  Name = 6452099
REMARK  4 active torsions:
REMARK  status: ('A' for Active; 'I' for Inactive)
REMARK    1  A    between atoms: C_5  and  C_18
REMARK    2  A    between atoms: C_21  and  O_24
REMARK    3  A    between atoms: C_22  and  O_26
REMARK    4  A    between atoms: C_23  and  O_28
REMARK                            x       y       z     vdW  Elec       q    Type
REMARK                         _______ _______ _______ _____ _____    ______ ____
ROOT
ATOM      1  O   UNL     1      34.735 -21.087 -19.956  0.00  0.00    -0.440 OA
ATOM      2  O   UNL     1      36.953 -26.139 -13.581  0.00  0.00    -0.435 OA
ATOM      3  O   UNL     1      38.792 -24.586 -13.466  0.00  0.00    -0.435 OA
ATOM      4  O   UNL     1      33.130 -22.721 -19.733  0.00  0.00    -0.245 OA
ATOM      5  C   UNL     1      34.643 -23.611 -17.187  0.00  0.00    +0.006 C 
ATOM      6  C   UNL     1      34.916 -22.511 -18.158  0.00  0.00    +0.075 C 
ATOM      7  C   UNL     1      35.806 -23.825 -16.211  0.00  0.00    +0.003 C 
ATOM      8  C   UNL     1      35.943 -21.668 -18.111  0.00  0.00    +0.028 C 
ATOM      9  C   UNL     1      36.999 -21.709 -17.067  0.00  0.00    -0.000 C 
ATOM     10  C   UNL     1      36.906 -22.916 -16.152  0.00  0.00    +0.003 C 
ATOM     11  C   UNL     1      35.908 -20.707 -19.224  0.00  0.00    +0.236 C 
ATOM     12  C   UNL     1      35.784 -24.946 -15.359  0.00  0.00    +0.040 C 
ATOM     13  C   UNL     1      34.139 -22.156 -19.348  0.00  0.00    +0.341 C 
ATOM     14  C   UNL     1      37.944 -23.128 -15.229  0.00  0.00    +0.040 C 
ATOM     15  C   UNL     1      36.826 -25.118 -14.472  0.00  0.00    +0.176 C 
ATOM     16  C   UNL     1      37.874 -24.233 -14.406  0.00  0.00    +0.176 C 
ATOM     17  C   UNL     1      38.199 -25.792 -12.942  0.00  0.00    +0.429 C 
ENDROOT
BRANCH   5  18
ATOM     18  C   UNL     1      33.369 -23.340 -16.446  0.00  0.00    +0.006 C 
ATOM     19  C   UNL     1      33.349 -23.418 -15.058  0.00  0.00    +0.040 C 
ATOM     20  C   UNL     1      32.216 -23.014 -17.153  0.00  0.00    +0.040 C 
ATOM     21  C   UNL     1      31.029 -22.764 -16.464  0.00  0.00    +0.175 C 
ATOM     22  C   UNL     1      32.162 -23.167 -14.368  0.00  0.00    +0.175 C 
ATOM     23  C   UNL     1      31.003 -22.840 -15.071  0.00  0.00    +0.206 C 
BRANCH  21  24
ATOM     24  O   UNL     1      29.904 -22.446 -17.162  0.00  0.00    -0.468 OA
ATOM     25  C   UNL     1      28.874 -23.433 -17.213  0.00  0.00    +0.253 C 
ENDBRANCH  21  24
BRANCH  22  26
ATOM     26  O   UNL     1      32.150 -23.244 -13.008  0.00  0.00    -0.468 OA
ATOM     27  C   UNL     1      33.357 -23.655 -12.371  0.00  0.00    +0.253 C 
ENDBRANCH  22  26
BRANCH  23  28
ATOM     28  O   UNL     1      29.845 -22.593 -14.396  0.00  0.00    -0.465 OA
ATOM     29  C   UNL     1      29.022 -23.717 -14.088  0.00  0.00    +0.253 C 
ENDBRANCH  23  28
ENDBRANCH   5  18
TORSDOF 4
ENDMDL
