MODEL 1
REMARK VINA RESULT:      -6.9      0.000      0.000
REMARK  Name = 3333
REMARK  6 active torsions:
REMARK  status: ('A' for Active; 'I' for Inactive)
REMARK    1  A    between atoms: C_2  and  C_12
REMARK    2  A    between atoms: C_3  and  C_19
REMARK    3  A    between atoms: C_4  and  C_24
REMARK    4  A    between atoms: C_19  and  O_20
REMARK    5  A    between atoms: O_20  and  C_21
REMARK    6  A    between atoms: C_24  and  O_25
REMARK                            x       y       z     vdW  Elec       q    Type
REMARK                         _______ _______ _______ _____ _____    ______ ____
ROOT
ATOM      1  N   UNL     1      31.675 -11.245 -21.314  0.00  0.00    -0.334 N 
ATOM      2  C   UNL     1      33.063  -9.032 -22.410  0.00  0.00    +0.012 C 
ATOM      3  C   UNL     1      32.341  -8.988 -21.058  0.00  0.00    +0.071 C 
ATOM      4  C   UNL     1      33.094 -10.434 -23.025  0.00  0.00    +0.085 C 
ATOM      5  C   UNL     1      31.679 -10.067 -20.582  0.00  0.00    +0.098 C 
ATOM      6  C   UNL     1      32.392 -11.454 -22.479  0.00  0.00    +0.028 C 
ATOM      7  C   UNL     1      30.909 -10.119 -19.291  0.00  0.00    +0.026 C 
ATOM      8  C   UNL     1      32.315 -12.852 -23.031  0.00  0.00    +0.047 C 
ATOM      9  H   UNL     1      31.121 -11.986 -20.979  0.00  0.00    +0.147 HD
ENDROOT
BRANCH   2  12
ATOM     10 CL   UNL     1      34.868  -6.997 -23.773  0.00  0.00    -0.081 Cl
ATOM     11 CL   UNL     1      33.365  -4.999 -25.791  0.00  0.00    -0.081 Cl
ATOM     12  C   UNL     1      32.418  -8.069 -23.365  0.00  0.00    +0.012 C 
ATOM     13  C   UNL     1      33.157  -7.100 -24.039  0.00  0.00    +0.068 C 
ATOM     14  C   UNL     1      31.044  -8.172 -23.563  0.00  0.00    +0.001 C 
ATOM     15  C   UNL     1      32.515  -6.227 -24.918  0.00  0.00    +0.068 C 
ATOM     16  C   UNL     1      30.404  -7.299 -24.440  0.00  0.00    +0.001 C 
ATOM     17  C   UNL     1      31.138  -6.326 -25.119  0.00  0.00    +0.012 C 
ENDBRANCH   2  12
BRANCH   3  19
ATOM     18  O   UNL     1      33.412  -7.489 -19.567  0.00  0.00    -0.245 OA
ATOM     19  C   UNL     1      32.463  -7.740 -20.287  0.00  0.00    +0.339 C 
BRANCH  19  20
ATOM     20  O   UNL     1      31.370  -6.978 -20.530  0.00  0.00    -0.446 OA
BRANCH  20  21
ATOM     21  C   UNL     1      31.644  -5.664 -21.028  0.00  0.00    +0.209 C 
ATOM     22  C   UNL     1      30.386  -5.104 -21.658  0.00  0.00    +0.051 C 
ENDBRANCH  20  21
ENDBRANCH  19  20
ENDBRANCH   3  19
BRANCH   4  24
ATOM     23  O   UNL     1      35.143 -10.331 -24.211  0.00  0.00    -0.245 OA
ATOM     24  C   UNL     1      33.961 -10.620 -24.200  0.00  0.00    +0.342 C 
BRANCH  24  25
ATOM     25  O   UNL     1      33.217 -11.146 -25.202  0.00  0.00    -0.441 OA
ATOM     26  C   UNL     1      33.946 -11.929 -26.153  0.00  0.00    +0.256 C 
ENDBRANCH  24  25
ENDBRANCH   4  24
TORSDOF 6
ENDMDL
MODEL 2
REMARK VINA RESULT:      -6.4     15.273     18.213
REMARK  Name = 3333
REMARK  6 active torsions:
REMARK  status: ('A' for Active; 'I' for Inactive)
REMARK    1  A    between atoms: C_2  and  C_12
REMARK    2  A    between atoms: C_3  and  C_19
REMARK    3  A    between atoms: C_4  and  C_24
REMARK    4  A    between atoms: C_19  and  O_20
REMARK    5  A    between atoms: O_20  and  C_21
REMARK    6  A    between atoms: C_24  and  O_25
REMARK                            x       y       z     vdW  Elec       q    Type
REMARK                         _______ _______ _______ _____ _____    ______ ____
ROOT
ATOM      1  N   UNL     1      32.813 -23.761 -15.565  0.00  0.00    -0.334 N 
ATOM      2  C   UNL     1      35.473 -23.571 -14.607  0.00  0.00    +0.012 C 
ATOM      3  C   UNL     1      35.037 -23.067 -15.988  0.00  0.00    +0.071 C 
ATOM      4  C   UNL     1      34.297 -24.035 -13.742  0.00  0.00    +0.085 C 
ATOM      5  C   UNL     1      33.757 -23.193 -16.407  0.00  0.00    +0.098 C 
ATOM      6  C   UNL     1      33.048 -24.134 -14.253  0.00  0.00    +0.028 C 
ATOM      7  C   UNL     1      33.234 -22.768 -17.753  0.00  0.00    +0.026 C 
ATOM      8  C   UNL     1      31.838 -24.626 -13.506  0.00  0.00    +0.047 C 
ATOM      9  H   UNL     1      31.910 -23.908 -15.928  0.00  0.00    +0.147 HD
ENDROOT
BRANCH   2  12
ATOM     10 CL   UNL     1      38.269 -23.113 -13.501  0.00  0.00    -0.081 Cl
ATOM     11 CL   UNL     1      40.295 -25.576 -13.891  0.00  0.00    -0.081 Cl
ATOM     12  C   UNL     1      36.466 -24.687 -14.760  0.00  0.00    +0.012 C 
ATOM     13  C   UNL     1      37.771 -24.576 -14.288  0.00  0.00    +0.068 C 
ATOM     14  C   UNL     1      36.042 -25.851 -15.394  0.00  0.00    +0.001 C 
ATOM     15  C   UNL     1      38.659 -25.639 -14.452  0.00  0.00    +0.068 C 
ATOM     16  C   UNL     1      36.931 -26.913 -15.559  0.00  0.00    +0.001 C 
ATOM     17  C   UNL     1      38.239 -26.808 -15.087  0.00  0.00    +0.012 C 
ENDBRANCH   2  12
BRANCH   3  19
ATOM     18  O   UNL     1      37.033 -21.832 -16.314  0.00  0.00    -0.245 OA
ATOM     19  C   UNL     1      36.063 -22.389 -16.795  0.00  0.00    +0.339 C 
BRANCH  19  20
ATOM     20  O   UNL     1      35.727 -22.507 -18.102  0.00  0.00    -0.446 OA
BRANCH  20  21
ATOM     21  C   UNL     1      36.424 -21.627 -18.991  0.00  0.00    +0.209 C 
ATOM     22  C   UNL     1      35.435 -21.024 -19.964  0.00  0.00    +0.051 C 
ENDBRANCH  20  21
ENDBRANCH  19  20
ENDBRANCH   3  19
BRANCH   4  24
ATOM     23  O   UNL     1      34.212 -25.316 -11.750  0.00  0.00    -0.245 OA
ATOM     24  C   UNL     1      34.589 -24.313 -12.326  0.00  0.00    +0.342 C 
BRANCH  24  25
ATOM     25  O   UNL     1      35.320 -23.285 -11.831  0.00  0.00    -0.441 OA
ATOM     26  C   UNL     1      36.265 -23.645 -10.818  0.00  0.00    +0.256 C 
ENDBRANCH  24  25
ENDBRANCH   4  24
TORSDOF 6
ENDMDL
MODEL 3
REMARK VINA RESULT:      -6.2     15.115     18.133
REMARK  Name = 3333
REMARK  6 active torsions:
REMARK  status: ('A' for Active; 'I' for Inactive)
REMARK    1  A    between atoms: C_2  and  C_12
REMARK    2  A    between atoms: C_3  and  C_19
REMARK    3  A    between atoms: C_4  and  C_24
REMARK    4  A    between atoms: C_19  and  O_20
REMARK    5  A    between atoms: O_20  and  C_21
REMARK    6  A    between atoms: C_24  and  O_25
REMARK                            x       y       z     vdW  Elec       q    Type
REMARK                         _______ _______ _______ _____ _____    ______ ____
ROOT
ATOM      1  N   UNL     1      33.160 -23.062 -17.477  0.00  0.00    -0.334 N 
ATOM      2  C   UNL     1      34.793 -23.181 -15.164  0.00  0.00    +0.012 C 
ATOM      3  C   UNL     1      35.296 -22.687 -16.526  0.00  0.00    +0.071 C 
ATOM      4  C   UNL     1      33.285 -23.446 -15.145  0.00  0.00    +0.085 C 
ATOM      5  C   UNL     1      34.481 -22.662 -17.606  0.00  0.00    +0.098 C 
ATOM      6  C   UNL     1      32.552 -23.404 -16.281  0.00  0.00    +0.028 C 
ATOM      7  C   UNL     1      34.883 -22.234 -18.992  0.00  0.00    +0.026 C 
ATOM      8  C   UNL     1      31.079 -23.697 -16.379  0.00  0.00    +0.047 C 
ATOM      9  H   UNL     1      32.616 -23.106 -18.296  0.00  0.00    +0.147 HD
ENDROOT
BRANCH   2  12
ATOM     10 CL   UNL     1      36.224 -23.150 -12.480  0.00  0.00    -0.081 Cl
ATOM     11 CL   UNL     1      37.772 -25.869 -11.746  0.00  0.00    -0.081 Cl
ATOM     12  C   UNL     1      35.536 -24.423 -14.765  0.00  0.00    +0.012 C 
ATOM     13  C   UNL     1      36.222 -24.509 -13.557  0.00  0.00    +0.068 C 
ATOM     14  C   UNL     1      35.519 -25.501 -15.646  0.00  0.00    +0.001 C 
ATOM     15  C   UNL     1      36.898 -25.685 -13.228  0.00  0.00    +0.068 C 
ATOM     16  C   UNL     1      36.196 -26.674 -15.316  0.00  0.00    +0.001 C 
ATOM     17  C   UNL     1      36.885 -26.768 -14.108  0.00  0.00    +0.012 C 
ENDBRANCH   2  12
BRANCH   3  19
ATOM     18  O   UNL     1      36.961 -21.003 -16.616  0.00  0.00    -0.245 OA
ATOM     19  C   UNL     1      36.679 -22.187 -16.576  0.00  0.00    +0.339 C 
BRANCH  19  20
ATOM     20  O   UNL     1      37.519 -23.249 -16.567  0.00  0.00    -0.446 OA
BRANCH  20  21
ATOM     21  C   UNL     1      38.667 -23.109 -15.723  0.00  0.00    +0.209 C 
ATOM     22  C   UNL     1      39.301 -24.469 -15.525  0.00  0.00    +0.051 C 
ENDBRANCH  20  21
ENDBRANCH  19  20
ENDBRANCH   3  19
BRANCH   4  24
ATOM     23  O   UNL     1      32.551 -22.837 -12.976  0.00  0.00    -0.245 OA
ATOM     24  C   UNL     1      32.676 -23.696 -13.828  0.00  0.00    +0.342 C 
BRANCH  24  25
ATOM     25  O   UNL     1      32.309 -24.998 -13.767  0.00  0.00    -0.441 OA
ATOM     26  C   UNL     1      30.958 -25.229 -13.354  0.00  0.00    +0.256 C 
ENDBRANCH  24  25
ENDBRANCH   4  24
TORSDOF 6
ENDMDL
MODEL 4
REMARK VINA RESULT:      -6.0     14.736     17.421
REMARK  Name = 3333
REMARK  6 active torsions:
REMARK  status: ('A' for Active; 'I' for Inactive)
REMARK    1  A    between atoms: C_2  and  C_12
REMARK    2  A    between atoms: C_3  and  C_19
REMARK    3  A    between atoms: C_4  and  C_24
REMARK    4  A    between atoms: C_19  and  O_20
REMARK    5  A    between atoms: O_20  and  C_21
REMARK    6  A    between atoms: C_24  and  O_25
REMARK                            x       y       z     vdW  Elec       q    Type
REMARK                         _______ _______ _______ _____ _____    ______ ____
ROOT
ATOM      1  N   UNL     1      33.958 -23.869 -12.941  0.00  0.00    -0.334 N 
ATOM      2  C   UNL     1      34.452 -24.208 -15.711  0.00  0.00    +0.012 C 
ATOM      3  C   UNL     1      35.370 -24.765 -14.618  0.00  0.00    +0.071 C 
ATOM      4  C   UNL     1      33.163 -23.596 -15.153  0.00  0.00    +0.085 C 
ATOM      5  C   UNL     1      35.100 -24.566 -13.307  0.00  0.00    +0.098 C 
ATOM      6  C   UNL     1      32.985 -23.430 -13.823  0.00  0.00    +0.028 C 
ATOM      7  C   UNL     1      35.953 -25.034 -12.159  0.00  0.00    +0.026 C 
ATOM      8  C   UNL     1      31.783 -22.796 -13.177  0.00  0.00    +0.047 C 
ATOM      9  H   UNL     1      33.831 -23.674 -11.985  0.00  0.00    +0.147 HD
ENDROOT
BRANCH   2  12
ATOM     10 CL   UNL     1      33.717 -23.979 -18.654  0.00  0.00    -0.081 Cl
ATOM     11 CL   UNL     1      35.369 -21.759 -20.288  0.00  0.00    -0.081 Cl
ATOM     12  C   UNL     1      35.190 -23.188 -16.529  0.00  0.00    +0.012 C 
ATOM     13  C   UNL     1      34.928 -23.006 -17.883  0.00  0.00    +0.068 C 
ATOM     14  C   UNL     1      36.157 -22.419 -15.887  0.00  0.00    +0.001 C 
ATOM     15  C   UNL     1      35.639 -22.044 -18.603  0.00  0.00    +0.068 C 
ATOM     16  C   UNL     1      36.868 -21.460 -16.607  0.00  0.00    +0.001 C 
ATOM     17  C   UNL     1      36.610 -21.272 -17.965  0.00  0.00    +0.012 C 
ENDBRANCH   2  12
BRANCH   3  19
ATOM     18  O   UNL     1      36.393 -26.627 -15.667  0.00  0.00    -0.245 OA
ATOM     19  C   UNL     1      36.514 -25.575 -15.067  0.00  0.00    +0.339 C 
BRANCH  19  20
ATOM     20  O   UNL     1      37.655 -24.946 -14.699  0.00  0.00    -0.446 OA
BRANCH  20  21
ATOM     21  C   UNL     1      38.743 -25.812 -14.357  0.00  0.00    +0.209 C 
ATOM     22  C   UNL     1      39.987 -25.354 -15.088  0.00  0.00    +0.051 C 
ENDBRANCH  20  21
ENDBRANCH  19  20
ENDBRANCH   3  19
BRANCH   4  24
ATOM     23  O   UNL     1      32.105 -22.201 -16.750  0.00  0.00    -0.245 OA
ATOM     24  C   UNL     1      32.120 -23.249 -16.133  0.00  0.00    +0.342 C 
BRANCH  24  25
ATOM     25  O   UNL     1      31.239 -24.275 -16.201  0.00  0.00    -0.441 OA
ATOM     26  C   UNL     1      29.865 -23.906 -16.043  0.00  0.00    +0.256 C 
ENDBRANCH  24  25
ENDBRANCH   4  24
TORSDOF 6
ENDMDL
MODEL 5
REMARK VINA RESULT:      -5.4      2.326      3.683
REMARK  Name = 3333
REMARK  6 active torsions:
REMARK  status: ('A' for Active; 'I' for Inactive)
REMARK    1  A    between atoms: C_2  and  C_12
REMARK    2  A    between atoms: C_3  and  C_19
REMARK    3  A    between atoms: C_4  and  C_24
REMARK    4  A    between atoms: C_19  and  O_20
REMARK    5  A    between atoms: O_20  and  C_21
REMARK    6  A    between atoms: C_24  and  O_25
REMARK                            x       y       z     vdW  Elec       q    Type
REMARK                         _______ _______ _______ _____ _____    ______ ____
ROOT
ATOM      1  N   UNL     1      33.688 -11.435 -24.351  0.00  0.00    -0.334 N 
ATOM      2  C   UNL     1      33.121  -9.216 -22.684  0.00  0.00    +0.012 C 
ATOM      3  C   UNL     1      32.496 -10.601 -22.484  0.00  0.00    +0.071 C 
ATOM      4  C   UNL     1      34.201  -9.199 -23.770  0.00  0.00    +0.085 C 
ATOM      5  C   UNL     1      32.787 -11.628 -23.316  0.00  0.00    +0.098 C 
ATOM      6  C   UNL     1      34.417 -10.276 -24.560  0.00  0.00    +0.028 C 
ATOM      7  C   UNL     1      32.202 -13.011 -23.232  0.00  0.00    +0.026 C 
ATOM      8  C   UNL     1      35.414 -10.346 -25.684  0.00  0.00    +0.047 C 
ATOM      9  H   UNL     1      33.820 -12.178 -24.984  0.00  0.00    +0.147 HD
ENDROOT
BRANCH   2  12
ATOM     10 CL   UNL     1      32.601  -7.013 -20.652  0.00  0.00    -0.081 Cl
ATOM     11 CL   UNL     1      30.290  -4.937 -21.474  0.00  0.00    -0.081 Cl
ATOM     12  C   UNL     1      32.052  -8.214 -23.012  0.00  0.00    +0.012 C 
ATOM     13  C   UNL     1      31.738  -7.169 -22.148  0.00  0.00    +0.068 C 
ATOM     14  C   UNL     1      31.373  -8.360 -24.218  0.00  0.00    +0.001 C 
ATOM     15  C   UNL     1      30.736  -6.261 -22.495  0.00  0.00    +0.068 C 
ATOM     16  C   UNL     1      30.372  -7.454 -24.563  0.00  0.00    +0.001 C 
ATOM     17  C   UNL     1      30.052  -6.404 -23.703  0.00  0.00    +0.012 C 
ENDBRANCH   2  12
BRANCH   3  19
ATOM     18  O   UNL     1      30.478 -11.178 -21.383  0.00  0.00    -0.245 OA
ATOM     19  C   UNL     1      31.621 -10.766 -21.312  0.00  0.00    +0.339 C 
BRANCH  19  20
ATOM     20  O   UNL     1      32.309 -10.389 -20.208  0.00  0.00    -0.446 OA
BRANCH  20  21
ATOM     21  C   UNL     1      31.504  -9.917 -19.122  0.00  0.00    +0.209 C 
ATOM     22  C   UNL     1      31.324 -11.037 -18.119  0.00  0.00    +0.051 C 
ENDBRANCH  20  21
ENDBRANCH  19  20
ENDBRANCH   3  19
BRANCH   4  24
ATOM     23  O   UNL     1      35.636  -7.508 -22.935  0.00  0.00    -0.245 OA
ATOM     24  C   UNL     1      35.016  -7.978 -23.871  0.00  0.00    +0.342 C 
BRANCH  24  25
ATOM     25  O   UNL     1      34.937  -7.514 -25.141  0.00  0.00    -0.441 OA
ATOM     26  C   UNL     1      34.274  -6.254 -25.288  0.00  0.00    +0.256 C 
ENDBRANCH  24  25
ENDBRANCH   4  24
TORSDOF 6
ENDMDL
MODEL 6
REMARK VINA RESULT:      -5.0      2.712      4.513
REMARK  Name = 3333
REMARK  6 active torsions:
REMARK  status: ('A' for Active; 'I' for Inactive)
REMARK    1  A    between atoms: C_2  and  C_12
REMARK    2  A    between atoms: C_3  and  C_19
REMARK    3  A    between atoms: C_4  and  C_24
REMARK    4  A    between atoms: C_19  and  O_20
REMARK    5  A    between atoms: O_20  and  C_21
REMARK    6  A    between atoms: C_24  and  O_25
REMARK                            x       y       z     vdW  Elec       q    Type
REMARK                         _______ _______ _______ _____ _____    ______ ____
ROOT
ATOM      1  N   UNL     1      31.381 -13.104 -21.212  0.00  0.00    -0.334 N 
ATOM      2  C   UNL     1      33.559 -12.298 -22.835  0.00  0.00    +0.012 C 
ATOM      3  C   UNL     1      32.393 -11.373 -22.471  0.00  0.00    +0.071 C 
ATOM      4  C   UNL     1      33.507 -13.641 -22.101  0.00  0.00    +0.085 C 
ATOM      5  C   UNL     1      31.366 -11.808 -21.703  0.00  0.00    +0.098 C 
ATOM      6  C   UNL     1      32.433 -13.993 -21.359  0.00  0.00    +0.028 C 
ATOM      7  C   UNL     1      30.158 -10.997 -21.320  0.00  0.00    +0.026 C 
ATOM      8  C   UNL     1      32.260 -15.305 -20.642  0.00  0.00    +0.047 C 
ATOM      9  H   UNL     1      30.585 -13.414 -20.723  0.00  0.00    +0.147 HD
ENDROOT
BRANCH   2  12
ATOM     10 CL   UNL     1      35.387 -10.516 -24.489  0.00  0.00    -0.081 Cl
ATOM     11 CL   UNL     1      35.354 -11.109 -27.647  0.00  0.00    -0.081 Cl
ATOM     12  C   UNL     1      33.587 -12.527 -24.319  0.00  0.00    +0.012 C 
ATOM     13  C   UNL     1      34.390 -11.764 -25.162  0.00  0.00    +0.068 C 
ATOM     14  C   UNL     1      32.778 -13.535 -24.835  0.00  0.00    +0.001 C 
ATOM     15  C   UNL     1      34.383 -12.014 -26.535  0.00  0.00    +0.068 C 
ATOM     16  C   UNL     1      32.771 -13.782 -26.207  0.00  0.00    +0.001 C 
ATOM     17  C   UNL     1      33.573 -13.022 -27.058  0.00  0.00    +0.012 C 
ENDBRANCH   2  12
BRANCH   3  19
ATOM     18  O   UNL     1      32.040  -9.610 -24.015  0.00  0.00    -0.245 OA
ATOM     19  C   UNL     1      32.482  -9.982 -22.943  0.00  0.00    +0.339 C 
BRANCH  19  20
ATOM     20  O   UNL     1      33.117  -9.248 -21.999  0.00  0.00    -0.446 OA
BRANCH  20  21
ATOM     21  C   UNL     1      32.536  -7.967 -21.733  0.00  0.00    +0.209 C 
ATOM     22  C   UNL     1      32.286  -7.838 -20.245  0.00  0.00    +0.051 C 
ENDBRANCH  20  21
ENDBRANCH  19  20
ENDBRANCH   3  19
BRANCH   4  24
ATOM     23  O   UNL     1      35.468 -14.691 -21.282  0.00  0.00    -0.245 OA
ATOM     24  C   UNL     1      34.701 -14.496 -22.206  0.00  0.00    +0.342 C 
BRANCH  24  25
ATOM     25  O   UNL     1      34.764 -14.990 -23.466  0.00  0.00    -0.441 OA
ATOM     26  C   UNL     1      34.910 -16.411 -23.555  0.00  0.00    +0.256 C 
ENDBRANCH  24  25
ENDBRANCH   4  24
TORSDOF 6
ENDMDL
MODEL 7
REMARK VINA RESULT:      -4.9      3.834      6.239
REMARK  Name = 3333
REMARK  6 active torsions:
REMARK  status: ('A' for Active; 'I' for Inactive)
REMARK    1  A    between atoms: C_2  and  C_12
REMARK    2  A    between atoms: C_3  and  C_19
REMARK    3  A    between atoms: C_4  and  C_24
REMARK    4  A    between atoms: C_19  and  O_20
REMARK    5  A    between atoms: O_20  and  C_21
REMARK    6  A    between atoms: C_24  and  O_25
REMARK                            x       y       z     vdW  Elec       q    Type
REMARK                         _______ _______ _______ _____ _____    ______ ____
ROOT
ATOM      1  N   UNL     1      31.479 -10.650 -22.525  0.00  0.00    -0.334 N 
ATOM      2  C   UNL     1      33.562 -12.469 -23.143  0.00  0.00    +0.012 C 
ATOM      3  C   UNL     1      33.423 -11.092 -23.803  0.00  0.00    +0.071 C 
ATOM      4  C   UNL     1      32.560 -12.690 -22.006  0.00  0.00    +0.085 C 
ATOM      5  C   UNL     1      32.402 -10.263 -23.485  0.00  0.00    +0.098 C 
ATOM      6  C   UNL     1      31.566 -11.805 -21.766  0.00  0.00    +0.028 C 
ATOM      7  C   UNL     1      32.152  -8.912 -24.098  0.00  0.00    +0.026 C 
ATOM      8  C   UNL     1      30.503 -11.952 -20.711  0.00  0.00    +0.047 C 
ATOM      9  H   UNL     1      30.706 -10.060 -22.373  0.00  0.00    +0.147 HD
ENDROOT
BRANCH   2  12
ATOM     10 CL   UNL     1      35.136 -15.037 -22.720  0.00  0.00    -0.081 Cl
ATOM     11 CL   UNL     1      34.720 -17.264 -24.999  0.00  0.00    -0.081 Cl
ATOM     12  C   UNL     1      33.410 -13.548 -24.175  0.00  0.00    +0.012 C 
ATOM     13  C   UNL     1      34.087 -14.760 -24.073  0.00  0.00    +0.068 C 
ATOM     14  C   UNL     1      32.562 -13.302 -25.251  0.00  0.00    +0.001 C 
ATOM     15  C   UNL     1      33.914 -15.735 -25.057  0.00  0.00    +0.068 C 
ATOM     16  C   UNL     1      32.391 -14.276 -26.235  0.00  0.00    +0.001 C 
ATOM     17  C   UNL     1      33.066 -15.492 -26.138  0.00  0.00    +0.012 C 
ENDBRANCH   2  12
BRANCH   3  19
ATOM     18  O   UNL     1      34.574 -11.142 -25.873  0.00  0.00    -0.245 OA
ATOM     19  C   UNL     1      34.486 -10.701 -24.742  0.00  0.00    +0.339 C 
BRANCH  19  20
ATOM     20  O   UNL     1      35.294  -9.805 -24.127  0.00  0.00    -0.446 OA
BRANCH  20  21
ATOM     21  C   UNL     1      35.163  -8.455 -24.584  0.00  0.00    +0.209 C 
ATOM     22  C   UNL     1      34.987  -7.544 -23.388  0.00  0.00    +0.051 C 
ENDBRANCH  20  21
ENDBRANCH  19  20
ENDBRANCH   3  19
BRANCH   4  24
ATOM     23  O   UNL     1      33.541 -13.906 -20.223  0.00  0.00    -0.245 OA
ATOM     24  C   UNL     1      32.770 -13.880 -21.165  0.00  0.00    +0.342 C 
BRANCH  24  25
ATOM     25  O   UNL     1      31.977 -14.876 -21.628  0.00  0.00    -0.441 OA
ATOM     26  C   UNL     1      32.147 -16.139 -20.976  0.00  0.00    +0.256 C 
ENDBRANCH  24  25
ENDBRANCH   4  24
TORSDOF 6
ENDMDL
MODEL 8
REMARK VINA RESULT:      -4.7      2.756      4.544
REMARK  Name = 3333
REMARK  6 active torsions:
REMARK  status: ('A' for Active; 'I' for Inactive)
REMARK    1  A    between atoms: C_2  and  C_12
REMARK    2  A    between atoms: C_3  and  C_19
REMARK    3  A    between atoms: C_4  and  C_24
REMARK    4  A    between atoms: C_19  and  O_20
REMARK    5  A    between atoms: O_20  and  C_21
REMARK    6  A    between atoms: C_24  and  O_25
REMARK                            x       y       z     vdW  Elec       q    Type
REMARK                         _______ _______ _______ _____ _____    ______ ____
ROOT
ATOM      1  N   UNL     1      34.826  -7.998 -25.130  0.00  0.00    -0.334 N 
ATOM      2  C   UNL     1      32.540  -8.902 -23.720  0.00  0.00    +0.012 C 
ATOM      3  C   UNL     1      32.673  -7.484 -24.288  0.00  0.00    +0.071 C 
ATOM      4  C   UNL     1      33.693  -9.821 -24.134  0.00  0.00    +0.085 C 
ATOM      5  C   UNL     1      33.792  -7.094 -24.943  0.00  0.00    +0.098 C 
ATOM      6  C   UNL     1      34.776  -9.338 -24.783  0.00  0.00    +0.028 C 
ATOM      7  C   UNL     1      34.040  -5.720 -25.504  0.00  0.00    +0.026 C 
ATOM      8  C   UNL     1      35.982 -10.143 -25.188  0.00  0.00    +0.047 C 
ATOM      9  H   UNL     1      35.655  -7.662 -25.541  0.00  0.00    +0.147 HD
ENDROOT
BRANCH   2  12
ATOM     10 CL   UNL     1      30.708 -10.916 -22.363  0.00  0.00    -0.081 Cl
ATOM     11 CL   UNL     1      30.591 -10.689 -19.160  0.00  0.00    -0.081 Cl
ATOM     12  C   UNL     1      32.443  -8.845 -22.223  0.00  0.00    +0.012 C 
ATOM     13  C   UNL     1      31.632  -9.723 -21.508  0.00  0.00    +0.068 C 
ATOM     14  C   UNL     1      33.194  -7.880 -21.559  0.00  0.00    +0.001 C 
ATOM     15  C   UNL     1      31.574  -9.634 -20.117  0.00  0.00    +0.068 C 
ATOM     16  C   UNL     1      33.134  -7.791 -20.169  0.00  0.00    +0.001 C 
ATOM     17  C   UNL     1      32.325  -8.668 -19.447  0.00  0.00    +0.012 C 
ENDBRANCH   2  12
BRANCH   3  19
ATOM     18  O   UNL     1      30.408  -6.861 -24.600  0.00  0.00    -0.245 OA
ATOM     19  C   UNL     1      31.505  -6.602 -24.139  0.00  0.00    +0.339 C 
BRANCH  19  20
ATOM     20  O   UNL     1      31.879  -5.512 -23.429  0.00  0.00    -0.446 OA
BRANCH  20  21
ATOM     21  C   UNL     1      30.804  -4.771 -22.841  0.00  0.00    +0.209 C 
ATOM     22  C   UNL     1      30.454  -5.387 -21.504  0.00  0.00    +0.051 C 
ENDBRANCH  20  21
ENDBRANCH  19  20
ENDBRANCH   3  19
BRANCH   4  24
ATOM     23  O   UNL     1      33.817 -11.747 -22.758  0.00  0.00    -0.245 OA
ATOM     24  C   UNL     1      33.533 -11.254 -23.833  0.00  0.00    +0.342 C 
BRANCH  24  25
ATOM     25  O   UNL     1      33.036 -11.868 -24.934  0.00  0.00    -0.441 OA
ATOM     26  C   UNL     1      33.394 -13.247 -25.072  0.00  0.00    +0.256 C 
ENDBRANCH  24  25
ENDBRANCH   4  24
TORSDOF 6
ENDMDL
MODEL 9
REMARK VINA RESULT:      -4.6      2.835      4.910
REMARK  Name = 3333
REMARK  6 active torsions:
REMARK  status: ('A' for Active; 'I' for Inactive)
REMARK    1  A    between atoms: C_2  and  C_12
REMARK    2  A    between atoms: C_3  and  C_19
REMARK    3  A    between atoms: C_4  and  C_24
REMARK    4  A    between atoms: C_19  and  O_20
REMARK    5  A    between atoms: O_20  and  C_21
REMARK    6  A    between atoms: C_24  and  O_25
REMARK                            x       y       z     vdW  Elec       q    Type
REMARK                         _______ _______ _______ _____ _____    ______ ____
ROOT
ATOM      1  N   UNL     1      31.899  -5.391 -21.058  0.00  0.00    -0.334 N 
ATOM      2  C   UNL     1      31.741  -7.861 -22.436  0.00  0.00    +0.012 C 
ATOM      3  C   UNL     1      32.001  -7.753 -20.929  0.00  0.00    +0.071 C 
ATOM      4  C   UNL     1      31.415  -6.513 -23.085  0.00  0.00    +0.085 C 
ATOM      5  C   UNL     1      32.082  -6.548 -20.318  0.00  0.00    +0.098 C 
ATOM      6  C   UNL     1      31.532  -5.356 -22.393  0.00  0.00    +0.028 C 
ATOM      7  C   UNL     1      32.370  -6.329 -18.857  0.00  0.00    +0.026 C 
ATOM      8  C   UNL     1      31.286  -3.979 -22.949  0.00  0.00    +0.047 C 
ATOM      9  H   UNL     1      32.041  -4.531 -20.601  0.00  0.00    +0.147 HD
ENDROOT
BRANCH   2  12
ATOM     10 CL   UNL     1      31.474 -10.751 -23.347  0.00  0.00    -0.081 Cl
ATOM     11 CL   UNL     1      34.080 -11.958 -24.788  0.00  0.00    -0.081 Cl
ATOM     12  C   UNL     1      32.927  -8.482 -23.116  0.00  0.00    +0.012 C 
ATOM     13  C   UNL     1      32.905  -9.798 -23.570  0.00  0.00    +0.068 C 
ATOM     14  C   UNL     1      34.064  -7.697 -23.284  0.00  0.00    +0.001 C 
ATOM     15  C   UNL     1      34.031 -10.333 -24.197  0.00  0.00    +0.068 C 
ATOM     16  C   UNL     1      35.189  -8.233 -23.909  0.00  0.00    +0.001 C 
ATOM     17  C   UNL     1      35.174  -9.550 -24.366  0.00  0.00    +0.012 C 
ENDBRANCH   2  12
BRANCH   3  19
ATOM     18  O   UNL     1      32.914  -9.221 -19.309  0.00  0.00    -0.245 OA
ATOM     19  C   UNL     1      32.091  -9.018 -20.183  0.00  0.00    +0.339 C 
BRANCH  19  20
ATOM     20  O   UNL     1      31.130  -9.855 -20.641  0.00  0.00    -0.446 OA
BRANCH  20  21
ATOM     21  C   UNL     1      30.860 -10.985 -19.805  0.00  0.00    +0.209 C 
ATOM     22  C   UNL     1      31.754 -12.133 -20.222  0.00  0.00    +0.051 C 
ENDBRANCH  20  21
ENDBRANCH  19  20
ENDBRANCH   3  19
BRANCH   4  24
ATOM     23  O   UNL     1      30.233  -7.449 -24.913  0.00  0.00    -0.245 OA
ATOM     24  C   UNL     1      30.925  -6.550 -24.472  0.00  0.00    +0.342 C 
BRANCH  24  25
ATOM     25  O   UNL     1      31.374  -5.445 -25.115  0.00  0.00    -0.441 OA
ATOM     26  C   UNL     1      32.669  -5.575 -25.711  0.00  0.00    +0.256 C 
ENDBRANCH  24  25
ENDBRANCH   4  24
TORSDOF 6
ENDMDL
