MODEL 1
REMARK VINA RESULT:     -10.6      0.000      0.000
REMARK  Name = 25263414
REMARK  3 active torsions:
REMARK  status: ('A' for Active; 'I' for Inactive)
REMARK    1  A    between atoms: N_1  and  C_7
REMARK    2  A    between atoms: N_1  and  C_13
REMARK    3  A    between atoms: C_16  and  C_22
REMARK                            x       y       z     vdW  Elec       q    Type
REMARK                         _______ _______ _______ _____ _____    ______ ____
ROOT
ATOM      1  N   UNL     1      33.492 -23.197 -18.447  0.00  0.00    -0.299 N 
ATOM      2  H   UNL     1      33.453 -24.056 -18.926  0.00  0.00    +0.153 HD
ENDROOT
BRANCH   1   7
ATOM      3  N   UNL     1      33.940 -23.499 -16.143  0.00  0.00    -0.106 N 
ATOM      4  N   UNL     1      32.278 -23.288 -14.418  0.00  0.00    -0.340 NA
ATOM      5  N   UNL     1      35.265 -23.783 -16.239  0.00  0.00    -0.139 NA
ATOM      6  N   UNL     1      34.613 -23.833 -14.058  0.00  0.00    -0.145 NA
ATOM      7  C   UNL     1      33.026 -23.208 -17.164  0.00  0.00    +0.138 C 
ATOM      8  C   UNL     1      31.751 -22.958 -16.823  0.00  0.00    +0.061 C 
ATOM      9  C   UNL     1      33.563 -23.536 -14.797  0.00  0.00    +0.174 C 
ATOM     10  C   UNL     1      31.429 -23.016 -15.365  0.00  0.00    +0.125 C 
ATOM     11  C   UNL     1      30.001 -22.738 -14.969  0.00  0.00    +0.068 C 
ATOM     12  C   UNL     1      35.610 -23.971 -14.970  0.00  0.00    +0.230 C 
ENDBRANCH   1   7
BRANCH   1  13
ATOM     13  C   UNL     1      34.020 -22.119 -19.168  0.00  0.00    +0.049 C 
ATOM     14  C   UNL     1      35.401 -21.966 -19.280  0.00  0.00    +0.015 C 
ATOM     15  C   UNL     1      33.164 -21.201 -19.777  0.00  0.00    +0.015 C 
ATOM     16  C   UNL     1      35.072 -19.974 -20.608  0.00  0.00    +0.072 C 
ATOM     17  C   UNL     1      35.927 -20.893 -19.999  0.00  0.00    +0.005 C 
ATOM     18  C   UNL     1      33.690 -20.129 -20.496  0.00  0.00    +0.005 C 
BRANCH  16  22
ATOM     19  F   UNL     1      35.177 -17.610 -20.959  0.00  0.00    -0.166 F 
ATOM     20  F   UNL     1      36.995 -18.739 -21.310  0.00  0.00    -0.166 F 
ATOM     21  F   UNL     1      35.336 -18.892 -22.708  0.00  0.00    -0.166 F 
ATOM     22  C   UNL     1      35.634 -18.827 -21.377  0.00  0.00    +0.419 C 
ENDBRANCH  16  22
ENDBRANCH   1  13
TORSDOF 3
ENDMDL
MODEL 2
REMARK VINA RESULT:     -10.5      1.110      2.834
REMARK  Name = 25263414
REMARK  3 active torsions:
REMARK  status: ('A' for Active; 'I' for Inactive)
REMARK    1  A    between atoms: N_1  and  C_7
REMARK    2  A    between atoms: N_1  and  C_13
REMARK    3  A    between atoms: C_16  and  C_22
REMARK                            x       y       z     vdW  Elec       q    Type
REMARK                         _______ _______ _______ _____ _____    ______ ____
ROOT
ATOM      1  N   UNL     1      33.019 -22.837 -18.554  0.00  0.00    -0.299 N 
ATOM      2  H   UNL     1      32.485 -23.451 -19.107  0.00  0.00    +0.153 HD
ENDROOT
BRANCH   1   7
ATOM      3  N   UNL     1      31.723 -22.952 -16.578  0.00  0.00    -0.106 N 
ATOM      4  N   UNL     1      32.629 -23.460 -14.410  0.00  0.00    -0.340 NA
ATOM      5  N   UNL     1      30.512 -22.662 -17.124  0.00  0.00    -0.139 NA
ATOM      6  N   UNL     1      30.297 -22.999 -14.882  0.00  0.00    -0.145 NA
ATOM      7  C   UNL     1      32.970 -23.052 -17.207  0.00  0.00    +0.138 C 
ATOM      8  C   UNL     1      34.040 -23.353 -16.452  0.00  0.00    +0.061 C 
ATOM      9  C   UNL     1      31.565 -23.154 -15.203  0.00  0.00    +0.174 C 
ATOM     10  C   UNL     1      33.788 -23.554 -14.994  0.00  0.00    +0.125 C 
ATOM     11  C   UNL     1      34.981 -23.892 -14.135  0.00  0.00    +0.068 C 
ATOM     12  C   UNL     1      29.705 -22.706 -16.069  0.00  0.00    +0.230 C 
ENDBRANCH   1   7
BRANCH   1  13
ATOM     13  C   UNL     1      33.732 -21.853 -19.250  0.00  0.00    +0.049 C 
ATOM     14  C   UNL     1      33.048 -20.840 -19.921  0.00  0.00    +0.015 C 
ATOM     15  C   UNL     1      35.127 -21.886 -19.271  0.00  0.00    +0.015 C 
ATOM     16  C   UNL     1      35.153 -19.893 -20.636  0.00  0.00    +0.072 C 
ATOM     17  C   UNL     1      33.758 -19.860 -20.614  0.00  0.00    +0.005 C 
ATOM     18  C   UNL     1      35.836 -20.907 -19.964  0.00  0.00    +0.005 C 
BRANCH  16  22
ATOM     19  F   UNL     1      35.671 -18.841 -22.721  0.00  0.00    -0.166 F 
ATOM     20  F   UNL     1      35.636 -17.574 -20.962  0.00  0.00    -0.166 F 
ATOM     21  F   UNL     1      37.264 -18.987 -21.249  0.00  0.00    -0.166 F 
ATOM     22  C   UNL     1      35.912 -18.845 -21.377  0.00  0.00    +0.419 C 
ENDBRANCH  16  22
ENDBRANCH   1  13
TORSDOF 3
ENDMDL
MODEL 3
REMARK VINA RESULT:     -10.4      5.257      8.182
REMARK  Name = 25263414
REMARK  3 active torsions:
REMARK  status: ('A' for Active; 'I' for Inactive)
REMARK    1  A    between atoms: N_1  and  C_7
REMARK    2  A    between atoms: N_1  and  C_13
REMARK    3  A    between atoms: C_16  and  C_22
REMARK                            x       y       z     vdW  Elec       q    Type
REMARK                         _______ _______ _______ _____ _____    ______ ____
ROOT
ATOM      1  N   UNL     1      35.484 -18.403 -21.752  0.00  0.00    -0.299 N 
ATOM      2  H   UNL     1      36.382 -18.491 -22.146  0.00  0.00    +0.153 HD
ENDROOT
BRANCH   1   7
ATOM      3  N   UNL     1      34.616 -16.968 -23.421  0.00  0.00    -0.106 N 
ATOM      4  N   UNL     1      33.419 -14.938 -22.950  0.00  0.00    -0.340 NA
ATOM      5  N   UNL     1      35.022 -17.671 -24.511  0.00  0.00    -0.139 NA
ATOM      6  N   UNL     1      33.905 -15.798 -25.163  0.00  0.00    -0.145 NA
ATOM      7  C   UNL     1      34.805 -17.261 -22.065  0.00  0.00    +0.138 C 
ATOM      8  C   UNL     1      34.308 -16.407 -21.155  0.00  0.00    +0.061 C 
ATOM      9  C   UNL     1      33.934 -15.824 -23.846  0.00  0.00    +0.174 C 
ATOM     10  C   UNL     1      33.592 -15.210 -21.690  0.00  0.00    +0.125 C 
ATOM     11  C   UNL     1      33.030 -14.242 -20.679  0.00  0.00    +0.068 C 
ATOM     12  C   UNL     1      34.570 -16.928 -25.515  0.00  0.00    +0.230 C 
ENDBRANCH   1   7
BRANCH   1  13
ATOM     13  C   UNL     1      35.067 -19.467 -20.943  0.00  0.00    +0.049 C 
ATOM     14  C   UNL     1      36.012 -20.251 -20.282  0.00  0.00    +0.015 C 
ATOM     15  C   UNL     1      33.708 -19.742 -20.798  0.00  0.00    +0.015 C 
ATOM     16  C   UNL     1      34.238 -21.587 -19.330  0.00  0.00    +0.072 C 
ATOM     17  C   UNL     1      35.598 -21.310 -19.475  0.00  0.00    +0.005 C 
ATOM     18  C   UNL     1      33.293 -20.802 -19.992  0.00  0.00    +0.005 C 
BRANCH  16  22
ATOM     19  F   UNL     1      32.543 -22.553 -17.946  0.00  0.00    -0.166 F 
ATOM     20  F   UNL     1      33.752 -23.918 -19.119  0.00  0.00    -0.166 F 
ATOM     21  F   UNL     1      34.615 -22.914 -17.394  0.00  0.00    -0.166 F 
ATOM     22  C   UNL     1      33.794 -22.719 -18.468  0.00  0.00    +0.419 C 
ENDBRANCH  16  22
ENDBRANCH   1  13
TORSDOF 3
ENDMDL
MODEL 4
REMARK VINA RESULT:     -10.3      5.158      8.184
REMARK  Name = 25263414
REMARK  3 active torsions:
REMARK  status: ('A' for Active; 'I' for Inactive)
REMARK    1  A    between atoms: N_1  and  C_7
REMARK    2  A    between atoms: N_1  and  C_13
REMARK    3  A    between atoms: C_16  and  C_22
REMARK                            x       y       z     vdW  Elec       q    Type
REMARK                         _______ _______ _______ _____ _____    ______ ____
ROOT
ATOM      1  N   UNL     1      35.906 -18.375 -21.938  0.00  0.00    -0.299 N 
ATOM      2  H   UNL     1      36.882 -18.360 -22.061  0.00  0.00    +0.153 HD
ENDROOT
BRANCH   1   7
ATOM      3  N   UNL     1      34.793 -16.290 -21.838  0.00  0.00    -0.106 N 
ATOM      4  N   UNL     1      33.744 -15.241 -23.730  0.00  0.00    -0.340 NA
ATOM      5  N   UNL     1      34.983 -16.031 -20.518  0.00  0.00    -0.139 NA
ATOM      6  N   UNL     1      33.813 -14.334 -21.483  0.00  0.00    -0.145 NA
ATOM      7  C   UNL     1      35.209 -17.398 -22.587  0.00  0.00    +0.138 C 
ATOM      8  C   UNL     1      34.900 -17.433 -23.894  0.00  0.00    +0.061 C 
ATOM      9  C   UNL     1      34.073 -15.235 -22.409  0.00  0.00    +0.174 C 
ATOM     10  C   UNL     1      34.131 -16.269 -24.427  0.00  0.00    +0.125 C 
ATOM     11  C   UNL     1      33.777 -16.297 -25.893  0.00  0.00    +0.068 C 
ATOM     12  C   UNL     1      34.381 -14.857 -20.367  0.00  0.00    +0.230 C 
ENDBRANCH   1   7
BRANCH   1  13
ATOM     13  C   UNL     1      35.410 -19.396 -21.118  0.00  0.00    +0.049 C 
ATOM     14  C   UNL     1      34.035 -19.612 -21.030  0.00  0.00    +0.015 C 
ATOM     15  C   UNL     1      36.290 -20.197 -20.391  0.00  0.00    +0.015 C 
ATOM     16  C   UNL     1      34.421 -21.431 -19.486  0.00  0.00    +0.072 C 
ATOM     17  C   UNL     1      33.540 -20.629 -20.214  0.00  0.00    +0.005 C 
ATOM     18  C   UNL     1      35.796 -21.213 -19.575  0.00  0.00    +0.005 C 
BRANCH  16  22
ATOM     19  F   UNL     1      33.797 -23.727 -19.243  0.00  0.00    -0.166 F 
ATOM     20  F   UNL     1      34.656 -22.752 -17.507  0.00  0.00    -0.166 F 
ATOM     21  F   UNL     1      32.638 -22.252 -18.145  0.00  0.00    -0.166 F 
ATOM     22  C   UNL     1      33.892 -22.518 -18.614  0.00  0.00    +0.419 C 
ENDBRANCH  16  22
ENDBRANCH   1  13
TORSDOF 3
ENDMDL
MODEL 5
REMARK VINA RESULT:     -10.1      5.654      8.642
REMARK  Name = 25263414
REMARK  3 active torsions:
REMARK  status: ('A' for Active; 'I' for Inactive)
REMARK    1  A    between atoms: N_1  and  C_7
REMARK    2  A    between atoms: N_1  and  C_13
REMARK    3  A    between atoms: C_16  and  C_22
REMARK                            x       y       z     vdW  Elec       q    Type
REMARK                         _______ _______ _______ _____ _____    ______ ____
ROOT
ATOM      1  N   UNL     1      35.289 -17.419 -22.309  0.00  0.00    -0.299 N 
ATOM      2  H   UNL     1      36.102 -17.397 -22.863  0.00  0.00    +0.153 HD
ENDROOT
BRANCH   1   7
ATOM      3  N   UNL     1      34.093 -15.914 -23.688  0.00  0.00    -0.106 N 
ATOM      4  N   UNL     1      32.777 -14.086 -22.848  0.00  0.00    -0.340 NA
ATOM      5  N   UNL     1      34.426 -16.448 -24.892  0.00  0.00    -0.139 NA
ATOM      6  N   UNL     1      33.068 -14.646 -25.189  0.00  0.00    -0.145 NA
ATOM      7  C   UNL     1      34.472 -16.330 -22.406  0.00  0.00    +0.138 C 
ATOM      8  C   UNL     1      34.013 -15.636 -21.351  0.00  0.00    +0.061 C 
ATOM      9  C   UNL     1      33.260 -14.810 -23.896  0.00  0.00    +0.174 C 
ATOM     10  C   UNL     1      33.129 -14.472 -21.656  0.00  0.00    +0.125 C 
ATOM     11  C   UNL     1      32.607 -13.683 -20.481  0.00  0.00    +0.068 C 
ATOM     12  C   UNL     1      33.787 -15.654 -25.744  0.00  0.00    +0.230 C 
ENDBRANCH   1   7
BRANCH   1  13
ATOM     13  C   UNL     1      35.117 -18.565 -21.523  0.00  0.00    +0.049 C 
ATOM     14  C   UNL     1      33.837 -19.070 -21.299  0.00  0.00    +0.015 C 
ATOM     15  C   UNL     1      36.226 -19.202 -20.967  0.00  0.00    +0.015 C 
ATOM     16  C   UNL     1      34.774 -20.850 -19.959  0.00  0.00    +0.072 C 
ATOM     17  C   UNL     1      33.665 -20.212 -20.516  0.00  0.00    +0.005 C 
ATOM     18  C   UNL     1      36.055 -20.343 -20.185  0.00  0.00    +0.005 C 
BRANCH  16  22
ATOM     19  F   UNL     1      33.453 -22.051 -18.367  0.00  0.00    -0.166 F 
ATOM     20  F   UNL     1      34.516 -23.224 -19.849  0.00  0.00    -0.166 F 
ATOM     21  F   UNL     1      35.614 -22.260 -18.238  0.00  0.00    -0.166 F 
ATOM     22  C   UNL     1      34.591 -22.070 -19.123  0.00  0.00    +0.419 C 
ENDBRANCH  16  22
ENDBRANCH   1  13
TORSDOF 3
ENDMDL
MODEL 6
REMARK VINA RESULT:      -9.8      1.551      2.297
REMARK  Name = 25263414
REMARK  3 active torsions:
REMARK  status: ('A' for Active; 'I' for Inactive)
REMARK    1  A    between atoms: N_1  and  C_7
REMARK    2  A    between atoms: N_1  and  C_13
REMARK    3  A    between atoms: C_16  and  C_22
REMARK                            x       y       z     vdW  Elec       q    Type
REMARK                         _______ _______ _______ _____ _____    ______ ____
ROOT
ATOM      1  N   UNL     1      34.964 -22.101 -19.574  0.00  0.00    -0.299 N 
ATOM      2  H   UNL     1      35.324 -22.818 -20.144  0.00  0.00    +0.153 HD
ENDROOT
BRANCH   1   7
ATOM      3  N   UNL     1      35.507 -22.535 -17.313  0.00  0.00    -0.106 N 
ATOM      4  N   UNL     1      33.906 -23.241 -15.664  0.00  0.00    -0.340 NA
ATOM      5  N   UNL     1      36.836 -22.262 -17.377  0.00  0.00    -0.139 NA
ATOM      6  N   UNL     1      36.268 -22.878 -15.260  0.00  0.00    -0.145 NA
ATOM      7  C   UNL     1      34.546 -22.479 -18.331  0.00  0.00    +0.138 C 
ATOM      8  C   UNL     1      33.278 -22.799 -18.027  0.00  0.00    +0.061 C 
ATOM      9  C   UNL     1      35.182 -22.911 -16.005  0.00  0.00    +0.174 C 
ATOM     10  C   UNL     1      33.013 -23.188 -16.609  0.00  0.00    +0.125 C 
ATOM     11  C   UNL     1      31.593 -23.551 -16.254  0.00  0.00    +0.068 C 
ATOM     12  C   UNL     1      37.234 -22.481 -16.128  0.00  0.00    +0.230 C 
ENDBRANCH   1   7
BRANCH   1  13
ATOM     13  C   UNL     1      34.946 -20.822 -20.144  0.00  0.00    +0.049 C 
ATOM     14  C   UNL     1      36.144 -20.156 -20.400  0.00  0.00    +0.015 C 
ATOM     15  C   UNL     1      33.729 -20.215 -20.457  0.00  0.00    +0.015 C 
ATOM     16  C   UNL     1      34.910 -18.274 -21.280  0.00  0.00    +0.072 C 
ATOM     17  C   UNL     1      36.126 -18.883 -20.968  0.00  0.00    +0.005 C 
ATOM     18  C   UNL     1      33.712 -18.942 -21.024  0.00  0.00    +0.005 C 
BRANCH  16  22
ATOM     19  F   UNL     1      35.790 -16.754 -22.904  0.00  0.00    -0.166 F 
ATOM     20  F   UNL     1      33.683 -16.571 -22.425  0.00  0.00    -0.166 F 
ATOM     21  F   UNL     1      35.183 -15.931 -20.985  0.00  0.00    -0.166 F 
ATOM     22  C   UNL     1      34.891 -16.913 -21.888  0.00  0.00    +0.419 C 
ENDBRANCH  16  22
ENDBRANCH   1  13
TORSDOF 3
ENDMDL
MODEL 7
REMARK VINA RESULT:      -9.7      9.001     11.853
REMARK  Name = 25263414
REMARK  3 active torsions:
REMARK  status: ('A' for Active; 'I' for Inactive)
REMARK    1  A    between atoms: N_1  and  C_7
REMARK    2  A    between atoms: N_1  and  C_13
REMARK    3  A    between atoms: C_16  and  C_22
REMARK                            x       y       z     vdW  Elec       q    Type
REMARK                         _______ _______ _______ _____ _____    ______ ____
ROOT
ATOM      1  N   UNL     1      32.207 -12.890 -23.050  0.00  0.00    -0.299 N 
ATOM      2  H   UNL     1      31.238 -13.015 -22.931  0.00  0.00    +0.153 HD
ENDROOT
BRANCH   1   7
ATOM      3  N   UNL     1      33.162 -14.604 -24.372  0.00  0.00    -0.106 N 
ATOM      4  N   UNL     1      34.473 -16.410 -23.479  0.00  0.00    -0.340 NA
ATOM      5  N   UNL     1      32.721 -14.181 -25.586  0.00  0.00    -0.139 NA
ATOM      6  N   UNL     1      33.947 -16.085 -25.823  0.00  0.00    -0.145 NA
ATOM      7  C   UNL     1      32.952 -14.032 -23.111  0.00  0.00    +0.138 C 
ATOM      8  C   UNL     1      33.493 -14.637 -22.041  0.00  0.00    +0.061 C 
ATOM      9  C   UNL     1      33.911 -15.773 -24.543  0.00  0.00    +0.174 C 
ATOM     10  C   UNL     1      34.278 -15.879 -22.307  0.00  0.00    +0.125 C 
ATOM     11  C   UNL     1      34.891 -16.569 -21.114  0.00  0.00    +0.068 C 
ATOM     12  C   UNL     1      33.220 -15.098 -26.407  0.00  0.00    +0.230 C 
ENDBRANCH   1   7
BRANCH   1  13
ATOM     13  C   UNL     1      32.644 -11.563 -23.136  0.00  0.00    +0.049 C 
ATOM     14  C   UNL     1      31.955 -10.558 -22.459  0.00  0.00    +0.015 C 
ATOM     15  C   UNL     1      33.769 -11.247 -23.897  0.00  0.00    +0.015 C 
ATOM     16  C   UNL     1      33.516  -8.918 -23.305  0.00  0.00    +0.072 C 
ATOM     17  C   UNL     1      32.390  -9.235 -22.543  0.00  0.00    +0.005 C 
ATOM     18  C   UNL     1      34.205  -9.926 -23.982  0.00  0.00    +0.005 C 
BRANCH  16  22
ATOM     19  F   UNL     1      33.755  -6.930 -24.612  0.00  0.00    -0.166 F 
ATOM     20  F   UNL     1      33.384  -6.674 -22.491  0.00  0.00    -0.166 F 
ATOM     21  F   UNL     1      35.324  -7.380 -23.177  0.00  0.00    -0.166 F 
ATOM     22  C   UNL     1      33.982  -7.505 -23.395  0.00  0.00    +0.419 C 
ENDBRANCH  16  22
ENDBRANCH   1  13
TORSDOF 3
ENDMDL
MODEL 8
REMARK VINA RESULT:      -9.6      4.982      6.815
REMARK  Name = 25263414
REMARK  3 active torsions:
REMARK  status: ('A' for Active; 'I' for Inactive)
REMARK    1  A    between atoms: N_1  and  C_7
REMARK    2  A    between atoms: N_1  and  C_13
REMARK    3  A    between atoms: C_16  and  C_22
REMARK                            x       y       z     vdW  Elec       q    Type
REMARK                         _______ _______ _______ _____ _____    ______ ____
ROOT
ATOM      1  N   UNL     1      33.685 -24.970 -13.968  0.00  0.00    -0.299 N 
ATOM      2  H   UNL     1      33.653 -25.911 -13.680  0.00  0.00    +0.153 HD
ENDROOT
BRANCH   1   7
ATOM      3  N   UNL     1      35.496 -24.220 -12.643  0.00  0.00    -0.106 N 
ATOM      4  N   UNL     1      37.453 -23.147 -13.536  0.00  0.00    -0.340 NA
ATOM      5  N   UNL     1      35.015 -24.594 -11.429  0.00  0.00    -0.139 NA
ATOM      6  N   UNL     1      37.053 -23.609 -11.190  0.00  0.00    -0.145 NA
ATOM      7  C   UNL     1      34.909 -24.369 -13.906  0.00  0.00    +0.138 C 
ATOM      8  C   UNL     1      35.581 -23.915 -14.977  0.00  0.00    +0.061 C 
ATOM      9  C   UNL     1      36.746 -23.618 -12.472  0.00  0.00    +0.174 C 
ATOM     10  C   UNL     1      36.909 -23.286 -14.710  0.00  0.00    +0.125 C 
ATOM     11  C   UNL     1      37.674 -22.770 -15.903  0.00  0.00    +0.068 C 
ATOM     12  C   UNL     1      35.984 -24.207 -10.606  0.00  0.00    +0.230 C 
ENDBRANCH   1   7
BRANCH   1  13
ATOM     13  C   UNL     1      32.468 -24.421 -14.390  0.00  0.00    +0.049 C 
ATOM     14  C   UNL     1      32.455 -23.428 -15.370  0.00  0.00    +0.015 C 
ATOM     15  C   UNL     1      31.270 -24.867 -13.833  0.00  0.00    +0.015 C 
ATOM     16  C   UNL     1      30.045 -23.326 -15.233  0.00  0.00    +0.072 C 
ATOM     17  C   UNL     1      31.244 -22.880 -15.791  0.00  0.00    +0.005 C 
ATOM     18  C   UNL     1      30.059 -24.320 -14.254  0.00  0.00    +0.005 C 
BRANCH  16  22
ATOM     19  F   UNL     1      28.316 -21.705 -14.906  0.00  0.00    -0.166 F 
ATOM     20  F   UNL     1      28.788 -22.241 -16.954  0.00  0.00    -0.166 F 
ATOM     21  F   UNL     1      27.732 -23.652 -15.679  0.00  0.00    -0.166 F 
ATOM     22  C   UNL     1      28.750 -22.741 -15.684  0.00  0.00    +0.419 C 
ENDBRANCH  16  22
ENDBRANCH   1  13
TORSDOF 3
ENDMDL
MODEL 9
REMARK VINA RESULT:      -9.5      4.801      6.509
REMARK  Name = 25263414
REMARK  3 active torsions:
REMARK  status: ('A' for Active; 'I' for Inactive)
REMARK    1  A    between atoms: N_1  and  C_7
REMARK    2  A    between atoms: N_1  and  C_13
REMARK    3  A    between atoms: C_16  and  C_22
REMARK                            x       y       z     vdW  Elec       q    Type
REMARK                         _______ _______ _______ _____ _____    ______ ____
ROOT
ATOM      1  N   UNL     1      34.591 -23.471 -14.933  0.00  0.00    -0.299 N 
ATOM      2  H   UNL     1      35.175 -23.036 -15.595  0.00  0.00    +0.153 HD
ENDROOT
BRANCH   1   7
ATOM      3  N   UNL     1      36.019 -25.243 -14.286  0.00  0.00    -0.106 N 
ATOM      4  N   UNL     1      36.643 -25.696 -12.008  0.00  0.00    -0.340 NA
ATOM      5  N   UNL     1      36.259 -25.759 -15.520  0.00  0.00    -0.139 NA
ATOM      6  N   UNL     1      37.371 -26.965 -13.941  0.00  0.00    -0.145 NA
ATOM      7  C   UNL     1      35.227 -24.145 -13.930  0.00  0.00    +0.138 C 
ATOM      8  C   UNL     1      35.139 -23.819 -12.630  0.00  0.00    +0.061 C 
ATOM      9  C   UNL     1      36.711 -25.999 -13.334  0.00  0.00    +0.174 C 
ATOM     10  C   UNL     1      35.908 -24.675 -11.677  0.00  0.00    +0.125 C 
ATOM     11  C   UNL     1      35.817 -24.321 -10.214  0.00  0.00    +0.068 C 
ATOM     12  C   UNL     1      37.069 -26.778 -15.251  0.00  0.00    +0.230 C 
ENDBRANCH   1   7
BRANCH   1  13
ATOM     13  C   UNL     1      33.215 -23.320 -15.141  0.00  0.00    +0.049 C 
ATOM     14  C   UNL     1      32.713 -23.222 -16.438  0.00  0.00    +0.015 C 
ATOM     15  C   UNL     1      32.346 -23.269 -14.051  0.00  0.00    +0.015 C 
ATOM     16  C   UNL     1      30.473 -23.020 -15.555  0.00  0.00    +0.072 C 
ATOM     17  C   UNL     1      31.342 -23.072 -16.646  0.00  0.00    +0.005 C 
ATOM     18  C   UNL     1      30.976 -23.119 -14.258  0.00  0.00    +0.005 C 
BRANCH  16  22
ATOM     19  F   UNL     1      28.284 -23.981 -15.486  0.00  0.00    -0.166 F 
ATOM     20  F   UNL     1      28.445 -21.869 -15.025  0.00  0.00    -0.166 F 
ATOM     21  F   UNL     1      28.702 -22.554 -17.072  0.00  0.00    -0.166 F 
ATOM     22  C   UNL     1      29.007 -22.860 -15.777  0.00  0.00    +0.419 C 
ENDBRANCH  16  22
ENDBRANCH   1  13
TORSDOF 3
ENDMDL
