MODEL 1
REMARK VINA RESULT:      -5.4      0.000      0.000
REMARK  Name = 6526
REMARK  4 active torsions:
REMARK  status: ('A' for Active; 'I' for Inactive)
REMARK    1  A    between atoms: O_1  and  C_4
REMARK    2  A    between atoms: O_1  and  C_7
REMARK    3  A    between atoms: C_7  and  C_9
REMARK    4  A    between atoms: C_7  and  C_11
REMARK                            x       y       z     vdW  Elec       q    Type
REMARK                         _______ _______ _______ _____ _____    ______ ____
ROOT
ATOM      1  O   UNL     1      34.031 -17.823 -21.458  0.00  0.00    -0.442 OA
ENDROOT
BRANCH   1   4
ATOM      2  O   UNL     1      35.159 -16.295 -20.158  0.00  0.00    -0.227 OA
ATOM      3  N   UNL     1      34.924 -16.005 -22.426  0.00  0.00    -0.295 N 
ATOM      4  C   UNL     1      34.740 -16.678 -21.244  0.00  0.00    +0.398 C 
ATOM      5  H   UNL     1      34.559 -16.372 -23.264  0.00  0.00    +0.148 HD
ATOM      6  H   UNL     1      35.421 -15.155 -22.436  0.00  0.00    +0.148 HD
ENDBRANCH   1   4
BRANCH   1   7
ATOM      7  C   UNL     1      34.814 -19.006 -21.675  0.00  0.00    +0.138 C 
ATOM      8  C   UNL     1      34.769 -19.304 -23.179  0.00  0.00    +0.044 C 
BRANCH   7   9
ATOM      9  C   UNL     1      36.251 -18.697 -21.207  0.00  0.00    +0.040 C 
ATOM     10  C   UNL     1      36.915 -19.782 -20.370  0.00  0.00    +0.004 C 
ENDBRANCH   7   9
BRANCH   7  11
ATOM     11  C   UNL     1      34.133 -20.156 -20.905  0.00  0.00    +0.040 C 
ATOM     12  C   UNL     1      32.686 -19.881 -20.509  0.00  0.00    +0.004 C 
ENDBRANCH   7  11
ENDBRANCH   1   7
TORSDOF 4
ENDMDL
MODEL 2
REMARK VINA RESULT:      -5.4      8.026      9.396
REMARK  Name = 6526
REMARK  4 active torsions:
REMARK  status: ('A' for Active; 'I' for Inactive)
REMARK    1  A    between atoms: O_1  and  C_4
REMARK    2  A    between atoms: O_1  and  C_7
REMARK    3  A    between atoms: C_7  and  C_9
REMARK    4  A    between atoms: C_7  and  C_11
REMARK                            x       y       z     vdW  Elec       q    Type
REMARK                         _______ _______ _______ _____ _____    ______ ____
ROOT
ATOM      1  O   UNL     1      29.344 -22.461 -16.903  0.00  0.00    -0.442 OA
ENDROOT
BRANCH   1   4
ATOM      2  O   UNL     1      27.642 -23.748 -17.766  0.00  0.00    -0.227 OA
ATOM      3  N   UNL     1      27.296 -22.327 -15.992  0.00  0.00    -0.295 N 
ATOM      4  C   UNL     1      28.062 -22.922 -16.964  0.00  0.00    +0.398 C 
ATOM      5  H   UNL     1      27.701 -21.671 -15.380  0.00  0.00    +0.148 HD
ATOM      6  H   UNL     1      26.343 -22.558 -15.907  0.00  0.00    +0.148 HD
ENDBRANCH   1   4
BRANCH   1   7
ATOM      7  C   UNL     1      30.246 -23.242 -16.105  0.00  0.00    +0.138 C 
ATOM      8  C   UNL     1      30.228 -22.642 -14.692  0.00  0.00    +0.044 C 
BRANCH   7   9
ATOM      9  C   UNL     1      29.721 -24.692 -16.105  0.00  0.00    +0.040 C 
ATOM     10  C   UNL     1      29.786 -25.413 -14.766  0.00  0.00    +0.004 C 
ENDBRANCH   7   9
BRANCH   7  11
ATOM     11  C   UNL     1      31.655 -23.080 -16.711  0.00  0.00    +0.040 C 
ATOM     12  C   UNL     1      32.797 -23.392 -15.750  0.00  0.00    +0.004 C 
ENDBRANCH   7  11
ENDBRANCH   1   7
TORSDOF 4
ENDMDL
MODEL 3
REMARK VINA RESULT:      -5.4      0.962      2.431
REMARK  Name = 6526
REMARK  4 active torsions:
REMARK  status: ('A' for Active; 'I' for Inactive)
REMARK    1  A    between atoms: O_1  and  C_4
REMARK    2  A    between atoms: O_1  and  C_7
REMARK    3  A    between atoms: C_7  and  C_9
REMARK    4  A    between atoms: C_7  and  C_11
REMARK                            x       y       z     vdW  Elec       q    Type
REMARK                         _______ _______ _______ _____ _____    ______ ____
ROOT
ATOM      1  O   UNL     1      35.318 -17.220 -22.165  0.00  0.00    -0.442 OA
ENDROOT
BRANCH   1   4
ATOM      2  O   UNL     1      35.051 -16.108 -20.167  0.00  0.00    -0.227 OA
ATOM      3  N   UNL     1      33.702 -15.672 -21.977  0.00  0.00    -0.295 N 
ATOM      4  C   UNL     1      34.726 -16.319 -21.330  0.00  0.00    +0.398 C 
ATOM      5  H   UNL     1      33.496 -15.892 -22.914  0.00  0.00    +0.148 HD
ATOM      6  H   UNL     1      33.176 -14.987 -21.504  0.00  0.00    +0.148 HD
ENDBRANCH   1   4
BRANCH   1   7
ATOM      7  C   UNL     1      35.062 -18.600 -21.868  0.00  0.00    +0.138 C 
ATOM      8  C   UNL     1      36.262 -19.114 -21.061  0.00  0.00    +0.044 C 
BRANCH   7   9
ATOM      9  C   UNL     1      33.762 -18.660 -21.041  0.00  0.00    +0.040 C 
ATOM     10  C   UNL     1      33.245 -20.058 -20.734  0.00  0.00    +0.004 C 
ENDBRANCH   7   9
BRANCH   7  11
ATOM     11  C   UNL     1      34.991 -19.354 -23.213  0.00  0.00    +0.040 C 
ATOM     12  C   UNL     1      34.634 -18.479 -24.410  0.00  0.00    +0.004 C 
ENDBRANCH   7  11
ENDBRANCH   1   7
TORSDOF 4
ENDMDL
MODEL 4
REMARK VINA RESULT:      -5.3      9.972     11.031
REMARK  Name = 6526
REMARK  4 active torsions:
REMARK  status: ('A' for Active; 'I' for Inactive)
REMARK    1  A    between atoms: O_1  and  C_4
REMARK    2  A    between atoms: O_1  and  C_7
REMARK    3  A    between atoms: C_7  and  C_9
REMARK    4  A    between atoms: C_7  and  C_11
REMARK                            x       y       z     vdW  Elec       q    Type
REMARK                         _______ _______ _______ _____ _____    ______ ____
ROOT
ATOM      1  O   UNL     1      39.190 -26.118 -15.086  0.00  0.00    -0.442 OA
ENDROOT
BRANCH   1   4
ATOM      2  O   UNL     1      40.799 -24.582 -14.494  0.00  0.00    -0.227 OA
ATOM      3  N   UNL     1      41.058 -26.826 -14.061  0.00  0.00    -0.295 N 
ATOM      4  C   UNL     1      40.382 -25.734 -14.546  0.00  0.00    +0.398 C 
ATOM      5  H   UNL     1      40.662 -27.724 -14.137  0.00  0.00    +0.148 HD
ATOM      6  H   UNL     1      41.940 -26.710 -13.638  0.00  0.00    +0.148 HD
ENDBRANCH   1   4
BRANCH   1   7
ATOM      7  C   UNL     1      38.020 -25.600 -14.438  0.00  0.00    +0.138 C 
ATOM      8  C   UNL     1      36.830 -26.440 -14.921  0.00  0.00    +0.044 C 
BRANCH   7   9
ATOM      9  C   UNL     1      38.232 -25.750 -12.917  0.00  0.00    +0.040 C 
ATOM     10  C   UNL     1      37.989 -24.492 -12.095  0.00  0.00    +0.004 C 
ENDBRANCH   7   9
BRANCH   7  11
ATOM     11  C   UNL     1      37.840 -24.142 -14.910  0.00  0.00    +0.040 C 
ATOM     12  C   UNL     1      36.435 -23.803 -15.395  0.00  0.00    +0.004 C 
ENDBRANCH   7  11
ENDBRANCH   1   7
TORSDOF 4
ENDMDL
MODEL 5
REMARK VINA RESULT:      -5.2      1.082      2.407
REMARK  Name = 6526
REMARK  4 active torsions:
REMARK  status: ('A' for Active; 'I' for Inactive)
REMARK    1  A    between atoms: O_1  and  C_4
REMARK    2  A    between atoms: O_1  and  C_7
REMARK    3  A    between atoms: C_7  and  C_9
REMARK    4  A    between atoms: C_7  and  C_11
REMARK                            x       y       z     vdW  Elec       q    Type
REMARK                         _______ _______ _______ _____ _____    ______ ____
ROOT
ATOM      1  O   UNL     1      35.350 -17.202 -22.183  0.00  0.00    -0.442 OA
ENDROOT
BRANCH   1   4
ATOM      2  O   UNL     1      35.052 -16.134 -20.166  0.00  0.00    -0.227 OA
ATOM      3  N   UNL     1      33.684 -15.713 -21.965  0.00  0.00    -0.295 N 
ATOM      4  C   UNL     1      34.731 -16.336 -21.331  0.00  0.00    +0.398 C 
ATOM      5  H   UNL     1      33.482 -15.925 -22.906  0.00  0.00    +0.148 HD
ATOM      6  H   UNL     1      33.136 -15.055 -21.479  0.00  0.00    +0.148 HD
ENDBRANCH   1   4
BRANCH   1   7
ATOM      7  C   UNL     1      35.126 -18.595 -21.921  0.00  0.00    +0.138 C 
ATOM      8  C   UNL     1      33.827 -18.696 -21.110  0.00  0.00    +0.044 C 
BRANCH   7   9
ATOM      9  C   UNL     1      34.991 -19.303 -23.285  0.00  0.00    +0.040 C 
ATOM     10  C   UNL     1      34.676 -18.395 -24.466  0.00  0.00    +0.004 C 
ENDBRANCH   7   9
BRANCH   7  11
ATOM     11  C   UNL     1      36.305 -19.098 -21.063  0.00  0.00    +0.040 C 
ATOM     12  C   UNL     1      36.041 -20.410 -20.333  0.00  0.00    +0.004 C 
ENDBRANCH   7  11
ENDBRANCH   1   7
TORSDOF 4
ENDMDL
MODEL 6
REMARK VINA RESULT:      -5.2      2.100      3.599
REMARK  Name = 6526
REMARK  4 active torsions:
REMARK  status: ('A' for Active; 'I' for Inactive)
REMARK    1  A    between atoms: O_1  and  C_4
REMARK    2  A    between atoms: O_1  and  C_7
REMARK    3  A    between atoms: C_7  and  C_9
REMARK    4  A    between atoms: C_7  and  C_11
REMARK                            x       y       z     vdW  Elec       q    Type
REMARK                         _______ _______ _______ _____ _____    ______ ____
ROOT
ATOM      1  O   UNL     1      33.982 -18.717 -20.919  0.00  0.00    -0.442 OA
ENDROOT
BRANCH   1   4
ATOM      2  O   UNL     1      34.740 -20.741 -20.125  0.00  0.00    -0.227 OA
ATOM      3  N   UNL     1      32.552 -20.441 -20.765  0.00  0.00    -0.295 N 
ATOM      4  C   UNL     1      33.845 -20.026 -20.563  0.00  0.00    +0.398 C 
ATOM      5  H   UNL     1      31.883 -19.811 -21.120  0.00  0.00    +0.148 HD
ATOM      6  H   UNL     1      32.294 -21.367 -20.553  0.00  0.00    +0.148 HD
ENDBRANCH   1   4
BRANCH   1   7
ATOM      7  C   UNL     1      35.037 -18.435 -21.850  0.00  0.00    +0.138 C 
ATOM      8  C   UNL     1      36.356 -18.806 -21.159  0.00  0.00    +0.044 C 
BRANCH   7   9
ATOM      9  C   UNL     1      34.793 -19.308 -23.099  0.00  0.00    +0.040 C 
ATOM     10  C   UNL     1      34.632 -18.547 -24.408  0.00  0.00    +0.004 C 
ENDBRANCH   7   9
BRANCH   7  11
ATOM     11  C   UNL     1      35.013 -16.918 -22.126  0.00  0.00    +0.040 C 
ATOM     12  C   UNL     1      34.704 -16.058 -20.905  0.00  0.00    +0.004 C 
ENDBRANCH   7  11
ENDBRANCH   1   7
TORSDOF 4
ENDMDL
MODEL 7
REMARK VINA RESULT:      -5.2      9.880     11.524
REMARK  Name = 6526
REMARK  4 active torsions:
REMARK  status: ('A' for Active; 'I' for Inactive)
REMARK    1  A    between atoms: O_1  and  C_4
REMARK    2  A    between atoms: O_1  and  C_7
REMARK    3  A    between atoms: C_7  and  C_9
REMARK    4  A    between atoms: C_7  and  C_11
REMARK                            x       y       z     vdW  Elec       q    Type
REMARK                         _______ _______ _______ _____ _____    ______ ____
ROOT
ATOM      1  O   UNL     1      31.885  -8.345 -21.594  0.00  0.00    -0.442 OA
ENDROOT
BRANCH   1   4
ATOM      2  O   UNL     1      31.650  -6.186 -20.831  0.00  0.00    -0.227 OA
ATOM      3  N   UNL     1      33.052  -7.684 -19.793  0.00  0.00    -0.295 N 
ATOM      4  C   UNL     1      32.146  -7.304 -20.753  0.00  0.00    +0.398 C 
ATOM      5  H   UNL     1      33.409  -8.602 -19.790  0.00  0.00    +0.148 HD
ATOM      6  H   UNL     1      33.342  -7.039 -19.108  0.00  0.00    +0.148 HD
ENDBRANCH   1   4
BRANCH   1   7
ATOM      7  C   UNL     1      32.310  -8.165 -22.953  0.00  0.00    +0.138 C 
ATOM      8  C   UNL     1      32.785  -9.533 -23.459  0.00  0.00    +0.044 C 
BRANCH   7   9
ATOM      9  C   UNL     1      31.091  -7.662 -23.753  0.00  0.00    +0.040 C 
ATOM     10  C   UNL     1      31.229  -6.268 -24.349  0.00  0.00    +0.004 C 
ENDBRANCH   7   9
BRANCH   7  11
ATOM     11  C   UNL     1      33.502  -7.185 -22.935  0.00  0.00    +0.040 C 
ATOM     12  C   UNL     1      34.790  -7.746 -23.528  0.00  0.00    +0.004 C 
ENDBRANCH   7  11
ENDBRANCH   1   7
TORSDOF 4
ENDMDL
MODEL 8
REMARK VINA RESULT:      -5.2     10.436     11.179
REMARK  Name = 6526
REMARK  4 active torsions:
REMARK  status: ('A' for Active; 'I' for Inactive)
REMARK    1  A    between atoms: O_1  and  C_4
REMARK    2  A    between atoms: O_1  and  C_7
REMARK    3  A    between atoms: C_7  and  C_9
REMARK    4  A    between atoms: C_7  and  C_11
REMARK                            x       y       z     vdW  Elec       q    Type
REMARK                         _______ _______ _______ _____ _____    ______ ____
ROOT
ATOM      1  O   UNL     1      37.964 -25.240 -12.023  0.00  0.00    -0.442 OA
ENDROOT
BRANCH   1   4
ATOM      2  O   UNL     1      38.943 -23.179 -11.717  0.00  0.00    -0.227 OA
ATOM      3  N   UNL     1      36.771 -23.587 -11.083  0.00  0.00    -0.295 N 
ATOM      4  C   UNL     1      37.985 -23.937 -11.620  0.00  0.00    +0.398 C 
ATOM      5  H   UNL     1      36.043 -24.249 -11.037  0.00  0.00    +0.148 HD
ATOM      6  H   UNL     1      36.628 -22.673 -10.745  0.00  0.00    +0.148 HD
ENDBRANCH   1   4
BRANCH   1   7
ATOM      7  C   UNL     1      38.149 -25.455 -13.430  0.00  0.00    +0.138 C 
ATOM      8  C   UNL     1      37.601 -24.216 -14.150  0.00  0.00    +0.044 C 
BRANCH   7   9
ATOM      9  C   UNL     1      39.663 -25.622 -13.674  0.00  0.00    +0.040 C 
ATOM     10  C   UNL     1      40.139 -25.296 -15.083  0.00  0.00    +0.004 C 
ENDBRANCH   7   9
BRANCH   7  11
ATOM     11  C   UNL     1      37.307 -26.687 -13.821  0.00  0.00    +0.040 C 
ATOM     12  C   UNL     1      36.688 -26.615 -15.213  0.00  0.00    +0.004 C 
ENDBRANCH   7  11
ENDBRANCH   1   7
TORSDOF 4
ENDMDL
MODEL 9
REMARK VINA RESULT:      -5.1      2.301      3.013
REMARK  Name = 6526
REMARK  4 active torsions:
REMARK  status: ('A' for Active; 'I' for Inactive)
REMARK    1  A    between atoms: O_1  and  C_4
REMARK    2  A    between atoms: O_1  and  C_7
REMARK    3  A    between atoms: C_7  and  C_9
REMARK    4  A    between atoms: C_7  and  C_11
REMARK                            x       y       z     vdW  Elec       q    Type
REMARK                         _______ _______ _______ _____ _____    ______ ____
ROOT
ATOM      1  O   UNL     1      35.829 -18.248 -20.589  0.00  0.00    -0.442 OA
ENDROOT
BRANCH   1   4
ATOM      2  O   UNL     1      37.795 -19.126 -21.401  0.00  0.00    -0.227 OA
ATOM      3  N   UNL     1      36.542 -20.235 -19.823  0.00  0.00    -0.295 N 
ATOM      4  C   UNL     1      36.810 -19.190 -20.674  0.00  0.00    +0.398 C 
ATOM      5  H   UNL     1      35.730 -20.219 -19.267  0.00  0.00    +0.148 HD
ATOM      6  H   UNL     1      37.163 -20.997 -19.770  0.00  0.00    +0.148 HD
ENDBRANCH   1   4
BRANCH   1   7
ATOM      7  C   UNL     1      34.791 -18.343 -21.576  0.00  0.00    +0.138 C 
ATOM      8  C   UNL     1      33.755 -17.261 -21.244  0.00  0.00    +0.044 C 
BRANCH   7   9
ATOM      9  C   UNL     1      35.442 -18.094 -22.952  0.00  0.00    +0.040 C 
ATOM     10  C   UNL     1      34.992 -19.026 -24.068  0.00  0.00    +0.004 C 
ENDBRANCH   7   9
BRANCH   7  11
ATOM     11  C   UNL     1      34.142 -19.735 -21.428  0.00  0.00    +0.040 C 
ATOM     12  C   UNL     1      32.885 -19.758 -20.565  0.00  0.00    +0.004 C 
ENDBRANCH   7  11
ENDBRANCH   1   7
TORSDOF 4
ENDMDL
