MODEL 1
REMARK VINA RESULT:      -4.9      0.000      0.000
REMARK  Name = 8179
REMARK  8 active torsions:
REMARK  status: ('A' for Active; 'I' for Inactive)
REMARK    1  A    between atoms: O_1  and  C_2
REMARK    2  A    between atoms: O_1  and  C_7
REMARK    3  A    between atoms: C_2  and  C_3
REMARK    4  A    between atoms: C_3  and  O_4
REMARK    5  A    between atoms: O_4  and  C_5
REMARK    6  A    between atoms: C_7  and  C_8
REMARK    7  A    between atoms: C_8  and  O_9
REMARK    8  A    between atoms: O_9  and  C_10
REMARK                            x       y       z     vdW  Elec       q    Type
REMARK                         _______ _______ _______ _____ _____    ______ ____
ROOT
ATOM      1  O   UNL     1      35.303 -15.963 -23.083  0.00  0.00    -0.348 OA
ENDROOT
BRANCH   1   2
ATOM      2  C   UNL     1      34.825 -16.610 -21.909  0.00  0.00    +0.174 C 
BRANCH   2   3
ATOM      3  C   UNL     1      35.637 -17.869 -21.672  0.00  0.00    +0.174 C 
BRANCH   3   4
ATOM      4  O   UNL     1      34.938 -18.707 -20.759  0.00  0.00    -0.351 OA
BRANCH   4   5
ATOM      5  C   UNL     1      33.903 -19.433 -21.409  0.00  0.00    +0.142 C 
ATOM      6  C   UNL     1      33.101 -20.185 -20.368  0.00  0.00    +0.035 C 
ENDBRANCH   4   5
ENDBRANCH   3   4
ENDBRANCH   2   3
ENDBRANCH   1   2
BRANCH   1   7
ATOM      7  C   UNL     1      34.233 -15.522 -23.906  0.00  0.00    +0.174 C 
BRANCH   7   8
ATOM      8  C   UNL     1      34.090 -16.469 -25.082  0.00  0.00    +0.174 C 
BRANCH   8   9
ATOM      9  O   UNL     1      33.959 -15.709 -26.278  0.00  0.00    -0.351 OA
BRANCH   9  10
ATOM     10  C   UNL     1      32.913 -14.754 -26.176  0.00  0.00    +0.142 C 
ATOM     11  C   UNL     1      33.255 -13.555 -27.035  0.00  0.00    +0.035 C 
ENDBRANCH   9  10
ENDBRANCH   8   9
ENDBRANCH   7   8
ENDBRANCH   1   7
TORSDOF 8
ENDMDL
MODEL 2
REMARK VINA RESULT:      -4.9      0.831      6.035
REMARK  Name = 8179
REMARK  8 active torsions:
REMARK  status: ('A' for Active; 'I' for Inactive)
REMARK    1  A    between atoms: O_1  and  C_2
REMARK    2  A    between atoms: O_1  and  C_7
REMARK    3  A    between atoms: C_2  and  C_3
REMARK    4  A    between atoms: C_3  and  O_4
REMARK    5  A    between atoms: O_4  and  C_5
REMARK    6  A    between atoms: C_7  and  C_8
REMARK    7  A    between atoms: C_8  and  O_9
REMARK    8  A    between atoms: O_9  and  C_10
REMARK                            x       y       z     vdW  Elec       q    Type
REMARK                         _______ _______ _______ _____ _____    ______ ____
ROOT
ATOM      1  O   UNL     1      35.179 -15.630 -23.323  0.00  0.00    -0.348 OA
ENDROOT
BRANCH   1   2
ATOM      2  C   UNL     1      34.032 -15.484 -24.153  0.00  0.00    +0.174 C 
BRANCH   2   3
ATOM      3  C   UNL     1      34.216 -16.325 -25.402  0.00  0.00    +0.174 C 
BRANCH   3   4
ATOM      4  O   UNL     1      33.449 -15.759 -26.459  0.00  0.00    -0.351 OA
BRANCH   4   5
ATOM      5  C   UNL     1      32.912 -14.496 -26.093  0.00  0.00    +0.142 C 
ATOM      6  C   UNL     1      33.274 -13.480 -27.155  0.00  0.00    +0.035 C 
ENDBRANCH   4   5
ENDBRANCH   3   4
ENDBRANCH   2   3
ENDBRANCH   1   2
BRANCH   1   7
ATOM      7  C   UNL     1      35.231 -16.920 -22.731  0.00  0.00    +0.174 C 
BRANCH   7   8
ATOM      8  C   UNL     1      34.961 -16.793 -21.244  0.00  0.00    +0.174 C 
BRANCH   8   9
ATOM      9  O   UNL     1      35.486 -17.934 -20.577  0.00  0.00    -0.351 OA
BRANCH   9  10
ATOM     10  C   UNL     1      35.384 -19.100 -21.381  0.00  0.00    +0.142 C 
ATOM     11  C   UNL     1      34.556 -20.135 -20.648  0.00  0.00    +0.035 C 
ENDBRANCH   9  10
ENDBRANCH   8   9
ENDBRANCH   7   8
ENDBRANCH   1   7
TORSDOF 8
ENDMDL
MODEL 3
REMARK VINA RESULT:      -4.9      5.490      9.481
REMARK  Name = 8179
REMARK  8 active torsions:
REMARK  status: ('A' for Active; 'I' for Inactive)
REMARK    1  A    between atoms: O_1  and  C_2
REMARK    2  A    between atoms: O_1  and  C_7
REMARK    3  A    between atoms: C_2  and  C_3
REMARK    4  A    between atoms: C_3  and  O_4
REMARK    5  A    between atoms: O_4  and  C_5
REMARK    6  A    between atoms: C_7  and  C_8
REMARK    7  A    between atoms: C_8  and  O_9
REMARK    8  A    between atoms: O_9  and  C_10
REMARK                            x       y       z     vdW  Elec       q    Type
REMARK                         _______ _______ _______ _____ _____    ______ ____
ROOT
ATOM      1  O   UNL     1      32.272 -22.611 -17.881  0.00  0.00    -0.348 OA
ENDROOT
BRANCH   1   2
ATOM      2  C   UNL     1      33.575 -22.758 -18.434  0.00  0.00    +0.174 C 
BRANCH   2   3
ATOM      3  C   UNL     1      33.827 -21.627 -19.413  0.00  0.00    +0.174 C 
BRANCH   3   4
ATOM      4  O   UNL     1      32.621 -20.893 -19.594  0.00  0.00    -0.351 OA
BRANCH   4   5
ATOM      5  C   UNL     1      32.758 -19.911 -20.611  0.00  0.00    +0.142 C 
ATOM      6  C   UNL     1      34.222 -19.776 -20.972  0.00  0.00    +0.035 C 
ENDBRANCH   4   5
ENDBRANCH   3   4
ENDBRANCH   2   3
ENDBRANCH   1   2
BRANCH   1   7
ATOM      7  C   UNL     1      32.179 -23.222 -16.601  0.00  0.00    +0.174 C 
BRANCH   7   8
ATOM      8  C   UNL     1      30.753 -23.105 -16.100  0.00  0.00    +0.174 C 
BRANCH   8   9
ATOM      9  O   UNL     1      29.968 -22.441 -17.083  0.00  0.00    -0.351 OA
BRANCH   9  10
ATOM     10  C   UNL     1      28.578 -22.603 -16.836  0.00  0.00    +0.142 C 
ATOM     11  C   UNL     1      28.391 -23.595 -15.707  0.00  0.00    +0.035 C 
ENDBRANCH   9  10
ENDBRANCH   8   9
ENDBRANCH   7   8
ENDBRANCH   1   7
TORSDOF 8
ENDMDL
MODEL 4
REMARK VINA RESULT:      -4.8      1.664      5.529
REMARK  Name = 8179
REMARK  8 active torsions:
REMARK  status: ('A' for Active; 'I' for Inactive)
REMARK    1  A    between atoms: O_1  and  C_2
REMARK    2  A    between atoms: O_1  and  C_7
REMARK    3  A    between atoms: C_2  and  C_3
REMARK    4  A    between atoms: C_3  and  O_4
REMARK    5  A    between atoms: O_4  and  C_5
REMARK    6  A    between atoms: C_7  and  C_8
REMARK    7  A    between atoms: C_8  and  O_9
REMARK    8  A    between atoms: O_9  and  C_10
REMARK                            x       y       z     vdW  Elec       q    Type
REMARK                         _______ _______ _______ _____ _____    ______ ____
ROOT
ATOM      1  O   UNL     1      35.280 -15.784 -23.479  0.00  0.00    -0.348 OA
ENDROOT
BRANCH   1   2
ATOM      2  C   UNL     1      34.033 -15.701 -24.158  0.00  0.00    +0.174 C 
BRANCH   2   3
ATOM      3  C   UNL     1      34.130 -16.464 -25.466  0.00  0.00    +0.174 C 
BRANCH   3   4
ATOM      4  O   UNL     1      33.425 -15.748 -26.474  0.00  0.00    -0.351 OA
BRANCH   4   5
ATOM      5  C   UNL     1      32.968 -14.490 -25.995  0.00  0.00    +0.142 C 
ATOM      6  C   UNL     1      33.245 -13.434 -27.042  0.00  0.00    +0.035 C 
ENDBRANCH   4   5
ENDBRANCH   3   4
ENDBRANCH   2   3
ENDBRANCH   1   2
BRANCH   1   7
ATOM      7  C   UNL     1      35.387 -16.988 -22.733  0.00  0.00    +0.174 C 
BRANCH   7   8
ATOM      8  C   UNL     1      34.434 -16.927 -21.555  0.00  0.00    +0.174 C 
BRANCH   8   9
ATOM      9  O   UNL     1      35.001 -16.107 -20.541  0.00  0.00    -0.351 OA
BRANCH   9  10
ATOM     10  C   UNL     1      34.316 -14.867 -20.430  0.00  0.00    +0.142 C 
ATOM     11  C   UNL     1      32.832 -15.108 -20.604  0.00  0.00    +0.035 C 
ENDBRANCH   9  10
ENDBRANCH   8   9
ENDBRANCH   7   8
ENDBRANCH   1   7
TORSDOF 8
ENDMDL
MODEL 5
REMARK VINA RESULT:      -4.8      1.629      2.537
REMARK  Name = 8179
REMARK  8 active torsions:
REMARK  status: ('A' for Active; 'I' for Inactive)
REMARK    1  A    between atoms: O_1  and  C_2
REMARK    2  A    between atoms: O_1  and  C_7
REMARK    3  A    between atoms: C_2  and  C_3
REMARK    4  A    between atoms: C_3  and  O_4
REMARK    5  A    between atoms: O_4  and  C_5
REMARK    6  A    between atoms: C_7  and  C_8
REMARK    7  A    between atoms: C_8  and  O_9
REMARK    8  A    between atoms: O_9  and  C_10
REMARK                            x       y       z     vdW  Elec       q    Type
REMARK                         _______ _______ _______ _____ _____    ______ ____
ROOT
ATOM      1  O   UNL     1      35.249 -19.023 -23.650  0.00  0.00    -0.348 OA
ENDROOT
BRANCH   1   2
ATOM      2  C   UNL     1      34.474 -18.982 -22.457  0.00  0.00    +0.174 C 
BRANCH   2   3
ATOM      3  C   UNL     1      35.408 -18.956 -21.262  0.00  0.00    +0.174 C 
BRANCH   3   4
ATOM      4  O   UNL     1      35.492 -17.624 -20.768  0.00  0.00    -0.351 OA
BRANCH   4   5
ATOM      5  C   UNL     1      34.351 -16.861 -21.134  0.00  0.00    +0.142 C 
ATOM      6  C   UNL     1      34.534 -15.438 -20.651  0.00  0.00    +0.035 C 
ENDBRANCH   4   5
ENDBRANCH   3   4
ENDBRANCH   2   3
ENDBRANCH   1   2
BRANCH   1   7
ATOM      7  C   UNL     1      34.539 -18.472 -24.750  0.00  0.00    +0.174 C 
BRANCH   7   8
ATOM      8  C   UNL     1      34.729 -16.968 -24.759  0.00  0.00    +0.174 C 
BRANCH   8   9
ATOM      9  O   UNL     1      34.252 -16.446 -25.993  0.00  0.00    -0.351 OA
BRANCH   9  10
ATOM     10  C   UNL     1      33.403 -15.325 -25.792  0.00  0.00    +0.142 C 
ATOM     11  C   UNL     1      33.541 -14.854 -24.359  0.00  0.00    +0.035 C 
ENDBRANCH   9  10
ENDBRANCH   8   9
ENDBRANCH   7   8
ENDBRANCH   1   7
TORSDOF 8
ENDMDL
MODEL 6
REMARK VINA RESULT:      -4.8      1.903      5.549
REMARK  Name = 8179
REMARK  8 active torsions:
REMARK  status: ('A' for Active; 'I' for Inactive)
REMARK    1  A    between atoms: O_1  and  C_2
REMARK    2  A    between atoms: O_1  and  C_7
REMARK    3  A    between atoms: C_2  and  C_3
REMARK    4  A    between atoms: C_3  and  O_4
REMARK    5  A    between atoms: O_4  and  C_5
REMARK    6  A    between atoms: C_7  and  C_8
REMARK    7  A    between atoms: C_8  and  O_9
REMARK    8  A    between atoms: O_9  and  C_10
REMARK                            x       y       z     vdW  Elec       q    Type
REMARK                         _______ _______ _______ _____ _____    ______ ____
ROOT
ATOM      1  O   UNL     1      35.422 -17.584 -20.735  0.00  0.00    -0.348 OA
ENDROOT
BRANCH   1   2
ATOM      2  C   UNL     1      34.530 -16.817 -21.535  0.00  0.00    +0.174 C 
BRANCH   2   3
ATOM      3  C   UNL     1      35.188 -16.526 -22.871  0.00  0.00    +0.174 C 
BRANCH   3   4
ATOM      4  O   UNL     1      34.183 -16.187 -23.819  0.00  0.00    -0.351 OA
BRANCH   4   5
ATOM      5  C   UNL     1      34.442 -16.778 -25.085  0.00  0.00    +0.142 C 
ATOM      6  C   UNL     1      34.477 -18.283 -24.928  0.00  0.00    +0.035 C 
ENDBRANCH   4   5
ENDBRANCH   3   4
ENDBRANCH   2   3
ENDBRANCH   1   2
BRANCH   1   7
ATOM      7  C   UNL     1      36.134 -18.534 -21.516  0.00  0.00    +0.174 C 
BRANCH   7   8
ATOM      8  C   UNL     1      35.479 -19.893 -21.360  0.00  0.00    +0.174 C 
BRANCH   8   9
ATOM      9  O   UNL     1      35.005 -20.030 -20.026  0.00  0.00    -0.351 OA
BRANCH   9  10
ATOM     10  C   UNL     1      33.800 -20.781 -19.976  0.00  0.00    +0.142 C 
ATOM     11  C   UNL     1      32.680 -19.956 -20.572  0.00  0.00    +0.035 C 
ENDBRANCH   9  10
ENDBRANCH   8   9
ENDBRANCH   7   8
ENDBRANCH   1   7
TORSDOF 8
ENDMDL
MODEL 7
REMARK VINA RESULT:      -4.7      3.626      7.612
REMARK  Name = 8179
REMARK  8 active torsions:
REMARK  status: ('A' for Active; 'I' for Inactive)
REMARK    1  A    between atoms: O_1  and  C_2
REMARK    2  A    between atoms: O_1  and  C_7
REMARK    3  A    between atoms: C_2  and  C_3
REMARK    4  A    between atoms: C_3  and  O_4
REMARK    5  A    between atoms: O_4  and  C_5
REMARK    6  A    between atoms: C_7  and  C_8
REMARK    7  A    between atoms: C_8  and  O_9
REMARK    8  A    between atoms: O_9  and  C_10
REMARK                            x       y       z     vdW  Elec       q    Type
REMARK                         _______ _______ _______ _____ _____    ______ ____
ROOT
ATOM      1  O   UNL     1      34.621 -19.921 -20.195  0.00  0.00    -0.348 OA
ENDROOT
BRANCH   1   2
ATOM      2  C   UNL     1      34.886 -19.576 -21.550  0.00  0.00    +0.174 C 
BRANCH   2   3
ATOM      3  C   UNL     1      35.821 -18.382 -21.582  0.00  0.00    +0.174 C 
BRANCH   3   4
ATOM      4  O   UNL     1      35.354 -17.402 -20.662  0.00  0.00    -0.351 OA
BRANCH   4   5
ATOM      5  C   UNL     1      34.382 -16.553 -21.256  0.00  0.00    +0.142 C 
ATOM      6  C   UNL     1      34.497 -15.172 -20.647  0.00  0.00    +0.035 C 
ENDBRANCH   4   5
ENDBRANCH   3   4
ENDBRANCH   2   3
ENDBRANCH   1   2
BRANCH   1   7
ATOM      7  C   UNL     1      33.434 -20.692 -20.078  0.00  0.00    +0.174 C 
BRANCH   7   8
ATOM      8  C   UNL     1      33.751 -21.981 -19.344  0.00  0.00    +0.174 C 
BRANCH   8   9
ATOM      9  O   UNL     1      32.643 -22.336 -18.527  0.00  0.00    -0.351 OA
BRANCH   9  10
ATOM     10  C   UNL     1      33.040 -23.158 -17.439  0.00  0.00    +0.142 C 
ATOM     11  C   UNL     1      31.898 -23.250 -16.449  0.00  0.00    +0.035 C 
ENDBRANCH   9  10
ENDBRANCH   8   9
ENDBRANCH   7   8
ENDBRANCH   1   7
TORSDOF 8
ENDMDL
MODEL 8
REMARK VINA RESULT:      -4.7      2.582      5.797
REMARK  Name = 8179
REMARK  8 active torsions:
REMARK  status: ('A' for Active; 'I' for Inactive)
REMARK    1  A    between atoms: O_1  and  C_2
REMARK    2  A    between atoms: O_1  and  C_7
REMARK    3  A    between atoms: C_2  and  C_3
REMARK    4  A    between atoms: C_3  and  O_4
REMARK    5  A    between atoms: O_4  and  C_5
REMARK    6  A    between atoms: C_7  and  C_8
REMARK    7  A    between atoms: C_8  and  O_9
REMARK    8  A    between atoms: O_9  and  C_10
REMARK                            x       y       z     vdW  Elec       q    Type
REMARK                         _______ _______ _______ _____ _____    ______ ____
ROOT
ATOM      1  O   UNL     1      35.049 -16.455 -20.448  0.00  0.00    -0.348 OA
ENDROOT
BRANCH   1   2
ATOM      2  C   UNL     1      34.445 -15.179 -20.619  0.00  0.00    +0.174 C 
BRANCH   2   3
ATOM      3  C   UNL     1      32.939 -15.324 -20.499  0.00  0.00    +0.174 C 
BRANCH   3   4
ATOM      4  O   UNL     1      32.346 -15.077 -21.768  0.00  0.00    -0.351 OA
BRANCH   4   5
ATOM      5  C   UNL     1      32.368 -13.693 -22.092  0.00  0.00    +0.142 C 
ATOM      6  C   UNL     1      32.776 -13.532 -23.540  0.00  0.00    +0.035 C 
ENDBRANCH   4   5
ENDBRANCH   3   4
ENDBRANCH   2   3
ENDBRANCH   1   2
BRANCH   1   7
ATOM      7  C   UNL     1      35.174 -17.141 -21.686  0.00  0.00    +0.174 C 
BRANCH   7   8
ATOM      8  C   UNL     1      34.531 -18.509 -21.561  0.00  0.00    +0.174 C 
BRANCH   8   9
ATOM      9  O   UNL     1      35.200 -19.246 -20.545  0.00  0.00    -0.351 OA
BRANCH   9  10
ATOM     10  C   UNL     1      34.556 -20.487 -20.292  0.00  0.00    +0.142 C 
ATOM     11  C   UNL     1      33.057 -20.285 -20.352  0.00  0.00    +0.035 C 
ENDBRANCH   9  10
ENDBRANCH   8   9
ENDBRANCH   7   8
ENDBRANCH   1   7
TORSDOF 8
ENDMDL
MODEL 9
REMARK VINA RESULT:      -4.7      7.785     11.208
REMARK  Name = 8179
REMARK  8 active torsions:
REMARK  status: ('A' for Active; 'I' for Inactive)
REMARK    1  A    between atoms: O_1  and  C_2
REMARK    2  A    between atoms: O_1  and  C_7
REMARK    3  A    between atoms: C_2  and  C_3
REMARK    4  A    between atoms: C_3  and  O_4
REMARK    5  A    between atoms: O_4  and  C_5
REMARK    6  A    between atoms: C_7  and  C_8
REMARK    7  A    between atoms: C_8  and  O_9
REMARK    8  A    between atoms: O_9  and  C_10
REMARK                            x       y       z     vdW  Elec       q    Type
REMARK                         _______ _______ _______ _____ _____    ______ ____
ROOT
ATOM      1  O   UNL     1      35.545 -24.910 -15.803  0.00  0.00    -0.348 OA
ENDROOT
BRANCH   1   2
ATOM      2  C   UNL     1      36.476 -25.377 -14.834  0.00  0.00    +0.174 C 
BRANCH   2   3
ATOM      3  C   UNL     1      36.958 -26.758 -15.236  0.00  0.00    +0.174 C 
BRANCH   3   4
ATOM      4  O   UNL     1      38.230 -26.995 -14.643  0.00  0.00    -0.351 OA
BRANCH   4   5
ATOM      5  C   UNL     1      38.837 -25.784 -14.213  0.00  0.00    +0.142 C 
ATOM      6  C   UNL     1      40.301 -25.804 -14.597  0.00  0.00    +0.035 C 
ENDBRANCH   4   5
ENDBRANCH   3   4
ENDBRANCH   2   3
ENDBRANCH   1   2
BRANCH   1   7
ATOM      7  C   UNL     1      34.669 -23.935 -15.256  0.00  0.00    +0.174 C 
BRANCH   7   8
ATOM      8  C   UNL     1      33.797 -23.376 -16.364  0.00  0.00    +0.174 C 
BRANCH   8   9
ATOM      9  O   UNL     1      34.619 -23.026 -17.471  0.00  0.00    -0.351 OA
BRANCH   9  10
ATOM     10  C   UNL     1      33.845 -22.568 -18.570  0.00  0.00    +0.142 C 
ATOM     11  C   UNL     1      34.709 -21.686 -19.447  0.00  0.00    +0.035 C 
ENDBRANCH   9  10
ENDBRANCH   8   9
ENDBRANCH   7   8
ENDBRANCH   1   7
TORSDOF 8
ENDMDL
