MODEL 1
REMARK VINA RESULT:      -7.5      0.000      0.000
REMARK  Name = 24066
REMARK  3 active torsions:
REMARK  status: ('A' for Active; 'I' for Inactive)
REMARK    1  A    between atoms: N_2  and  C_12
REMARK    2  A    between atoms: C_15  and  C_16
REMARK    3  A    between atoms: C_16  and  O_17
REMARK                            x       y       z     vdW  Elec       q    Type
REMARK                         _______ _______ _______ _____ _____    ______ ____
ROOT
ATOM      1  O   UNL     1      36.819 -20.439 -20.248  0.00  0.00    -0.193 OA
ATOM      2  N   UNL     1      34.840 -19.529 -21.008  0.00  0.00    -0.180 N 
ATOM      3  N   UNL     1      34.908 -21.415 -19.509  0.00  0.00    -0.306 NA
ATOM      4  N   UNL     1      32.946 -22.411 -18.754  0.00  0.00    -0.332 N 
ATOM      5  C   UNL     1      33.455 -19.587 -20.989  0.00  0.00    +0.083 C 
ATOM      6  C   UNL     1      35.587 -20.464 -20.251  0.00  0.00    +0.275 C 
ATOM      7  C   UNL     1      32.784 -20.495 -20.283  0.00  0.00    +0.065 C 
ATOM      8  C   UNL     1      33.601 -21.457 -19.500  0.00  0.00    +0.193 C 
ATOM      9  H   UNL     1      33.461 -23.062 -18.226  0.00  0.00    +0.145 HD
ATOM     10  H   UNL     1      31.962 -22.441 -18.750  0.00  0.00    +0.145 HD
ENDROOT
BRANCH   2  12
ATOM     11  O   UNL     1      35.320 -17.242 -21.158  0.00  0.00    -0.337 OA
ATOM     12  C   UNL     1      35.473 -18.516 -21.801  0.00  0.00    +0.206 C 
ATOM     13  C   UNL     1      34.867 -18.387 -23.186  0.00  0.00    +0.055 C 
ATOM     14  C   UNL     1      35.115 -16.933 -23.499  0.00  0.00    +0.037 C 
ATOM     15  C   UNL     1      34.944 -16.265 -22.144  0.00  0.00    +0.146 C 
BRANCH  15  16
ATOM     16  C   UNL     1      33.510 -15.832 -21.869  0.00  0.00    +0.167 C 
BRANCH  16  17
ATOM     17  O   UNL     1      33.102 -14.926 -22.882  0.00  0.00    -0.379 OA
ATOM     18  H   UNL     1      32.189 -14.645 -22.716  0.00  0.00    +0.211 HD
ENDBRANCH  16  17
ENDBRANCH  15  16
ENDBRANCH   2  12
TORSDOF 3
ENDMDL
MODEL 2
REMARK VINA RESULT:      -7.3      3.243      5.728
REMARK  Name = 24066
REMARK  3 active torsions:
REMARK  status: ('A' for Active; 'I' for Inactive)
REMARK    1  A    between atoms: N_2  and  C_12
REMARK    2  A    between atoms: C_15  and  C_16
REMARK    3  A    between atoms: C_16  and  O_17
REMARK                            x       y       z     vdW  Elec       q    Type
REMARK                         _______ _______ _______ _____ _____    ______ ____
ROOT
ATOM      1  O   UNL     1      34.597 -17.878 -25.580  0.00  0.00    -0.193 OA
ATOM      2  N   UNL     1      34.775 -17.082 -23.423  0.00  0.00    -0.180 N 
ATOM      3  N   UNL     1      33.878 -15.754 -25.224  0.00  0.00    -0.306 NA
ATOM      4  N   UNL     1      33.144 -13.579 -24.853  0.00  0.00    -0.332 N 
ATOM      5  C   UNL     1      34.567 -16.018 -22.559  0.00  0.00    +0.083 C 
ATOM      6  C   UNL     1      34.423 -16.950 -24.788  0.00  0.00    +0.275 C 
ATOM      7  C   UNL     1      34.046 -14.859 -22.960  0.00  0.00    +0.065 C 
ATOM      8  C   UNL     1      33.688 -14.759 -24.398  0.00  0.00    +0.193 C 
ATOM      9  H   UNL     1      32.898 -13.483 -25.801  0.00  0.00    +0.145 HD
ATOM     10  H   UNL     1      33.003 -12.830 -24.229  0.00  0.00    +0.145 HD
ENDROOT
BRANCH   2  12
ATOM     11  O   UNL     1      34.331 -19.303 -22.829  0.00  0.00    -0.337 OA
ATOM     12  C   UNL     1      35.343 -18.288 -22.898  0.00  0.00    +0.206 C 
ATOM     13  C   UNL     1      35.895 -18.119 -21.495  0.00  0.00    +0.055 C 
ATOM     14  C   UNL     1      35.730 -19.506 -20.927  0.00  0.00    +0.037 C 
ATOM     15  C   UNL     1      34.430 -19.975 -21.562  0.00  0.00    +0.146 C 
BRANCH  15  16
ATOM     16  C   UNL     1      33.201 -19.626 -20.734  0.00  0.00    +0.167 C 
BRANCH  16  17
ATOM     17  O   UNL     1      32.656 -20.820 -20.195  0.00  0.00    -0.379 OA
ATOM     18  H   UNL     1      33.310 -21.243 -19.619  0.00  0.00    +0.211 HD
ENDBRANCH  16  17
ENDBRANCH  15  16
ENDBRANCH   2  12
TORSDOF 3
ENDMDL
MODEL 3
REMARK VINA RESULT:      -7.3      1.491      2.148
REMARK  Name = 24066
REMARK  3 active torsions:
REMARK  status: ('A' for Active; 'I' for Inactive)
REMARK    1  A    between atoms: N_2  and  C_12
REMARK    2  A    between atoms: C_15  and  C_16
REMARK    3  A    between atoms: C_16  and  O_17
REMARK                            x       y       z     vdW  Elec       q    Type
REMARK                         _______ _______ _______ _____ _____    ______ ____
ROOT
ATOM      1  O   UNL     1      32.699 -19.436 -20.874  0.00  0.00    -0.193 OA
ATOM      2  N   UNL     1      34.718 -20.464 -20.443  0.00  0.00    -0.180 N 
ATOM      3  N   UNL     1      32.663 -21.148 -19.385  0.00  0.00    -0.306 NA
ATOM      4  N   UNL     1      32.633 -22.904 -17.860  0.00  0.00    -0.332 N 
ATOM      5  C   UNL     1      35.388 -21.452 -19.739  0.00  0.00    +0.083 C 
ATOM      6  C   UNL     1      33.322 -20.306 -20.264  0.00  0.00    +0.275 C 
ATOM      7  C   UNL     1      34.772 -22.271 -18.888  0.00  0.00    +0.065 C 
ATOM      8  C   UNL     1      33.308 -22.076 -18.728  0.00  0.00    +0.193 C 
ATOM      9  H   UNL     1      31.662 -22.798 -17.733  0.00  0.00    +0.145 HD
ATOM     10  H   UNL     1      33.121 -23.601 -17.365  0.00  0.00    +0.145 HD
ENDROOT
BRANCH   2  12
ATOM     11  O   UNL     1      35.775 -18.389 -20.684  0.00  0.00    -0.337 OA
ATOM     12  C   UNL     1      35.468 -19.630 -21.335  0.00  0.00    +0.206 C 
ATOM     13  C   UNL     1      34.708 -19.288 -22.602  0.00  0.00    +0.055 C 
ATOM     14  C   UNL     1      35.290 -17.944 -22.961  0.00  0.00    +0.037 C 
ATOM     15  C   UNL     1      35.528 -17.308 -21.599  0.00  0.00    +0.146 C 
BRANCH  15  16
ATOM     16  C   UNL     1      34.330 -16.514 -21.095  0.00  0.00    +0.167 C 
BRANCH  16  17
ATOM     17  O   UNL     1      34.793 -15.477 -20.243  0.00  0.00    -0.379 OA
ATOM     18  H   UNL     1      35.354 -15.856 -19.548  0.00  0.00    +0.211 HD
ENDBRANCH  16  17
ENDBRANCH  15  16
ENDBRANCH   2  12
TORSDOF 3
ENDMDL
MODEL 4
REMARK VINA RESULT:      -7.1      6.381      8.606
REMARK  Name = 24066
REMARK  3 active torsions:
REMARK  status: ('A' for Active; 'I' for Inactive)
REMARK    1  A    between atoms: N_2  and  C_12
REMARK    2  A    between atoms: C_15  and  C_16
REMARK    3  A    between atoms: C_16  and  O_17
REMARK                            x       y       z     vdW  Elec       q    Type
REMARK                         _______ _______ _______ _____ _____    ______ ____
ROOT
ATOM      1  O   UNL     1      34.144 -23.182 -18.247  0.00  0.00    -0.193 OA
ATOM      2  N   UNL     1      33.746 -23.521 -16.001  0.00  0.00    -0.180 N 
ATOM      3  N   UNL     1      32.006 -22.891 -17.545  0.00  0.00    -0.306 NA
ATOM      4  N   UNL     1      29.816 -22.593 -16.819  0.00  0.00    -0.332 N 
ATOM      5  C   UNL     1      32.811 -23.525 -14.977  0.00  0.00    +0.083 C 
ATOM      6  C   UNL     1      33.336 -23.196 -17.317  0.00  0.00    +0.275 C 
ATOM      7  C   UNL     1      31.527 -23.233 -15.177  0.00  0.00    +0.065 C 
ATOM      8  C   UNL     1      31.135 -22.899 -16.571  0.00  0.00    +0.193 C 
ATOM      9  H   UNL     1      29.527 -22.367 -17.733  0.00  0.00    +0.145 HD
ATOM     10  H   UNL     1      29.162 -22.599 -16.083  0.00  0.00    +0.145 HD
ENDROOT
BRANCH   2  12
ATOM     11  O   UNL     1      35.134 -24.785 -14.601  0.00  0.00    -0.337 OA
ATOM     12  C   UNL     1      35.105 -23.848 -15.688  0.00  0.00    +0.206 C 
ATOM     13  C   UNL     1      35.917 -22.642 -15.252  0.00  0.00    +0.055 C 
ATOM     14  C   UNL     1      36.935 -23.268 -14.333  0.00  0.00    +0.037 C 
ATOM     15  C   UNL     1      36.142 -24.378 -13.661  0.00  0.00    +0.146 C 
BRANCH  15  16
ATOM     16  C   UNL     1      35.452 -23.925 -12.380  0.00  0.00    +0.167 C 
BRANCH  16  17
ATOM     17  O   UNL     1      34.599 -24.965 -11.926  0.00  0.00    -0.379 OA
ATOM     18  H   UNL     1      33.674 -24.704 -12.056  0.00  0.00    +0.211 HD
ENDBRANCH  16  17
ENDBRANCH  15  16
ENDBRANCH   2  12
TORSDOF 3
ENDMDL
MODEL 5
REMARK VINA RESULT:      -6.9      6.582      9.594
REMARK  Name = 24066
REMARK  3 active torsions:
REMARK  status: ('A' for Active; 'I' for Inactive)
REMARK    1  A    between atoms: N_2  and  C_12
REMARK    2  A    between atoms: C_15  and  C_16
REMARK    3  A    between atoms: C_16  and  O_17
REMARK                            x       y       z     vdW  Elec       q    Type
REMARK                         _______ _______ _______ _____ _____    ______ ____
ROOT
ATOM      1  O   UNL     1      33.952 -23.948 -15.994  0.00  0.00    -0.193 OA
ATOM      2  N   UNL     1      36.122 -23.700 -15.253  0.00  0.00    -0.180 N 
ATOM      3  N   UNL     1      35.282 -22.565 -17.206  0.00  0.00    -0.306 NA
ATOM      4  N   UNL     1      36.651 -21.149 -18.445  0.00  0.00    -0.332 N 
ATOM      5  C   UNL     1      37.355 -23.099 -15.456  0.00  0.00    +0.083 C 
ATOM      6  C   UNL     1      35.059 -23.428 -16.148  0.00  0.00    +0.275 C 
ATOM      7  C   UNL     1      37.590 -22.267 -16.469  0.00  0.00    +0.065 C 
ATOM      8  C   UNL     1      36.450 -22.005 -17.385  0.00  0.00    +0.193 C 
ATOM      9  H   UNL     1      35.914 -20.957 -19.069  0.00  0.00    +0.145 HD
ATOM     10  H   UNL     1      37.531 -20.729 -18.578  0.00  0.00    +0.145 HD
ENDROOT
BRANCH   2  12
ATOM     11  O   UNL     1      36.209 -23.861 -12.918  0.00  0.00    -0.337 OA
ATOM     12  C   UNL     1      35.967 -24.583 -14.135  0.00  0.00    +0.206 C 
ATOM     13  C   UNL     1      36.942 -25.745 -14.160  0.00  0.00    +0.055 C 
ATOM     14  C   UNL     1      37.111 -26.041 -12.692  0.00  0.00    +0.037 C 
ATOM     15  C   UNL     1      37.044 -24.658 -12.062  0.00  0.00    +0.146 C 
BRANCH  15  16
ATOM     16  C   UNL     1      38.406 -23.985 -11.954  0.00  0.00    +0.167 C 
BRANCH  16  17
ATOM     17  O   UNL     1      38.219 -22.624 -11.601  0.00  0.00    -0.379 OA
ATOM     18  H   UNL     1      38.419 -22.061 -12.365  0.00  0.00    +0.211 HD
ENDBRANCH  16  17
ENDBRANCH  15  16
ENDBRANCH   2  12
TORSDOF 3
ENDMDL
MODEL 6
REMARK VINA RESULT:      -6.9      5.620      8.693
REMARK  Name = 24066
REMARK  3 active torsions:
REMARK  status: ('A' for Active; 'I' for Inactive)
REMARK    1  A    between atoms: N_2  and  C_12
REMARK    2  A    between atoms: C_15  and  C_16
REMARK    3  A    between atoms: C_16  and  O_17
REMARK                            x       y       z     vdW  Elec       q    Type
REMARK                         _______ _______ _______ _____ _____    ______ ____
ROOT
ATOM      1  O   UNL     1      37.281 -21.929 -17.149  0.00  0.00    -0.193 OA
ATOM      2  N   UNL     1      35.672 -23.065 -15.949  0.00  0.00    -0.180 N 
ATOM      3  N   UNL     1      35.266 -22.193 -18.159  0.00  0.00    -0.306 NA
ATOM      4  N   UNL     1      33.198 -22.466 -19.189  0.00  0.00    -0.332 N 
ATOM      5  C   UNL     1      34.373 -23.547 -15.921  0.00  0.00    +0.083 C 
ATOM      6  C   UNL     1      36.132 -22.370 -17.094  0.00  0.00    +0.275 C 
ATOM      7  C   UNL     1      33.524 -23.385 -16.934  0.00  0.00    +0.065 C 
ATOM      8  C   UNL     1      34.043 -22.653 -18.119  0.00  0.00    +0.193 C 
ATOM      9  H   UNL     1      33.514 -21.984 -19.987  0.00  0.00    +0.145 HD
ATOM     10  H   UNL     1      32.278 -22.813 -19.156  0.00  0.00    +0.145 HD
ENDROOT
BRANCH   2  12
ATOM     11  O   UNL     1      37.482 -24.296 -15.120  0.00  0.00    -0.337 OA
ATOM     12  C   UNL     1      36.510 -23.288 -14.809  0.00  0.00    +0.206 C 
ATOM     13  C   UNL     1      35.740 -23.775 -13.596  0.00  0.00    +0.055 C 
ATOM     14  C   UNL     1      36.780 -24.595 -12.875  0.00  0.00    +0.037 C 
ATOM     15  C   UNL     1      37.567 -25.217 -14.018  0.00  0.00    +0.146 C 
BRANCH  15  16
ATOM     16  C   UNL     1      37.004 -26.559 -14.468  0.00  0.00    +0.167 C 
BRANCH  16  17
ATOM     17  O   UNL     1      37.237 -26.712 -15.859  0.00  0.00    -0.379 OA
ATOM     18  H   UNL     1      36.480 -26.360 -16.354  0.00  0.00    +0.211 HD
ENDBRANCH  16  17
ENDBRANCH  15  16
ENDBRANCH   2  12
TORSDOF 3
ENDMDL
MODEL 7
REMARK VINA RESULT:      -6.8      7.127      9.622
REMARK  Name = 24066
REMARK  3 active torsions:
REMARK  status: ('A' for Active; 'I' for Inactive)
REMARK    1  A    between atoms: N_2  and  C_12
REMARK    2  A    between atoms: C_15  and  C_16
REMARK    3  A    between atoms: C_16  and  O_17
REMARK                            x       y       z     vdW  Elec       q    Type
REMARK                         _______ _______ _______ _____ _____    ______ ____
ROOT
ATOM      1  O   UNL     1      34.044 -10.925 -24.604  0.00  0.00    -0.193 OA
ATOM      2  N   UNL     1      32.516 -10.258 -23.010  0.00  0.00    -0.180 N 
ATOM      3  N   UNL     1      33.194 -12.557 -23.274  0.00  0.00    -0.306 NA
ATOM      4  N   UNL     1      32.318 -14.224 -21.909  0.00  0.00    -0.332 N 
ATOM      5  C   UNL     1      31.680 -10.643 -21.973  0.00  0.00    +0.083 C 
ATOM      6  C   UNL     1      33.292 -11.236 -23.678  0.00  0.00    +0.275 C 
ATOM      7  C   UNL     1      31.570 -11.908 -21.571  0.00  0.00    +0.065 C 
ATOM      8  C   UNL     1      32.401 -12.905 -22.295  0.00  0.00    +0.193 C 
ATOM      9  H   UNL     1      32.857 -14.906 -22.370  0.00  0.00    +0.145 HD
ATOM     10  H   UNL     1      31.720 -14.484 -21.171  0.00  0.00    +0.145 HD
ENDROOT
BRANCH   2  12
ATOM     11  O   UNL     1      33.330  -8.151 -22.395  0.00  0.00    -0.337 OA
ATOM     12  C   UNL     1      32.565  -8.873 -23.372  0.00  0.00    +0.206 C 
ATOM     13  C   UNL     1      31.193  -8.228 -23.423  0.00  0.00    +0.055 C 
ATOM     14  C   UNL     1      31.510  -6.794 -23.079  0.00  0.00    +0.037 C 
ATOM     15  C   UNL     1      32.637  -6.935 -22.067  0.00  0.00    +0.146 C 
BRANCH  15  16
ATOM     16  C   UNL     1      32.139  -7.037 -20.631  0.00  0.00    +0.167 C 
BRANCH  16  17
ATOM     17  O   UNL     1      33.069  -7.797 -19.876  0.00  0.00    -0.379 OA
ATOM     18  H   UNL     1      33.015  -7.539 -18.942  0.00  0.00    +0.211 HD
ENDBRANCH  16  17
ENDBRANCH  15  16
ENDBRANCH   2  12
TORSDOF 3
ENDMDL
MODEL 8
REMARK VINA RESULT:      -6.8      7.249      8.757
REMARK  Name = 24066
REMARK  3 active torsions:
REMARK  status: ('A' for Active; 'I' for Inactive)
REMARK    1  A    between atoms: N_2  and  C_12
REMARK    2  A    between atoms: C_15  and  C_16
REMARK    3  A    between atoms: C_16  and  O_17
REMARK                            x       y       z     vdW  Elec       q    Type
REMARK                         _______ _______ _______ _____ _____    ______ ____
ROOT
ATOM      1  O   UNL     1      32.331 -24.585 -13.131  0.00  0.00    -0.193 OA
ATOM      2  N   UNL     1      33.719 -24.021 -14.885  0.00  0.00    -0.180 N 
ATOM      3  N   UNL     1      31.331 -23.705 -14.968  0.00  0.00    -0.306 NA
ATOM      4  N   UNL     1      30.311 -22.803 -16.854  0.00  0.00    -0.332 N 
ATOM      5  C   UNL     1      33.814 -23.502 -16.167  0.00  0.00    +0.083 C 
ATOM      6  C   UNL     1      32.448 -24.127 -14.269  0.00  0.00    +0.275 C 
ATOM      7  C   UNL     1      32.750 -23.092 -16.857  0.00  0.00    +0.065 C 
ATOM      8  C   UNL     1      31.435 -23.217 -16.176  0.00  0.00    +0.193 C 
ATOM      9  H   UNL     1      29.426 -22.874 -16.429  0.00  0.00    +0.145 HD
ATOM     10  H   UNL     1      30.392 -22.436 -17.764  0.00  0.00    +0.145 HD
ENDROOT
BRANCH   2  12
ATOM     11  O   UNL     1      35.739 -23.290 -13.955  0.00  0.00    -0.337 OA
ATOM     12  C   UNL     1      34.920 -24.437 -14.224  0.00  0.00    +0.206 C 
ATOM     13  C   UNL     1      35.755 -25.389 -15.060  0.00  0.00    +0.055 C 
ATOM     14  C   UNL     1      37.149 -25.093 -14.569  0.00  0.00    +0.037 C 
ATOM     15  C   UNL     1      37.100 -23.597 -14.303  0.00  0.00    +0.146 C 
BRANCH  15  16
ATOM     16  C   UNL     1      37.486 -22.762 -15.517  0.00  0.00    +0.167 C 
BRANCH  16  17
ATOM     17  O   UNL     1      38.642 -23.328 -16.114  0.00  0.00    -0.379 OA
ATOM     18  H   UNL     1      39.023 -23.991 -15.518  0.00  0.00    +0.211 HD
ENDBRANCH  16  17
ENDBRANCH  15  16
ENDBRANCH   2  12
TORSDOF 3
ENDMDL
MODEL 9
REMARK VINA RESULT:      -6.8      6.732      9.032
REMARK  Name = 24066
REMARK  3 active torsions:
REMARK  status: ('A' for Active; 'I' for Inactive)
REMARK    1  A    between atoms: N_2  and  C_12
REMARK    2  A    between atoms: C_15  and  C_16
REMARK    3  A    between atoms: C_16  and  O_17
REMARK                            x       y       z     vdW  Elec       q    Type
REMARK                         _______ _______ _______ _____ _____    ______ ____
ROOT
ATOM      1  O   UNL     1      34.721 -22.874 -17.422  0.00  0.00    -0.193 OA
ATOM      2  N   UNL     1      34.352 -23.538 -15.243  0.00  0.00    -0.180 N 
ATOM      3  N   UNL     1      32.557 -23.197 -16.816  0.00  0.00    -0.306 NA
ATOM      4  N   UNL     1      30.342 -23.529 -16.190  0.00  0.00    -0.332 N 
ATOM      5  C   UNL     1      33.418 -23.883 -14.280  0.00  0.00    +0.083 C 
ATOM      6  C   UNL     1      33.914 -23.186 -16.544  0.00  0.00    +0.275 C 
ATOM      7  C   UNL     1      32.108 -23.898 -14.522  0.00  0.00    +0.065 C 
ATOM      8  C   UNL     1      31.687 -23.525 -15.897  0.00  0.00    +0.193 C 
ATOM      9  H   UNL     1      30.034 -23.286 -17.092  0.00  0.00    +0.145 HD
ATOM     10  H   UNL     1      29.689 -23.775 -15.496  0.00  0.00    +0.145 HD
ENDROOT
BRANCH   2  12
ATOM     11  O   UNL     1      36.442 -24.476 -15.730  0.00  0.00    -0.337 OA
ATOM     12  C   UNL     1      35.740 -23.550 -14.887  0.00  0.00    +0.206 C 
ATOM     13  C   UNL     1      35.977 -23.990 -13.455  0.00  0.00    +0.055 C 
ATOM     14  C   UNL     1      37.347 -24.613 -13.543  0.00  0.00    +0.037 C 
ATOM     15  C   UNL     1      37.331 -25.262 -14.918  0.00  0.00    +0.146 C 
BRANCH  15  16
ATOM     16  C   UNL     1      36.818 -26.697 -14.894  0.00  0.00    +0.167 C 
BRANCH  16  17
ATOM     17  O   UNL     1      36.785 -27.195 -16.222  0.00  0.00    -0.379 OA
ATOM     18  H   UNL     1      37.458 -26.742 -16.754  0.00  0.00    +0.211 HD
ENDBRANCH  16  17
ENDBRANCH  15  16
ENDBRANCH   2  12
TORSDOF 3
ENDMDL
