MODEL 1
REMARK VINA RESULT:      -7.7      0.000      0.000
REMARK  Name = 44237094
REMARK  6 active torsions:
REMARK  status: ('A' for Active; 'I' for Inactive)
REMARK    1  A    between atoms: C_6  and  C_18
REMARK    2  A    between atoms: C_7  and  C_14
REMARK    3  A    between atoms: C_14  and  O_15
REMARK    4  A    between atoms: O_15  and  C_16
REMARK    5  A    between atoms: C_18  and  C_24
REMARK    6  A    between atoms: C_19  and  N_20
REMARK                            x       y       z     vdW  Elec       q    Type
REMARK                         _______ _______ _______ _____ _____    ______ ____
ROOT
ATOM      1 CL   UNL     1      32.298 -22.784 -17.310  0.00  0.00    -0.080 Cl
ATOM      2 CL   UNL     1      29.944 -23.590 -15.303  0.00  0.00    -0.081 Cl
ATOM      3  N   UNL     1      35.158 -23.310 -15.905  0.00  0.00    -0.319 N 
ATOM      4  C   UNL     1      33.960 -23.566 -15.277  0.00  0.00    +0.072 A 
ATOM      5  C   UNL     1      34.260 -24.059 -14.005  0.00  0.00    +0.019 A 
ATOM      6  C   UNL     1      35.680 -24.091 -13.894  0.00  0.00    +0.034 A 
ATOM      7  C   UNL     1      36.202 -23.625 -15.077  0.00  0.00    +0.137 A 
ATOM      8  C   UNL     1      32.647 -23.398 -15.731  0.00  0.00    +0.084 C 
ATOM      9  C   UNL     1      33.200 -24.405 -13.144  0.00  0.00    +0.002 C 
ATOM     10  C   UNL     1      35.346 -22.786 -17.244  0.00  0.00    +0.131 C 
ATOM     11  C   UNL     1      31.612 -23.747 -14.859  0.00  0.00    +0.070 C 
ATOM     12  C   UNL     1      31.882 -24.243 -13.585  0.00  0.00    +0.012 C 
ENDROOT
BRANCH   7  14
ATOM     13  O   UNL     1      38.123 -22.400 -15.784  0.00  0.00    -0.243 OA
ATOM     14  C   UNL     1      37.583 -23.473 -15.436  0.00  0.00    +0.357 C 
BRANCH  14  15
ATOM     15  O   UNL     1      38.278 -24.657 -15.357  0.00  0.00    -0.444 OA
BRANCH  15  16
ATOM     16  C   UNL     1      39.701 -24.584 -15.223  0.00  0.00    +0.209 C 
ATOM     17  C   UNL     1      40.159 -25.651 -14.252  0.00  0.00    +0.051 C 
ENDBRANCH  15  16
ENDBRANCH  14  15
ENDBRANCH   7  14
BRANCH   6  18
ATOM     18  C   UNL     1      36.437 -24.520 -12.780  0.00  0.00    +0.084 C 
ATOM     19  C   UNL     1      36.917 -25.807 -12.667  0.00  0.00    +0.065 C 
BRANCH  19  20
ATOM     20  N   UNL     1      36.827 -26.884 -13.494  0.00  0.00    -0.356 N 
ATOM     21  H   UNL     1      36.114 -27.549 -13.361  0.00  0.00    +0.142 HD
ATOM     22  H   UNL     1      37.475 -26.997 -14.226  0.00  0.00    +0.142 HD
ENDBRANCH  19  20
BRANCH  18  24
ATOM     23  N   UNL     1      37.021 -22.924 -10.783  0.00  0.00    -0.191 NA
ATOM     24  C   UNL     1      36.738 -23.622 -11.666  0.00  0.00    +0.102 C 
ENDBRANCH  18  24
ENDBRANCH   6  18
TORSDOF 6
ENDMDL
MODEL 2
REMARK VINA RESULT:      -7.5      2.715      4.979
REMARK  Name = 44237094
REMARK  6 active torsions:
REMARK  status: ('A' for Active; 'I' for Inactive)
REMARK    1  A    between atoms: C_6  and  C_18
REMARK    2  A    between atoms: C_7  and  C_14
REMARK    3  A    between atoms: C_14  and  O_15
REMARK    4  A    between atoms: O_15  and  C_16
REMARK    5  A    between atoms: C_18  and  C_24
REMARK    6  A    between atoms: C_19  and  N_20
REMARK                            x       y       z     vdW  Elec       q    Type
REMARK                         _______ _______ _______ _____ _____    ______ ____
ROOT
ATOM      1 CL   UNL     1      33.468 -21.683 -19.134  0.00  0.00    -0.080 Cl
ATOM      2 CL   UNL     1      36.440 -20.825 -19.943  0.00  0.00    -0.081 Cl
ATOM      3  N   UNL     1      33.514 -23.239 -16.305  0.00  0.00    -0.319 N 
ATOM      4  C   UNL     1      34.652 -22.751 -16.906  0.00  0.00    +0.072 A 
ATOM      5  C   UNL     1      35.726 -23.066 -16.070  0.00  0.00    +0.019 A 
ATOM      6  C   UNL     1      35.191 -23.760 -14.948  0.00  0.00    +0.034 A 
ATOM      7  C   UNL     1      33.830 -23.851 -15.122  0.00  0.00    +0.137 A 
ATOM      8  C   UNL     1      34.812 -22.062 -18.114  0.00  0.00    +0.084 C 
ATOM      9  C   UNL     1      37.023 -22.675 -16.455  0.00  0.00    +0.002 C 
ATOM     10  C   UNL     1      32.156 -23.149 -16.806  0.00  0.00    +0.131 C 
ATOM     11  C   UNL     1      36.108 -21.684 -18.475  0.00  0.00    +0.070 C 
ATOM     12  C   UNL     1      37.199 -21.985 -17.660  0.00  0.00    +0.012 C 
ENDROOT
BRANCH   7  14
ATOM     13  O   UNL     1      32.578 -25.681 -14.242  0.00  0.00    -0.243 OA
ATOM     14  C   UNL     1      32.865 -24.464 -14.254  0.00  0.00    +0.357 C 
BRANCH  14  15
ATOM     15  O   UNL     1      32.269 -23.557 -13.410  0.00  0.00    -0.444 OA
BRANCH  15  16
ATOM     16  C   UNL     1      30.873 -23.720 -13.138  0.00  0.00    +0.209 C 
ATOM     17  C   UNL     1      30.077 -23.125 -14.280  0.00  0.00    +0.051 C 
ENDBRANCH  15  16
ENDBRANCH  14  15
ENDBRANCH   7  14
BRANCH   6  18
ATOM     18  C   UNL     1      35.908 -24.273 -13.843  0.00  0.00    +0.084 C 
ATOM     19  C   UNL     1      36.316 -25.587 -13.775  0.00  0.00    +0.065 C 
BRANCH  19  20
ATOM     20  N   UNL     1      36.181 -26.624 -14.647  0.00  0.00    -0.356 N 
ATOM     21  H   UNL     1      36.593 -27.495 -14.444  0.00  0.00    +0.142 HD
ATOM     22  H   UNL     1      35.670 -26.504 -15.480  0.00  0.00    +0.142 HD
ENDBRANCH  19  20
BRANCH  18  24
ATOM     23  N   UNL     1      36.548 -22.785 -11.780  0.00  0.00    -0.191 NA
ATOM     24  C   UNL     1      36.240 -23.437 -12.689  0.00  0.00    +0.102 C 
ENDBRANCH  18  24
ENDBRANCH   6  18
TORSDOF 6
ENDMDL
MODEL 3
REMARK VINA RESULT:      -7.3     12.632     15.449
REMARK  Name = 44237094
REMARK  6 active torsions:
REMARK  status: ('A' for Active; 'I' for Inactive)
REMARK    1  A    between atoms: C_6  and  C_18
REMARK    2  A    between atoms: C_7  and  C_14
REMARK    3  A    between atoms: C_14  and  O_15
REMARK    4  A    between atoms: O_15  and  C_16
REMARK    5  A    between atoms: C_18  and  C_24
REMARK    6  A    between atoms: C_19  and  N_20
REMARK                            x       y       z     vdW  Elec       q    Type
REMARK                         _______ _______ _______ _____ _____    ______ ____
ROOT
ATOM      1 CL   UNL     1      32.516 -15.185 -19.867  0.00  0.00    -0.080 Cl
ATOM      2 CL   UNL     1      34.122 -17.642 -21.136  0.00  0.00    -0.081 Cl
ATOM      3  N   UNL     1      32.553 -12.685 -21.910  0.00  0.00    -0.319 N 
ATOM      4  C   UNL     1      33.167 -13.885 -22.189  0.00  0.00    +0.072 A 
ATOM      5  C   UNL     1      33.753 -13.763 -23.451  0.00  0.00    +0.019 A 
ATOM      6  C   UNL     1      33.468 -12.449 -23.918  0.00  0.00    +0.034 A 
ATOM      7  C   UNL     1      32.729 -11.811 -22.949  0.00  0.00    +0.137 A 
ATOM      8  C   UNL     1      33.249 -15.057 -21.428  0.00  0.00    +0.084 C 
ATOM      9  C   UNL     1      34.454 -14.864 -23.982  0.00  0.00    +0.002 C 
ATOM     10  C   UNL     1      31.814 -12.341 -20.711  0.00  0.00    +0.131 C 
ATOM     11  C   UNL     1      33.950 -16.135 -21.976  0.00  0.00    +0.070 C 
ATOM     12  C   UNL     1      34.545 -16.042 -23.233  0.00  0.00    +0.012 C 
ENDROOT
BRANCH   7  14
ATOM     13  O   UNL     1      31.045 -10.158 -23.291  0.00  0.00    -0.243 OA
ATOM     14  C   UNL     1      32.211 -10.473 -22.969  0.00  0.00    +0.357 C 
BRANCH  14  15
ATOM     15  O   UNL     1      33.149  -9.543 -22.588  0.00  0.00    -0.444 OA
BRANCH  15  16
ATOM     16  C   UNL     1      32.679  -8.340 -21.970  0.00  0.00    +0.209 C 
ATOM     17  C   UNL     1      32.441  -8.603 -20.498  0.00  0.00    +0.051 C 
ENDBRANCH  15  16
ENDBRANCH  14  15
ENDBRANCH   7  14
BRANCH   6  18
ATOM     18  C   UNL     1      33.862 -11.879 -25.151  0.00  0.00    +0.084 C 
ATOM     19  C   UNL     1      34.708 -10.794 -25.223  0.00  0.00    +0.065 C 
BRANCH  19  20
ATOM     20  N   UNL     1      35.340 -10.071 -24.258  0.00  0.00    -0.356 N 
ATOM     21  H   UNL     1      36.316 -10.140 -24.151  0.00  0.00    +0.142 HD
ATOM     22  H   UNL     1      34.820  -9.478 -23.668  0.00  0.00    +0.142 HD
ENDBRANCH  19  20
BRANCH  18  24
ATOM     23  N   UNL     1      33.016 -12.841 -27.439  0.00  0.00    -0.191 NA
ATOM     24  C   UNL     1      33.371 -12.397 -26.427  0.00  0.00    +0.102 C 
ENDBRANCH  18  24
ENDBRANCH   6  18
TORSDOF 6
ENDMDL
MODEL 4
REMARK VINA RESULT:      -7.2      2.541      3.482
REMARK  Name = 44237094
REMARK  6 active torsions:
REMARK  status: ('A' for Active; 'I' for Inactive)
REMARK    1  A    between atoms: C_6  and  C_18
REMARK    2  A    between atoms: C_7  and  C_14
REMARK    3  A    between atoms: C_14  and  O_15
REMARK    4  A    between atoms: O_15  and  C_16
REMARK    5  A    between atoms: C_18  and  C_24
REMARK    6  A    between atoms: C_19  and  N_20
REMARK                            x       y       z     vdW  Elec       q    Type
REMARK                         _______ _______ _______ _____ _____    ______ ____
ROOT
ATOM      1 CL   UNL     1      36.552 -20.691 -19.305  0.00  0.00    -0.080 Cl
ATOM      2 CL   UNL     1      33.617 -20.922 -20.552  0.00  0.00    -0.081 Cl
ATOM      3  N   UNL     1      36.734 -22.452 -16.605  0.00  0.00    -0.319 N 
ATOM      4  C   UNL     1      35.586 -22.361 -17.360  0.00  0.00    +0.072 A 
ATOM      5  C   UNL     1      34.615 -23.142 -16.729  0.00  0.00    +0.019 A 
ATOM      6  C   UNL     1      35.221 -23.705 -15.570  0.00  0.00    +0.034 A 
ATOM      7  C   UNL     1      36.522 -23.262 -15.521  0.00  0.00    +0.137 A 
ATOM      8  C   UNL     1      35.335 -21.653 -18.541  0.00  0.00    +0.084 C 
ATOM      9  C   UNL     1      33.331 -23.223 -17.303  0.00  0.00    +0.002 C 
ATOM     10  C   UNL     1      38.005 -21.809 -16.870  0.00  0.00    +0.131 C 
ATOM     11  C   UNL     1      34.054 -21.748 -19.092  0.00  0.00    +0.070 C 
ATOM     12  C   UNL     1      33.066 -22.520 -18.484  0.00  0.00    +0.012 C 
ENDROOT
BRANCH   7  14
ATOM     13  O   UNL     1      37.691 -22.936 -13.468  0.00  0.00    -0.243 OA
ATOM     14  C   UNL     1      37.523 -23.562 -14.537  0.00  0.00    +0.357 C 
BRANCH  14  15
ATOM     15  O   UNL     1      38.303 -24.636 -14.894  0.00  0.00    -0.444 OA
BRANCH  15  16
ATOM     16  C   UNL     1      39.044 -25.291 -13.860  0.00  0.00    +0.209 C 
ATOM     17  C   UNL     1      40.337 -25.823 -14.441  0.00  0.00    +0.051 C 
ENDBRANCH  15  16
ENDBRANCH  14  15
ENDBRANCH   7  14
BRANCH   6  18
ATOM     18  C   UNL     1      34.617 -24.565 -14.625  0.00  0.00    +0.084 C 
ATOM     19  C   UNL     1      34.983 -25.886 -14.491  0.00  0.00    +0.065 C 
BRANCH  19  20
ATOM     20  N   UNL     1      35.922 -26.636 -15.131  0.00  0.00    -0.356 N 
ATOM     21  H   UNL     1      36.552 -27.186 -14.611  0.00  0.00    +0.142 HD
ATOM     22  H   UNL     1      35.971 -26.629 -16.114  0.00  0.00    +0.142 HD
ENDBRANCH  19  20
BRANCH  18  24
ATOM     23  N   UNL     1      32.668 -23.724 -13.085  0.00  0.00    -0.191 NA
ATOM     24  C   UNL     1      33.544 -24.103 -13.745  0.00  0.00    +0.102 C 
ENDBRANCH  18  24
ENDBRANCH   6  18
TORSDOF 6
ENDMDL
MODEL 5
REMARK VINA RESULT:      -7.0     15.857     18.156
REMARK  Name = 44237094
REMARK  6 active torsions:
REMARK  status: ('A' for Active; 'I' for Inactive)
REMARK    1  A    between atoms: C_6  and  C_18
REMARK    2  A    between atoms: C_7  and  C_14
REMARK    3  A    between atoms: C_14  and  O_15
REMARK    4  A    between atoms: O_15  and  C_16
REMARK    5  A    between atoms: C_18  and  C_24
REMARK    6  A    between atoms: C_19  and  N_20
REMARK                            x       y       z     vdW  Elec       q    Type
REMARK                         _______ _______ _______ _____ _____    ______ ____
ROOT
ATOM      1 CL   UNL     1      33.959 -12.832 -24.211  0.00  0.00    -0.080 Cl
ATOM      2 CL   UNL     1      32.129 -14.286 -22.030  0.00  0.00    -0.081 Cl
ATOM      3  N   UNL     1      33.694  -9.628 -23.898  0.00  0.00    -0.319 N 
ATOM      4  C   UNL     1      33.016 -10.515 -23.092  0.00  0.00    +0.072 A 
ATOM      5  C   UNL     1      32.259  -9.759 -22.194  0.00  0.00    +0.019 A 
ATOM      6  C   UNL     1      32.508  -8.389 -22.490  0.00  0.00    +0.034 A 
ATOM      7  C   UNL     1      33.392  -8.341 -23.542  0.00  0.00    +0.137 A 
ATOM      8  C   UNL     1      33.015 -11.915 -23.089  0.00  0.00    +0.084 C 
ATOM      9  C   UNL     1      31.462 -10.430 -21.245  0.00  0.00    +0.002 C 
ATOM     10  C   UNL     1      34.604  -9.953 -24.979  0.00  0.00    +0.131 C 
ATOM     11  C   UNL     1      32.216 -12.558 -22.139  0.00  0.00    +0.070 C 
ATOM     12  C   UNL     1      31.451 -11.829 -21.231  0.00  0.00    +0.012 C 
ENDROOT
BRANCH   7  14
ATOM     13  O   UNL     1      35.107  -6.766 -24.056  0.00  0.00    -0.243 OA
ATOM     14  C   UNL     1      33.935  -7.182 -24.189  0.00  0.00    +0.357 C 
BRANCH  14  15
ATOM     15  O   UNL     1      33.016  -6.553 -24.995  0.00  0.00    -0.444 OA
BRANCH  15  16
ATOM     16  C   UNL     1      33.477  -5.471 -25.810  0.00  0.00    +0.209 C 
ATOM     17  C   UNL     1      32.430  -4.377 -25.815  0.00  0.00    +0.051 C 
ENDBRANCH  15  16
ENDBRANCH  14  15
ENDBRANCH   7  14
BRANCH   6  18
ATOM     18  C   UNL     1      31.956  -7.263 -21.836  0.00  0.00    +0.084 C 
ATOM     19  C   UNL     1      32.256  -6.950 -20.528  0.00  0.00    +0.065 C 
BRANCH  19  20
ATOM     20  N   UNL     1      33.076  -7.546 -19.619  0.00  0.00    -0.356 N 
ATOM     21  H   UNL     1      34.052  -7.446 -19.697  0.00  0.00    +0.142 HD
ATOM     22  H   UNL     1      32.692  -8.075 -18.883  0.00  0.00    +0.142 HD
ENDBRANCH  19  20
BRANCH  18  24
ATOM     23  N   UNL     1      30.296  -5.635 -23.049  0.00  0.00    -0.191 NA
ATOM     24  C   UNL     1      31.011  -6.372 -22.509  0.00  0.00    +0.102 C 
ENDBRANCH  18  24
ENDBRANCH   6  18
TORSDOF 6
ENDMDL
MODEL 6
REMARK VINA RESULT:      -7.0     13.058     15.636
REMARK  Name = 44237094
REMARK  6 active torsions:
REMARK  status: ('A' for Active; 'I' for Inactive)
REMARK    1  A    between atoms: C_6  and  C_18
REMARK    2  A    between atoms: C_7  and  C_14
REMARK    3  A    between atoms: C_14  and  O_15
REMARK    4  A    between atoms: O_15  and  C_16
REMARK    5  A    between atoms: C_18  and  C_24
REMARK    6  A    between atoms: C_19  and  N_20
REMARK                            x       y       z     vdW  Elec       q    Type
REMARK                         _______ _______ _______ _____ _____    ______ ____
ROOT
ATOM      1 CL   UNL     1      31.573 -11.546 -19.683  0.00  0.00    -0.080 Cl
ATOM      2 CL   UNL     1      31.347  -8.375 -20.029  0.00  0.00    -0.081 Cl
ATOM      3  N   UNL     1      32.809 -12.852 -22.365  0.00  0.00    -0.319 N 
ATOM      4  C   UNL     1      32.595 -11.500 -22.225  0.00  0.00    +0.072 A 
ATOM      5  C   UNL     1      33.004 -10.893 -23.414  0.00  0.00    +0.019 A 
ATOM      6  C   UNL     1      33.471 -11.929 -24.272  0.00  0.00    +0.034 A 
ATOM      7  C   UNL     1      33.337 -13.121 -23.599  0.00  0.00    +0.137 A 
ATOM      8  C   UNL     1      32.075 -10.774 -21.146  0.00  0.00    +0.084 C 
ATOM      9  C   UNL     1      32.891  -9.493 -23.536  0.00  0.00    +0.002 C 
ATOM     10  C   UNL     1      32.534 -13.885 -21.385  0.00  0.00    +0.131 C 
ATOM     11  C   UNL     1      31.972  -9.387 -21.291  0.00  0.00    +0.070 C 
ATOM     12  C   UNL     1      32.372  -8.755 -22.467  0.00  0.00    +0.012 C 
ENDROOT
BRANCH   7  14
ATOM     13  O   UNL     1      32.995 -15.119 -24.856  0.00  0.00    -0.243 OA
ATOM     14  C   UNL     1      33.675 -14.438 -24.057  0.00  0.00    +0.357 C 
BRANCH  14  15
ATOM     15  O   UNL     1      34.854 -14.894 -23.517  0.00  0.00    -0.444 OA
BRANCH  15  16
ATOM     16  C   UNL     1      35.004 -16.307 -23.345  0.00  0.00    +0.209 C 
ATOM     17  C   UNL     1      34.917 -16.635 -21.870  0.00  0.00    +0.051 C 
ENDBRANCH  15  16
ENDBRANCH  14  15
ENDBRANCH   7  14
BRANCH   6  18
ATOM     18  C   UNL     1      33.982 -11.784 -25.582  0.00  0.00    +0.084 C 
ATOM     19  C   UNL     1      35.044 -10.955 -25.871  0.00  0.00    +0.065 C 
BRANCH  19  20
ATOM     20  N   UNL     1      35.814 -10.159 -25.079  0.00  0.00    -0.356 N 
ATOM     21  H   UNL     1      36.481 -10.561 -24.476  0.00  0.00    +0.142 HD
ATOM     22  H   UNL     1      35.706  -9.181 -25.110  0.00  0.00    +0.142 HD
ENDBRANCH  19  20
BRANCH  18  24
ATOM     23  N   UNL     1      32.939 -13.099 -27.597  0.00  0.00    -0.191 NA
ATOM     24  C   UNL     1      33.395 -12.495 -26.717  0.00  0.00    +0.102 C 
ENDBRANCH  18  24
ENDBRANCH   6  18
TORSDOF 6
ENDMDL
MODEL 7
REMARK VINA RESULT:      -6.9      1.799      2.866
REMARK  Name = 44237094
REMARK  6 active torsions:
REMARK  status: ('A' for Active; 'I' for Inactive)
REMARK    1  A    between atoms: C_6  and  C_18
REMARK    2  A    between atoms: C_7  and  C_14
REMARK    3  A    between atoms: C_14  and  O_15
REMARK    4  A    between atoms: O_15  and  C_16
REMARK    5  A    between atoms: C_18  and  C_24
REMARK    6  A    between atoms: C_19  and  N_20
REMARK                            x       y       z     vdW  Elec       q    Type
REMARK                         _______ _______ _______ _____ _____    ______ ____
ROOT
ATOM      1 CL   UNL     1      30.147 -23.095 -16.885  0.00  0.00    -0.080 Cl
ATOM      2 CL   UNL     1      28.750 -24.692 -14.493  0.00  0.00    -0.081 Cl
ATOM      3  N   UNL     1      33.351 -23.098 -16.476  0.00  0.00    -0.319 N 
ATOM      4  C   UNL     1      32.486 -23.711 -15.598  0.00  0.00    +0.072 A 
ATOM      5  C   UNL     1      33.263 -24.279 -14.585  0.00  0.00    +0.019 A 
ATOM      6  C   UNL     1      34.622 -23.985 -14.888  0.00  0.00    +0.034 A 
ATOM      7  C   UNL     1      34.643 -23.258 -16.055  0.00  0.00    +0.137 A 
ATOM      8  C   UNL     1      31.089 -23.806 -15.621  0.00  0.00    +0.084 C 
ATOM      9  C   UNL     1      32.617 -24.976 -13.545  0.00  0.00    +0.002 C 
ATOM     10  C   UNL     1      33.000 -22.377 -17.684  0.00  0.00    +0.131 C 
ATOM     11  C   UNL     1      30.472 -24.502 -14.579  0.00  0.00    +0.070 C 
ATOM     12  C   UNL     1      31.221 -25.078 -13.555  0.00  0.00    +0.012 C 
ENDROOT
BRANCH   7  14
ATOM     13  O   UNL     1      36.907 -22.529 -16.241  0.00  0.00    -0.243 OA
ATOM     14  C   UNL     1      35.784 -22.735 -16.751  0.00  0.00    +0.357 C 
BRANCH  14  15
ATOM     15  O   UNL     1      35.515 -22.474 -18.074  0.00  0.00    -0.444 OA
BRANCH  15  16
ATOM     16  C   UNL     1      36.403 -21.594 -18.771  0.00  0.00    +0.209 C 
ATOM     17  C   UNL     1      35.657 -20.949 -19.919  0.00  0.00    +0.051 C 
ENDBRANCH  15  16
ENDBRANCH  14  15
ENDBRANCH   7  14
BRANCH   6  18
ATOM     18  C   UNL     1      35.762 -24.359 -14.139  0.00  0.00    +0.084 C 
ATOM     19  C   UNL     1      36.416 -25.555 -14.343  0.00  0.00    +0.065 C 
BRANCH  19  20
ATOM     20  N   UNL     1      36.194 -26.572 -15.219  0.00  0.00    -0.356 N 
ATOM     21  H   UNL     1      36.340 -26.433 -16.183  0.00  0.00    +0.142 HD
ATOM     22  H   UNL     1      35.888 -27.448 -14.890  0.00  0.00    +0.142 HD
ENDBRANCH  19  20
BRANCH  18  24
ATOM     23  N   UNL     1      36.745 -22.862 -12.224  0.00  0.00    -0.191 NA
ATOM     24  C   UNL     1      36.301 -23.503 -13.084  0.00  0.00    +0.102 C 
ENDBRANCH  18  24
ENDBRANCH   6  18
TORSDOF 6
ENDMDL
MODEL 8
REMARK VINA RESULT:      -6.9     12.594     15.336
REMARK  Name = 44237094
REMARK  6 active torsions:
REMARK  status: ('A' for Active; 'I' for Inactive)
REMARK    1  A    between atoms: C_6  and  C_18
REMARK    2  A    between atoms: C_7  and  C_14
REMARK    3  A    between atoms: C_14  and  O_15
REMARK    4  A    between atoms: O_15  and  C_16
REMARK    5  A    between atoms: C_18  and  C_24
REMARK    6  A    between atoms: C_19  and  N_20
REMARK                            x       y       z     vdW  Elec       q    Type
REMARK                         _______ _______ _______ _____ _____    ______ ____
ROOT
ATOM      1 CL   UNL     1      32.498 -15.291 -19.861  0.00  0.00    -0.080 Cl
ATOM      2 CL   UNL     1      34.181 -17.665 -21.186  0.00  0.00    -0.081 Cl
ATOM      3  N   UNL     1      32.519 -12.717 -21.811  0.00  0.00    -0.319 N 
ATOM      4  C   UNL     1      33.165 -13.893 -22.121  0.00  0.00    +0.072 A 
ATOM      5  C   UNL     1      33.772 -13.713 -23.366  0.00  0.00    +0.019 A 
ATOM      6  C   UNL     1      33.467 -12.389 -23.790  0.00  0.00    +0.034 A 
ATOM      7  C   UNL     1      32.697 -11.803 -22.813  0.00  0.00    +0.137 A 
ATOM      8  C   UNL     1      33.258 -15.091 -21.401  0.00  0.00    +0.084 C 
ATOM      9  C   UNL     1      34.507 -14.778 -23.922  0.00  0.00    +0.002 C 
ATOM     10  C   UNL     1      31.751 -12.434 -20.615  0.00  0.00    +0.131 C 
ATOM     11  C   UNL     1      33.992 -16.133 -21.974  0.00  0.00    +0.070 C 
ATOM     12  C   UNL     1      34.609 -15.981 -23.214  0.00  0.00    +0.012 C 
ENDROOT
BRANCH   7  14
ATOM     13  O   UNL     1      30.962 -10.184 -23.050  0.00  0.00    -0.243 OA
ATOM     14  C   UNL     1      32.150 -10.476 -22.795  0.00  0.00    +0.357 C 
BRANCH  14  15
ATOM     15  O   UNL     1      33.088  -9.528 -22.459  0.00  0.00    -0.444 OA
BRANCH  15  16
ATOM     16  C   UNL     1      32.630  -8.351 -21.785  0.00  0.00    +0.209 C 
ATOM     17  C   UNL     1      32.324  -8.697 -20.344  0.00  0.00    +0.051 C 
ENDBRANCH  15  16
ENDBRANCH  14  15
ENDBRANCH   7  14
BRANCH   6  18
ATOM     18  C   UNL     1      33.872 -11.766 -24.993  0.00  0.00    +0.084 C 
ATOM     19  C   UNL     1      33.528 -12.261 -26.232  0.00  0.00    +0.065 C 
BRANCH  19  20
ATOM     20  N   UNL     1      32.781 -13.338 -26.602  0.00  0.00    -0.356 N 
ATOM     21  H   UNL     1      32.676 -14.100 -25.987  0.00  0.00    +0.142 HD
ATOM     22  H   UNL     1      32.344 -13.354 -27.483  0.00  0.00    +0.142 HD
ENDBRANCH  19  20
BRANCH  18  24
ATOM     23  N   UNL     1      35.382  -9.622 -24.947  0.00  0.00    -0.191 NA
ATOM     24  C   UNL     1      34.705 -10.564 -24.991  0.00  0.00    +0.102 C 
ENDBRANCH  18  24
ENDBRANCH   6  18
TORSDOF 6
ENDMDL
MODEL 9
REMARK VINA RESULT:      -6.9     13.692     16.240
REMARK  Name = 44237094
REMARK  6 active torsions:
REMARK  status: ('A' for Active; 'I' for Inactive)
REMARK    1  A    between atoms: C_6  and  C_18
REMARK    2  A    between atoms: C_7  and  C_14
REMARK    3  A    between atoms: C_14  and  O_15
REMARK    4  A    between atoms: O_15  and  C_16
REMARK    5  A    between atoms: C_18  and  C_24
REMARK    6  A    between atoms: C_19  and  N_20
REMARK                            x       y       z     vdW  Elec       q    Type
REMARK                         _______ _______ _______ _____ _____    ______ ____
ROOT
ATOM      1 CL   UNL     1      31.333  -9.964 -19.992  0.00  0.00    -0.080 Cl
ATOM      2 CL   UNL     1      31.509  -6.904 -20.901  0.00  0.00    -0.081 Cl
ATOM      3  N   UNL     1      32.556 -11.861 -22.302  0.00  0.00    -0.319 N 
ATOM      4  C   UNL     1      32.498 -10.490 -22.415  0.00  0.00    +0.072 A 
ATOM      5  C   UNL     1      33.045 -10.157 -23.657  0.00  0.00    +0.019 A 
ATOM      6  C   UNL     1      33.433 -11.376 -24.282  0.00  0.00    +0.034 A 
ATOM      7  C   UNL     1      33.119 -12.405 -23.425  0.00  0.00    +0.137 A 
ATOM      8  C   UNL     1      32.007  -9.529 -21.524  0.00  0.00    +0.084 C 
ATOM      9  C   UNL     1      33.108  -8.800 -24.028  0.00  0.00    +0.002 C 
ATOM     10  C   UNL     1      32.103 -12.663 -21.182  0.00  0.00    +0.131 C 
ATOM     11  C   UNL     1      32.080  -8.189 -21.914  0.00  0.00    +0.070 C 
ATOM     12  C   UNL     1      32.621  -7.827 -23.147  0.00  0.00    +0.012 C 
ENDROOT
BRANCH   7  14
ATOM     13  O   UNL     1      32.532 -14.577 -24.214  0.00  0.00    -0.243 OA
ATOM     14  C   UNL     1      33.322 -13.812 -23.620  0.00  0.00    +0.357 C 
BRANCH  14  15
ATOM     15  O   UNL     1      34.504 -14.251 -23.073  0.00  0.00    -0.444 OA
BRANCH  15  16
ATOM     16  C   UNL     1      34.521 -15.557 -22.488  0.00  0.00    +0.209 C 
ATOM     17  C   UNL     1      34.513 -15.422 -20.981  0.00  0.00    +0.051 C 
ENDBRANCH  15  16
ENDBRANCH  14  15
ENDBRANCH   7  14
BRANCH   6  18
ATOM     18  C   UNL     1      34.033 -11.528 -25.553  0.00  0.00    +0.084 C 
ATOM     19  C   UNL     1      35.201 -10.883 -25.898  0.00  0.00    +0.065 C 
BRANCH  19  20
ATOM     20  N   UNL     1      36.014 -10.044 -25.199  0.00  0.00    -0.356 N 
ATOM     21  H   UNL     1      36.236 -10.242 -24.260  0.00  0.00    +0.142 HD
ATOM     22  H   UNL     1      36.381  -9.240 -25.632  0.00  0.00    +0.142 HD
ENDBRANCH  19  20
BRANCH  18  24
ATOM     23  N   UNL     1      32.977 -13.067 -27.396  0.00  0.00    -0.191 NA
ATOM     24  C   UNL     1      33.431 -12.365 -26.590  0.00  0.00    +0.102 C 
ENDBRANCH  18  24
ENDBRANCH   6  18
TORSDOF 6
ENDMDL
