MODEL 1
REMARK VINA RESULT:      -9.9      0.000      0.000
REMARK  Name = 1509
REMARK  2 active torsions:
REMARK  status: ('A' for Active; 'I' for Inactive)
REMARK    1  A    between atoms: C_5  and  C_14
REMARK    2  A    between atoms: C_7  and  C_22
REMARK                            x       y       z     vdW  Elec       q    Type
REMARK                         _______ _______ _______ _____ _____    ______ ____
ROOT
ATOM      1  N   UNL     1      34.469 -17.978 -21.317  0.00  0.00    -0.314 N 
ATOM      2  N   UNL     1      34.932 -19.387 -22.974  0.00  0.00    -0.314 N 
ATOM      3  C   UNL     1      34.383 -17.235 -22.466  0.00  0.00    +0.059 C 
ATOM      4  C   UNL     1      34.676 -18.136 -23.486  0.00  0.00    +0.059 C 
ATOM      5  C   UNL     1      34.800 -19.257 -21.673  0.00  0.00    +0.172 C 
ATOM      6  C   UNL     1      34.083 -15.891 -22.693  0.00  0.00    +0.018 C 
ATOM      7  C   UNL     1      34.086 -15.462 -24.024  0.00  0.00    +0.030 C 
ATOM      8  C   UNL     1      34.674 -17.687 -24.818  0.00  0.00    +0.016 C 
ATOM      9  C   UNL     1      34.376 -16.342 -25.069  0.00  0.00    +0.004 C 
ATOM     10  H   UNL     1      34.320 -17.651 -20.401  0.00  0.00    +0.149 HD
ATOM     11  H   UNL     1      35.165 -20.202 -23.474  0.00  0.00    +0.149 HD
ENDROOT
BRANCH   5  14
ATOM     12  O   UNL     1      32.595 -20.600 -20.388  0.00  0.00    -0.270 OA
ATOM     13  N   UNL     1      33.997 -21.798 -19.012  0.00  0.00    -0.280 N 
ATOM     14  C   UNL     1      34.943 -20.213 -20.620  0.00  0.00    +0.068 C 
ATOM     15  C   UNL     1      33.732 -20.875 -20.014  0.00  0.00    +0.249 C 
ATOM     16  C   UNL     1      36.162 -20.544 -20.159  0.00  0.00    +0.005 C 
ATOM     17  C   UNL     1      36.332 -21.514 -19.105  0.00  0.00    +0.016 C 
ATOM     18  C   UNL     1      35.258 -22.105 -18.572  0.00  0.00    +0.064 C 
ATOM     19  H   UNL     1      33.235 -22.258 -18.592  0.00  0.00    +0.155 HD
ENDBRANCH   5  14
BRANCH   7  22
ATOM     20  N   UNL     1      33.174 -13.750 -25.476  0.00  0.00    -0.345 N 
ATOM     21  N   UNL     1      34.103 -13.108 -23.453  0.00  0.00    -0.387 N 
ATOM     22  C   UNL     1      33.781 -14.079 -24.323  0.00  0.00    +0.096 C 
ATOM     23  H   UNL     1      32.970 -12.808 -25.672  0.00  0.00    +0.144 HD
ATOM     24  H   UNL     1      32.933 -14.451 -26.123  0.00  0.00    +0.144 HD
ATOM     25  H   UNL     1      33.893 -12.170 -23.662  0.00  0.00    +0.157 HD
ATOM     26  H   UNL     1      34.550 -13.335 -22.606  0.00  0.00    +0.157 HD
ENDBRANCH   7  22
TORSDOF 2
ENDMDL
MODEL 2
REMARK VINA RESULT:      -9.7      1.952      7.163
REMARK  Name = 1509
REMARK  2 active torsions:
REMARK  status: ('A' for Active; 'I' for Inactive)
REMARK    1  A    between atoms: C_5  and  C_14
REMARK    2  A    between atoms: C_7  and  C_22
REMARK                            x       y       z     vdW  Elec       q    Type
REMARK                         _______ _______ _______ _____ _____    ______ ____
ROOT
ATOM      1  N   UNL     1      33.757 -19.647 -21.362  0.00  0.00    -0.314 N 
ATOM      2  N   UNL     1      35.978 -19.609 -21.276  0.00  0.00    -0.314 N 
ATOM      3  C   UNL     1      34.099 -20.507 -20.350  0.00  0.00    +0.059 C 
ATOM      4  C   UNL     1      35.490 -20.466 -20.316  0.00  0.00    +0.059 C 
ATOM      5  C   UNL     1      34.912 -19.136 -21.884  0.00  0.00    +0.172 C 
ATOM      6  C   UNL     1      33.333 -21.293 -19.489  0.00  0.00    +0.018 C 
ATOM      7  C   UNL     1      34.031 -22.067 -18.556  0.00  0.00    +0.030 C 
ATOM      8  C   UNL     1      36.175 -21.251 -19.373  0.00  0.00    +0.016 C 
ATOM      9  C   UNL     1      35.427 -22.048 -18.497  0.00  0.00    +0.004 C 
ATOM     10  H   UNL     1      32.843 -19.435 -21.659  0.00  0.00    +0.149 HD
ATOM     11  H   UNL     1      36.920 -19.398 -21.467  0.00  0.00    +0.149 HD
ENDROOT
BRANCH   5  14
ATOM     12  O   UNL     1      35.062 -16.272 -21.582  0.00  0.00    -0.270 OA
ATOM     13  N   UNL     1      34.775 -15.919 -23.837  0.00  0.00    -0.280 N 
ATOM     14  C   UNL     1      34.790 -18.206 -22.962  0.00  0.00    +0.068 C 
ATOM     15  C   UNL     1      34.892 -16.723 -22.712  0.00  0.00    +0.249 C 
ATOM     16  C   UNL     1      34.589 -18.640 -24.219  0.00  0.00    +0.005 C 
ATOM     17  C   UNL     1      34.473 -17.720 -25.324  0.00  0.00    +0.016 C 
ATOM     18  C   UNL     1      34.570 -16.405 -25.103  0.00  0.00    +0.064 C 
ATOM     19  H   UNL     1      34.841 -14.945 -23.720  0.00  0.00    +0.155 HD
ENDBRANCH   5  14
BRANCH   7  22
ATOM     20  N   UNL     1      31.949 -22.891 -17.632  0.00  0.00    -0.345 N 
ATOM     21  N   UNL     1      33.941 -23.701 -16.770  0.00  0.00    -0.387 N 
ATOM     22  C   UNL     1      33.292 -22.903 -17.634  0.00  0.00    +0.096 C 
ATOM     23  H   UNL     1      31.453 -23.462 -17.003  0.00  0.00    +0.144 HD
ATOM     24  H   UNL     1      31.461 -22.310 -18.260  0.00  0.00    +0.144 HD
ATOM     25  H   UNL     1      33.432 -24.267 -16.146  0.00  0.00    +0.157 HD
ATOM     26  H   UNL     1      34.924 -23.718 -16.759  0.00  0.00    +0.157 HD
ENDBRANCH   7  22
TORSDOF 2
ENDMDL
MODEL 3
REMARK VINA RESULT:      -9.6      1.887      6.986
REMARK  Name = 1509
REMARK  2 active torsions:
REMARK  status: ('A' for Active; 'I' for Inactive)
REMARK    1  A    between atoms: C_5  and  C_14
REMARK    2  A    between atoms: C_7  and  C_22
REMARK                            x       y       z     vdW  Elec       q    Type
REMARK                         _______ _______ _______ _____ _____    ______ ____
ROOT
ATOM      1  N   UNL     1      33.964 -18.158 -22.199  0.00  0.00    -0.314 N 
ATOM      2  N   UNL     1      36.111 -17.605 -22.372  0.00  0.00    -0.314 N 
ATOM      3  C   UNL     1      34.638 -19.056 -21.413  0.00  0.00    +0.059 C 
ATOM      4  C   UNL     1      35.976 -18.691 -21.537  0.00  0.00    +0.059 C 
ATOM      5  C   UNL     1      34.887 -17.312 -22.750  0.00  0.00    +0.172 C 
ATOM      6  C   UNL     1      34.204 -20.125 -20.627  0.00  0.00    +0.018 C 
ATOM      7  C   UNL     1      35.191 -20.844 -19.944  0.00  0.00    +0.030 C 
ATOM      8  C   UNL     1      36.953 -19.425 -20.843  0.00  0.00    +0.016 C 
ATOM      9  C   UNL     1      36.541 -20.502 -20.048  0.00  0.00    +0.004 C 
ATOM     10  H   UNL     1      32.991 -18.127 -22.341  0.00  0.00    +0.149 HD
ATOM     11  H   UNL     1      36.943 -17.148 -22.630  0.00  0.00    +0.149 HD
ENDROOT
BRANCH   5  14
ATOM     12  O   UNL     1      34.256 -17.697 -25.537  0.00  0.00    -0.270 OA
ATOM     13  N   UNL     1      33.603 -15.505 -25.795  0.00  0.00    -0.280 N 
ATOM     14  C   UNL     1      34.399 -16.283 -23.614  0.00  0.00    +0.068 C 
ATOM     15  C   UNL     1      34.085 -16.578 -25.058  0.00  0.00    +0.249 C 
ATOM     16  C   UNL     1      34.206 -15.036 -23.150  0.00  0.00    +0.005 C 
ATOM     17  C   UNL     1      33.705 -13.984 -24.001  0.00  0.00    +0.016 C 
ATOM     18  C   UNL     1      33.422 -14.248 -25.281  0.00  0.00    +0.064 C 
ATOM     19  H   UNL     1      33.380 -15.656 -26.742  0.00  0.00    +0.155 HD
ENDBRANCH   5  14
BRANCH   7  22
ATOM     20  N   UNL     1      35.494 -22.254 -17.997  0.00  0.00    -0.345 N 
ATOM     21  N   UNL     1      33.749 -22.726 -19.447  0.00  0.00    -0.387 N 
ATOM     22  C   UNL     1      34.803 -21.963 -19.113  0.00  0.00    +0.096 C 
ATOM     23  H   UNL     1      35.225 -23.016 -17.436  0.00  0.00    +0.144 HD
ATOM     24  H   UNL     1      36.269 -21.704 -17.741  0.00  0.00    +0.144 HD
ATOM     25  H   UNL     1      33.491 -23.485 -18.877  0.00  0.00    +0.157 HD
ATOM     26  H   UNL     1      33.236 -22.526 -20.262  0.00  0.00    +0.157 HD
ENDBRANCH   7  22
TORSDOF 2
ENDMDL
MODEL 4
REMARK VINA RESULT:      -9.4      1.502      1.858
REMARK  Name = 1509
REMARK  2 active torsions:
REMARK  status: ('A' for Active; 'I' for Inactive)
REMARK    1  A    between atoms: C_5  and  C_14
REMARK    2  A    between atoms: C_7  and  C_22
REMARK                            x       y       z     vdW  Elec       q    Type
REMARK                         _______ _______ _______ _____ _____    ______ ____
ROOT
ATOM      1  N   UNL     1      34.145 -17.575 -21.041  0.00  0.00    -0.314 N 
ATOM      2  N   UNL     1      34.893 -18.594 -22.870  0.00  0.00    -0.314 N 
ATOM      3  C   UNL     1      34.074 -16.636 -22.039  0.00  0.00    +0.059 C 
ATOM      4  C   UNL     1      34.546 -17.296 -23.170  0.00  0.00    +0.059 C 
ATOM      5  C   UNL     1      34.639 -18.726 -21.587  0.00  0.00    +0.172 C 
ATOM      6  C   UNL     1      33.650 -15.307 -22.047  0.00  0.00    +0.018 C 
ATOM      7  C   UNL     1      33.716 -14.633 -23.271  0.00  0.00    +0.030 C 
ATOM      8  C   UNL     1      34.606 -16.603 -24.391  0.00  0.00    +0.016 C 
ATOM      9  C   UNL     1      34.186 -15.268 -24.424  0.00  0.00    +0.004 C 
ATOM     10  H   UNL     1      33.885 -17.443 -20.101  0.00  0.00    +0.149 HD
ATOM     11  H   UNL     1      35.253 -19.274 -23.483  0.00  0.00    +0.149 HD
ENDROOT
BRANCH   5  14
ATOM     12  O   UNL     1      37.179 -19.669 -20.599  0.00  0.00    -0.270 OA
ATOM     13  N   UNL     1      36.192 -21.359 -19.387  0.00  0.00    -0.280 N 
ATOM     14  C   UNL     1      34.798 -19.849 -20.717  0.00  0.00    +0.068 C 
ATOM     15  C   UNL     1      36.165 -20.265 -20.241  0.00  0.00    +0.249 C 
ATOM     16  C   UNL     1      33.726 -20.549 -20.303  0.00  0.00    +0.005 C 
ATOM     17  C   UNL     1      33.860 -21.680 -19.417  0.00  0.00    +0.016 C 
ATOM     18  C   UNL     1      35.073 -22.044 -18.991  0.00  0.00    +0.064 C 
ATOM     19  H   UNL     1      37.065 -21.661 -19.048  0.00  0.00    +0.155 HD
ENDBRANCH   5  14
BRANCH   7  22
ATOM     20  N   UNL     1      32.098 -12.881 -22.846  0.00  0.00    -0.345 N 
ATOM     21  N   UNL     1      34.080 -12.325 -23.910  0.00  0.00    -0.387 N 
ATOM     22  C   UNL     1      33.290 -13.252 -23.344  0.00  0.00    +0.096 C 
ATOM     23  H   UNL     1      31.815 -11.940 -22.898  0.00  0.00    +0.144 HD
ATOM     24  H   UNL     1      31.509 -13.551 -22.429  0.00  0.00    +0.144 HD
ATOM     25  H   UNL     1      33.784 -11.388 -23.955  0.00  0.00    +0.157 HD
ATOM     26  H   UNL     1      34.954 -12.583 -24.280  0.00  0.00    +0.157 HD
ENDBRANCH   7  22
TORSDOF 2
ENDMDL
MODEL 5
REMARK VINA RESULT:      -9.3      5.442      8.402
REMARK  Name = 1509
REMARK  2 active torsions:
REMARK  status: ('A' for Active; 'I' for Inactive)
REMARK    1  A    between atoms: C_5  and  C_14
REMARK    2  A    between atoms: C_7  and  C_22
REMARK                            x       y       z     vdW  Elec       q    Type
REMARK                         _______ _______ _______ _____ _____    ______ ____
ROOT
ATOM      1  N   UNL     1      32.872 -11.344 -23.296  0.00  0.00    -0.314 N 
ATOM      2  N   UNL     1      34.535 -10.760 -24.651  0.00  0.00    -0.314 N 
ATOM      3  C   UNL     1      33.123 -10.025 -23.020  0.00  0.00    +0.059 C 
ATOM      4  C   UNL     1      34.165  -9.683 -23.878  0.00  0.00    +0.059 C 
ATOM      5  C   UNL     1      33.740 -11.737 -24.276  0.00  0.00    +0.172 C 
ATOM      6  C   UNL     1      32.545  -9.129 -22.120  0.00  0.00    +0.018 C 
ATOM      7  C   UNL     1      33.064  -7.829 -22.106  0.00  0.00    +0.030 C 
ATOM      8  C   UNL     1      34.673  -8.373 -23.850  0.00  0.00    +0.016 C 
ATOM      9  C   UNL     1      34.109  -7.456 -22.954  0.00  0.00    +0.004 C 
ATOM     10  H   UNL     1      32.189 -11.907 -22.866  0.00  0.00    +0.149 HD
ATOM     11  H   UNL     1      35.242 -10.791 -25.334  0.00  0.00    +0.149 HD
ENDROOT
BRANCH   5  14
ATOM     12  O   UNL     1      34.370 -14.030 -22.646  0.00  0.00    -0.270 OA
ATOM     13  N   UNL     1      33.855 -15.501 -24.339  0.00  0.00    -0.280 N 
ATOM     14  C   UNL     1      33.654 -13.092 -24.724  0.00  0.00    +0.068 C 
ATOM     15  C   UNL     1      33.992 -14.231 -23.798  0.00  0.00    +0.249 C 
ATOM     16  C   UNL     1      33.261 -13.372 -25.980  0.00  0.00    +0.005 C 
ATOM     17  C   UNL     1      33.156 -14.732 -26.451  0.00  0.00    +0.016 C 
ATOM     18  C   UNL     1      33.451 -15.741 -25.627  0.00  0.00    +0.064 C 
ATOM     19  H   UNL     1      34.061 -16.274 -23.766  0.00  0.00    +0.155 HD
ENDBRANCH   5  14
BRANCH   7  22
ATOM     20  N   UNL     1      32.019  -5.690 -21.657  0.00  0.00    -0.345 N 
ATOM     21  N   UNL     1      32.468  -7.100 -19.874  0.00  0.00    -0.387 N 
ATOM     22  C   UNL     1      32.505  -6.854 -21.194  0.00  0.00    +0.096 C 
ATOM     23  H   UNL     1      31.640  -5.032 -21.032  0.00  0.00    +0.144 HD
ATOM     24  H   UNL     1      32.041  -5.497 -22.622  0.00  0.00    +0.144 HD
ATOM     25  H   UNL     1      32.086  -6.433 -19.260  0.00  0.00    +0.157 HD
ATOM     26  H   UNL     1      32.822  -7.947 -19.521  0.00  0.00    +0.157 HD
ENDBRANCH   7  22
TORSDOF 2
ENDMDL
MODEL 6
REMARK VINA RESULT:      -9.3      2.309      7.596
REMARK  Name = 1509
REMARK  2 active torsions:
REMARK  status: ('A' for Active; 'I' for Inactive)
REMARK    1  A    between atoms: C_5  and  C_14
REMARK    2  A    between atoms: C_7  and  C_22
REMARK                            x       y       z     vdW  Elec       q    Type
REMARK                         _______ _______ _______ _____ _____    ______ ____
ROOT
ATOM      1  N   UNL     1      35.900 -20.043 -20.218  0.00  0.00    -0.314 N 
ATOM      2  N   UNL     1      33.790 -20.650 -20.568  0.00  0.00    -0.314 N 
ATOM      3  C   UNL     1      35.618 -20.967 -19.245  0.00  0.00    +0.059 C 
ATOM      4  C   UNL     1      34.295 -21.330 -19.484  0.00  0.00    +0.059 C 
ATOM      5  C   UNL     1      34.778 -19.888 -20.983  0.00  0.00    +0.172 C 
ATOM      6  C   UNL     1      36.383 -21.498 -18.206  0.00  0.00    +0.018 C 
ATOM      7  C   UNL     1      35.759 -22.443 -17.384  0.00  0.00    +0.030 C 
ATOM      8  C   UNL     1      33.684 -22.280 -18.648  0.00  0.00    +0.016 C 
ATOM      9  C   UNL     1      34.433 -22.828 -17.599  0.00  0.00    +0.004 C 
ATOM     10  H   UNL     1      36.757 -19.576 -20.343  0.00  0.00    +0.149 HD
ATOM     11  H   UNL     1      32.885 -20.719 -20.949  0.00  0.00    +0.149 HD
ENDROOT
BRANCH   5  14
ATOM     12  O   UNL     1      35.247 -17.060 -20.679  0.00  0.00    -0.270 OA
ATOM     13  N   UNL     1      35.171 -16.701 -22.951  0.00  0.00    -0.280 N 
ATOM     14  C   UNL     1      34.848 -18.962 -22.070  0.00  0.00    +0.068 C 
ATOM     15  C   UNL     1      35.108 -17.500 -21.817  0.00  0.00    +0.249 C 
ATOM     16  C   UNL     1      34.689 -19.384 -23.337  0.00  0.00    +0.005 C 
ATOM     17  C   UNL     1      34.766 -18.470 -24.451  0.00  0.00    +0.016 C 
ATOM     18  C   UNL     1      35.003 -17.173 -24.227  0.00  0.00    +0.064 C 
ATOM     19  H   UNL     1      35.345 -15.740 -22.831  0.00  0.00    +0.155 HD
ENDBRANCH   5  14
BRANCH   7  22
ATOM     20  N   UNL     1      35.866 -23.729 -15.334  0.00  0.00    -0.345 N 
ATOM     21  N   UNL     1      37.835 -22.884 -16.217  0.00  0.00    -0.387 N 
ATOM     22  C   UNL     1      36.501 -23.031 -16.290  0.00  0.00    +0.096 C 
ATOM     23  H   UNL     1      36.378 -24.127 -14.594  0.00  0.00    +0.144 HD
ATOM     24  H   UNL     1      34.889 -23.843 -15.375  0.00  0.00    +0.144 HD
ATOM     25  H   UNL     1      38.334 -23.288 -15.471  0.00  0.00    +0.157 HD
ATOM     26  H   UNL     1      38.312 -22.374 -16.909  0.00  0.00    +0.157 HD
ENDBRANCH   7  22
TORSDOF 2
ENDMDL
MODEL 7
REMARK VINA RESULT:      -9.3      9.473     10.498
REMARK  Name = 1509
REMARK  2 active torsions:
REMARK  status: ('A' for Active; 'I' for Inactive)
REMARK    1  A    between atoms: C_5  and  C_14
REMARK    2  A    between atoms: C_7  and  C_22
REMARK                            x       y       z     vdW  Elec       q    Type
REMARK                         _______ _______ _______ _____ _____    ______ ____
ROOT
ATOM      1  N   UNL     1      32.923 -23.137 -14.582  0.00  0.00    -0.314 N 
ATOM      2  N   UNL     1      32.678 -25.151 -13.673  0.00  0.00    -0.314 N 
ATOM      3  C   UNL     1      31.625 -23.498 -14.835  0.00  0.00    +0.059 C 
ATOM      4  C   UNL     1      31.496 -24.758 -14.258  0.00  0.00    +0.059 C 
ATOM      5  C   UNL     1      33.511 -24.157 -13.886  0.00  0.00    +0.172 C 
ATOM      6  C   UNL     1      30.584 -22.848 -15.499  0.00  0.00    +0.018 C 
ATOM      7  C   UNL     1      29.362 -23.527 -15.569  0.00  0.00    +0.030 C 
ATOM      8  C   UNL     1      30.262 -25.426 -14.339  0.00  0.00    +0.016 C 
ATOM      9  C   UNL     1      29.202 -24.793 -15.001  0.00  0.00    +0.004 C 
ATOM     10  H   UNL     1      33.355 -22.295 -14.853  0.00  0.00    +0.149 HD
ATOM     11  H   UNL     1      32.861 -25.994 -13.200  0.00  0.00    +0.149 HD
ENDROOT
BRANCH   5  14
ATOM     12  O   UNL     1      35.704 -24.069 -15.756  0.00  0.00    -0.270 OA
ATOM     13  N   UNL     1      37.252 -23.766 -14.080  0.00  0.00    -0.280 N 
ATOM     14  C   UNL     1      34.881 -23.992 -13.513  0.00  0.00    +0.068 C 
ATOM     15  C   UNL     1      35.962 -23.946 -14.561  0.00  0.00    +0.249 C 
ATOM     16  C   UNL     1      35.225 -23.867 -12.219  0.00  0.00    +0.005 C 
ATOM     17  C   UNL     1      36.601 -23.689 -11.819  0.00  0.00    +0.016 C 
ATOM     18  C   UNL     1      37.559 -23.643 -12.750  0.00  0.00    +0.064 C 
ATOM     19  H   UNL     1      37.988 -23.724 -14.731  0.00  0.00    +0.155 HD
ENDBRANCH   5  14
BRANCH   7  22
ATOM     20  N   UNL     1      28.136 -22.968 -17.583  0.00  0.00    -0.345 N 
ATOM     21  N   UNL     1      27.301 -22.255 -15.543  0.00  0.00    -0.387 N 
ATOM     22  C   UNL     1      28.244 -22.905 -16.245  0.00  0.00    +0.096 C 
ATOM     23  H   UNL     1      27.373 -22.543 -18.035  0.00  0.00    +0.144 HD
ATOM     24  H   UNL     1      28.821 -23.440 -18.109  0.00  0.00    +0.144 HD
ATOM     25  H   UNL     1      26.543 -21.835 -16.009  0.00  0.00    +0.157 HD
ATOM     26  H   UNL     1      27.368 -22.199 -14.563  0.00  0.00    +0.157 HD
ENDBRANCH   7  22
TORSDOF 2
ENDMDL
MODEL 8
REMARK VINA RESULT:      -9.2      2.749      7.370
REMARK  Name = 1509
REMARK  2 active torsions:
REMARK  status: ('A' for Active; 'I' for Inactive)
REMARK    1  A    between atoms: C_5  and  C_14
REMARK    2  A    between atoms: C_7  and  C_22
REMARK                            x       y       z     vdW  Elec       q    Type
REMARK                         _______ _______ _______ _____ _____    ______ ____
ROOT
ATOM      1  N   UNL     1      34.147 -14.689 -22.092  0.00  0.00    -0.314 N 
ATOM      2  N   UNL     1      34.017 -15.080 -24.277  0.00  0.00    -0.314 N 
ATOM      3  C   UNL     1      34.492 -16.007 -22.249  0.00  0.00    +0.059 C 
ATOM      4  C   UNL     1      34.404 -16.227 -23.621  0.00  0.00    +0.059 C 
ATOM      5  C   UNL     1      33.873 -14.179 -23.331  0.00  0.00    +0.172 C 
ATOM      6  C   UNL     1      34.862 -16.995 -21.336  0.00  0.00    +0.018 C 
ATOM      7  C   UNL     1      35.153 -18.259 -21.860  0.00  0.00    +0.030 C 
ATOM      8  C   UNL     1      34.699 -17.504 -24.130  0.00  0.00    +0.016 C 
ATOM      9  C   UNL     1      35.073 -18.511 -23.232  0.00  0.00    +0.004 C 
ATOM     10  H   UNL     1      34.105 -14.198 -21.240  0.00  0.00    +0.149 HD
ATOM     11  H   UNL     1      33.879 -14.962 -25.244  0.00  0.00    +0.149 HD
ENDROOT
BRANCH   5  14
ATOM     12  O   UNL     1      31.856 -12.967 -21.665  0.00  0.00    -0.270 OA
ATOM     13  N   UNL     1      32.152 -10.902 -22.636  0.00  0.00    -0.280 N 
ATOM     14  C   UNL     1      33.488 -12.805 -23.404  0.00  0.00    +0.068 C 
ATOM     15  C   UNL     1      32.430 -12.253 -22.484  0.00  0.00    +0.249 C 
ATOM     16  C   UNL     1      34.072 -11.979 -24.291  0.00  0.00    +0.005 C 
ATOM     17  C   UNL     1      33.707 -10.585 -24.376  0.00  0.00    +0.016 C 
ATOM     18  C   UNL     1      32.772 -10.095 -23.556  0.00  0.00    +0.064 C 
ATOM     19  H   UNL     1      31.471 -10.500 -22.052  0.00  0.00    +0.155 HD
ENDBRANCH   5  14
BRANCH   7  22
ATOM     20  N   UNL     1      36.790 -19.371 -20.464  0.00  0.00    -0.345 N 
ATOM     21  N   UNL     1      34.665 -20.281 -20.620  0.00  0.00    -0.387 N 
ATOM     22  C   UNL     1      35.544 -19.325 -20.963  0.00  0.00    +0.096 C 
ATOM     23  H   UNL     1      37.049 -20.098 -19.854  0.00  0.00    +0.144 HD
ATOM     24  H   UNL     1      37.444 -18.677 -20.708  0.00  0.00    +0.144 HD
ATOM     25  H   UNL     1      34.938 -21.003 -20.009  0.00  0.00    +0.157 HD
ATOM     26  H   UNL     1      33.750 -20.260 -20.979  0.00  0.00    +0.157 HD
ENDBRANCH   7  22
TORSDOF 2
ENDMDL
MODEL 9
REMARK VINA RESULT:      -9.2      3.603      7.982
REMARK  Name = 1509
REMARK  2 active torsions:
REMARK  status: ('A' for Active; 'I' for Inactive)
REMARK    1  A    between atoms: C_5  and  C_14
REMARK    2  A    between atoms: C_7  and  C_22
REMARK                            x       y       z     vdW  Elec       q    Type
REMARK                         _______ _______ _______ _____ _____    ______ ____
ROOT
ATOM      1  N   UNL     1      34.248 -13.467 -23.041  0.00  0.00    -0.314 N 
ATOM      2  N   UNL     1      33.281 -13.361 -25.040  0.00  0.00    -0.314 N 
ATOM      3  C   UNL     1      34.350 -14.730 -23.565  0.00  0.00    +0.059 C 
ATOM      4  C   UNL     1      33.740 -14.639 -24.813  0.00  0.00    +0.059 C 
ATOM      5  C   UNL     1      33.602 -12.686 -23.959  0.00  0.00    +0.172 C 
ATOM      6  C   UNL     1      34.908 -15.908 -23.068  0.00  0.00    +0.018 C 
ATOM      7  C   UNL     1      34.833 -17.036 -23.893  0.00  0.00    +0.030 C 
ATOM      8  C   UNL     1      33.673 -15.782 -25.628  0.00  0.00    +0.016 C 
ATOM      9  C   UNL     1      34.226 -16.976 -25.150  0.00  0.00    +0.004 C 
ATOM     10  H   UNL     1      34.579 -13.174 -22.162  0.00  0.00    +0.149 HD
ATOM     11  H   UNL     1      32.813 -13.027 -25.839  0.00  0.00    +0.149 HD
ENDROOT
BRANCH   5  14
ATOM     12  O   UNL     1      31.536 -11.766 -22.170  0.00  0.00    -0.270 OA
ATOM     13  N   UNL     1      32.182  -9.569 -22.395  0.00  0.00    -0.280 N 
ATOM     14  C   UNL     1      33.385 -11.315 -23.617  0.00  0.00    +0.068 C 
ATOM     15  C   UNL     1      32.286 -10.926 -22.663  0.00  0.00    +0.249 C 
ATOM     16  C   UNL     1      34.165 -10.351 -24.137  0.00  0.00    +0.005 C 
ATOM     17  C   UNL     1      33.971  -8.961 -23.799  0.00  0.00    +0.016 C 
ATOM     18  C   UNL     1      32.999  -8.617 -22.948  0.00  0.00    +0.064 C 
ATOM     19  H   UNL     1      31.480  -9.271 -21.772  0.00  0.00    +0.155 HD
ENDBRANCH   5  14
BRANCH   7  22
ATOM     20  N   UNL     1      36.510 -18.300 -22.686  0.00  0.00    -0.345 N 
ATOM     21  N   UNL     1      34.807 -19.454 -23.749  0.00  0.00    -0.387 N 
ATOM     22  C   UNL     1      35.394 -18.288 -23.433  0.00  0.00    +0.096 C 
ATOM     23  H   UNL     1      36.887 -19.154 -22.376  0.00  0.00    +0.144 HD
ATOM     24  H   UNL     1      36.952 -17.452 -22.447  0.00  0.00    +0.144 HD
ATOM     25  H   UNL     1      35.194 -20.302 -23.433  0.00  0.00    +0.157 HD
ATOM     26  H   UNL     1      33.990 -19.461 -24.298  0.00  0.00    +0.157 HD
ENDBRANCH   7  22
TORSDOF 2
ENDMDL
