MODEL 1
REMARK VINA RESULT:      -9.5      0.000      0.000
REMARK  Name = 121293929
REMARK  4 active torsions:
REMARK  status: ('A' for Active; 'I' for Inactive)
REMARK    1  A    between atoms: C_3  and  N_14
REMARK    2  A    between atoms: C_9  and  C_29
REMARK    3  A    between atoms: C_15  and  N_21
REMARK    4  A    between atoms: C_22  and  C_24
REMARK                            x       y       z     vdW  Elec       q    Type
REMARK                         _______ _______ _______ _____ _____    ______ ____
ROOT
ATOM      1  F   UNL     1      32.007 -14.833 -21.462  0.00  0.00    -0.203 F 
ATOM      2  N   UNL     1      32.935  -9.597 -22.703  0.00  0.00    -0.357 N 
ATOM      3  C   UNL     1      32.907 -13.150 -22.875  0.00  0.00    +0.077 C 
ATOM      4  C   UNL     1      33.108 -11.779 -23.131  0.00  0.00    +0.028 A 
ATOM      5  C   UNL     1      32.606 -10.844 -22.224  0.00  0.00    +0.062 A 
ATOM      6  C   UNL     1      33.751 -11.049 -24.171  0.00  0.00    -0.008 A 
ATOM      7  C   UNL     1      32.210 -13.534 -21.723  0.00  0.00    +0.154 C 
ATOM      8  C   UNL     1      33.627  -9.710 -23.880  0.00  0.00    +0.030 A 
ATOM      9  C   UNL     1      31.909 -11.213 -21.069  0.00  0.00    +0.071 C 
ATOM     10  C   UNL     1      31.720 -12.579 -20.835  0.00  0.00    +0.037 C 
ATOM     11  C   UNL     1      34.432 -11.612 -25.356  0.00  0.00    +0.032 C 
ATOM     12  C   UNL     1      34.098  -8.514 -24.601  0.00  0.00    +0.049 C 
ATOM     13  H   UNL     1      32.707  -8.746 -22.264  0.00  0.00    +0.166 HD
ENDROOT
BRANCH   3  14
ATOM     14  N   UNL     1      33.380 -14.142 -23.740  0.00  0.00    -0.304 N 
ATOM     15  C   UNL     1      34.964 -16.011 -24.098  0.00  0.00    +0.092 C 
ATOM     16  C   UNL     1      34.773 -14.586 -23.567  0.00  0.00    +0.110 C 
ATOM     17  C   UNL     1      34.431 -16.152 -25.525  0.00  0.00    +0.023 C 
ATOM     18  C   UNL     1      32.829 -14.244 -25.095  0.00  0.00    +0.091 C 
ATOM     19  C   UNL     1      32.988 -15.665 -25.633  0.00  0.00    +0.023 C 
BRANCH  15  21
ATOM     20  O   UNL     1      36.276 -18.085 -22.531  0.00  0.00    -0.261 OA
ATOM     21  N   UNL     1      34.345 -16.975 -23.215  0.00  0.00    -0.294 N 
ATOM     22  C   UNL     1      35.061 -17.924 -22.514  0.00  0.00    +0.289 C 
ATOM     23  H   UNL     1      33.367 -16.955 -23.110  0.00  0.00    +0.150 HD
BRANCH  22  24
ATOM     24  C   UNL     1      34.258 -18.795 -21.686  0.00  0.00    -0.007 C 
ATOM     25  C   UNL     1      33.593 -19.519 -20.997  0.00  0.00    -0.081 C 
ATOM     26  C   UNL     1      32.781 -20.402 -20.159  0.00  0.00    +0.090 C 
ENDBRANCH  22  24
ENDBRANCH  15  21
ENDBRANCH   3  14
BRANCH   9  29
ATOM     27  O   UNL     1      31.577  -9.008 -20.312  0.00  0.00    -0.270 OA
ATOM     28  N   UNL     1      30.666 -10.684 -19.040  0.00  0.00    -0.325 N 
ATOM     29  C   UNL     1      31.394 -10.227 -20.136  0.00  0.00    +0.244 C 
ATOM     30  H   UNL     1      30.303 -10.043 -18.387  0.00  0.00    +0.145 HD
ATOM     31  H   UNL     1      30.516 -11.649 -18.917  0.00  0.00    +0.145 HD
ENDBRANCH   9  29
TORSDOF 4
ENDMDL
MODEL 2
REMARK VINA RESULT:      -8.2      1.879      2.671
REMARK  Name = 121293929
REMARK  4 active torsions:
REMARK  status: ('A' for Active; 'I' for Inactive)
REMARK    1  A    between atoms: C_3  and  N_14
REMARK    2  A    between atoms: C_9  and  C_29
REMARK    3  A    between atoms: C_15  and  N_21
REMARK    4  A    between atoms: C_22  and  C_24
REMARK                            x       y       z     vdW  Elec       q    Type
REMARK                         _______ _______ _______ _____ _____    ______ ____
ROOT
ATOM      1  F   UNL     1      33.024 -16.885 -20.687  0.00  0.00    -0.203 F 
ATOM      2  N   UNL     1      32.906 -12.171 -23.444  0.00  0.00    -0.357 N 
ATOM      3  C   UNL     1      33.536 -15.569 -22.597  0.00  0.00    +0.077 C 
ATOM      4  C   UNL     1      33.466 -14.322 -23.249  0.00  0.00    +0.028 A 
ATOM      5  C   UNL     1      32.836 -13.258 -22.601  0.00  0.00    +0.062 A 
ATOM      6  C   UNL     1      33.919 -13.835 -24.509  0.00  0.00    -0.008 A 
ATOM      7  C   UNL     1      32.970 -15.706 -21.324  0.00  0.00    +0.154 C 
ATOM      8  C   UNL     1      33.558 -12.511 -24.599  0.00  0.00    +0.030 A 
ATOM      9  C   UNL     1      32.267 -13.380 -21.329  0.00  0.00    +0.071 C 
ATOM     10  C   UNL     1      32.346 -14.626 -20.701  0.00  0.00    +0.037 C 
ATOM     11  C   UNL     1      34.645 -14.601 -25.543  0.00  0.00    +0.032 C 
ATOM     12  C   UNL     1      33.768 -11.520 -25.671  0.00  0.00    +0.049 C 
ATOM     13  H   UNL     1      32.540 -11.279 -23.244  0.00  0.00    +0.166 HD
ENDROOT
BRANCH   3  14
ATOM     14  N   UNL     1      34.151 -16.679 -23.186  0.00  0.00    -0.304 N 
ATOM     15  C   UNL     1      35.771 -18.534 -22.943  0.00  0.00    +0.092 C 
ATOM     16  C   UNL     1      35.492 -17.046 -22.705  0.00  0.00    +0.110 C 
ATOM     17  C   UNL     1      35.493 -18.930 -24.393  0.00  0.00    +0.023 C 
ATOM     18  C   UNL     1      33.842 -17.025 -24.577  0.00  0.00    +0.091 C 
ATOM     19  C   UNL     1      34.091 -18.511 -24.827  0.00  0.00    +0.023 C 
BRANCH  15  21
ATOM     20  O   UNL     1      36.644 -19.625 -20.388  0.00  0.00    -0.261 OA
ATOM     21  N   UNL     1      35.010 -19.353 -22.025  0.00  0.00    -0.294 N 
ATOM     22  C   UNL     1      35.519 -19.823 -20.832  0.00  0.00    +0.289 C 
ATOM     23  H   UNL     1      34.084 -19.587 -22.264  0.00  0.00    +0.150 HD
BRANCH  22  24
ATOM     24  C   UNL     1      34.599 -20.624 -20.058  0.00  0.00    -0.007 C 
ATOM     25  C   UNL     1      33.836 -21.292 -19.415  0.00  0.00    -0.081 C 
ATOM     26  C   UNL     1      32.905 -22.105 -18.632  0.00  0.00    +0.090 C 
ENDBRANCH  22  24
ENDBRANCH  15  21
ENDBRANCH   3  14
BRANCH   9  29
ATOM     27  O   UNL     1      31.963 -11.880 -19.539  0.00  0.00    -0.270 OA
ATOM     28  N   UNL     1      30.591 -11.611 -21.356  0.00  0.00    -0.325 N 
ATOM     29  C   UNL     1      31.614 -12.262 -20.671  0.00  0.00    +0.244 C 
ATOM     30  H   UNL     1      30.126 -10.849 -20.939  0.00  0.00    +0.145 HD
ATOM     31  H   UNL     1      30.331 -11.913 -22.256  0.00  0.00    +0.145 HD
ENDBRANCH   9  29
TORSDOF 4
ENDMDL
MODEL 3
REMARK VINA RESULT:      -7.7     10.114     13.061
REMARK  Name = 121293929
REMARK  4 active torsions:
REMARK  status: ('A' for Active; 'I' for Inactive)
REMARK    1  A    between atoms: C_3  and  N_14
REMARK    2  A    between atoms: C_9  and  C_29
REMARK    3  A    between atoms: C_15  and  N_21
REMARK    4  A    between atoms: C_22  and  C_24
REMARK                            x       y       z     vdW  Elec       q    Type
REMARK                         _______ _______ _______ _____ _____    ______ ____
ROOT
ATOM      1  F   UNL     1      31.351 -22.462 -18.248  0.00  0.00    -0.203 F 
ATOM      2  N   UNL     1      36.228 -23.049 -15.860  0.00  0.00    -0.357 N 
ATOM      3  C   UNL     1      32.719 -23.157 -16.434  0.00  0.00    +0.077 C 
ATOM      4  C   UNL     1      34.009 -23.277 -15.881  0.00  0.00    +0.028 A 
ATOM      5  C   UNL     1      35.102 -22.817 -16.617  0.00  0.00    +0.062 A 
ATOM      6  C   UNL     1      34.517 -23.791 -14.655  0.00  0.00    -0.008 A 
ATOM      7  C   UNL     1      32.570 -22.584 -17.702  0.00  0.00    +0.154 C 
ATOM      8  C   UNL     1      35.884 -23.638 -14.672  0.00  0.00    +0.030 A 
ATOM      9  C   UNL     1      34.969 -22.242 -17.886  0.00  0.00    +0.071 C 
ATOM     10  C   UNL     1      33.680 -22.134 -18.416  0.00  0.00    +0.037 C 
ATOM     11  C   UNL     1      33.733 -24.387 -13.552  0.00  0.00    +0.032 C 
ATOM     12  C   UNL     1      36.912 -23.991 -13.675  0.00  0.00    +0.049 C 
ATOM     13  H   UNL     1      37.147 -22.824 -16.133  0.00  0.00    +0.166 HD
ENDROOT
BRANCH   3  14
ATOM     14  N   UNL     1      31.577 -23.597 -15.755  0.00  0.00    -0.304 N 
ATOM     15  C   UNL     1      29.455 -22.987 -14.636  0.00  0.00    +0.092 C 
ATOM     16  C   UNL     1      30.941 -22.657 -14.818  0.00  0.00    +0.110 C 
ATOM     17  C   UNL     1      29.248 -24.461 -14.286  0.00  0.00    +0.023 C 
ATOM     18  C   UNL     1      31.420 -25.023 -15.452  0.00  0.00    +0.091 C 
ATOM     19  C   UNL     1      29.943 -25.376 -15.291  0.00  0.00    +0.023 C 
BRANCH  15  21
ATOM     20  O   UNL     1      26.634 -22.285 -14.793  0.00  0.00    -0.261 OA
ATOM     21  N   UNL     1      28.700 -22.622 -15.815  0.00  0.00    -0.294 N 
ATOM     22  C   UNL     1      27.357 -22.306 -15.782  0.00  0.00    +0.289 C 
ATOM     23  H   UNL     1      29.166 -22.600 -16.681  0.00  0.00    +0.150 HD
BRANCH  22  24
ATOM     24  C   UNL     1      26.786 -21.969 -17.066  0.00  0.00    -0.007 C 
ATOM     25  C   UNL     1      26.310 -21.688 -18.133  0.00  0.00    -0.081 C 
ATOM     26  C   UNL     1      25.731 -21.348 -19.431  0.00  0.00    +0.090 C 
ENDBRANCH  22  24
ENDBRANCH  15  21
ENDBRANCH   3  14
BRANCH   9  29
ATOM     27  O   UNL     1      37.138 -21.342 -18.065  0.00  0.00    -0.270 OA
ATOM     28  N   UNL     1      36.055 -21.825 -20.028  0.00  0.00    -0.325 N 
ATOM     29  C   UNL     1      36.118 -21.769 -18.637  0.00  0.00    +0.244 C 
ATOM     30  H   UNL     1      36.815 -21.512 -20.568  0.00  0.00    +0.145 HD
ATOM     31  H   UNL     1      35.248 -22.176 -20.470  0.00  0.00    +0.145 HD
ENDBRANCH   9  29
TORSDOF 4
ENDMDL
MODEL 4
REMARK VINA RESULT:      -7.5      6.517     12.002
REMARK  Name = 121293929
REMARK  4 active torsions:
REMARK  status: ('A' for Active; 'I' for Inactive)
REMARK    1  A    between atoms: C_3  and  N_14
REMARK    2  A    between atoms: C_9  and  C_29
REMARK    3  A    between atoms: C_15  and  N_21
REMARK    4  A    between atoms: C_22  and  C_24
REMARK                            x       y       z     vdW  Elec       q    Type
REMARK                         _______ _______ _______ _____ _____    ______ ____
ROOT
ATOM      1  F   UNL     1      32.206 -22.049 -18.360  0.00  0.00    -0.203 F 
ATOM      2  N   UNL     1      33.899 -24.533 -13.800  0.00  0.00    -0.357 N 
ATOM      3  C   UNL     1      33.929 -22.826 -16.922  0.00  0.00    +0.077 C 
ATOM      4  C   UNL     1      34.292 -23.477 -15.726  0.00  0.00    +0.028 A 
ATOM      5  C   UNL     1      33.282 -23.945 -14.882  0.00  0.00    +0.062 A 
ATOM      6  C   UNL     1      35.534 -23.805 -15.114  0.00  0.00    -0.008 A 
ATOM      7  C   UNL     1      32.572 -22.667 -17.228  0.00  0.00    +0.154 C 
ATOM      8  C   UNL     1      35.259 -24.452 -13.931  0.00  0.00    +0.030 A 
ATOM      9  C   UNL     1      31.923 -23.793 -15.175  0.00  0.00    +0.071 C 
ATOM     10  C   UNL     1      31.586 -23.144 -16.366  0.00  0.00    +0.037 C 
ATOM     11  C   UNL     1      36.884 -23.510 -15.639  0.00  0.00    +0.032 C 
ATOM     12  C   UNL     1      36.155 -25.010 -12.900  0.00  0.00    +0.049 C 
ATOM     13  H   UNL     1      33.429 -24.950 -13.042  0.00  0.00    +0.166 HD
ENDROOT
BRANCH   3  14
ATOM     14  N   UNL     1      34.885 -22.330 -17.815  0.00  0.00    -0.304 N 
ATOM     15  C   UNL     1      35.404 -21.624 -20.129  0.00  0.00    +0.092 C 
ATOM     16  C   UNL     1      34.725 -22.669 -19.238  0.00  0.00    +0.110 C 
ATOM     17  C   UNL     1      36.852 -21.378 -19.700  0.00  0.00    +0.023 C 
ATOM     18  C   UNL     1      36.257 -22.101 -17.351  0.00  0.00    +0.091 C 
ATOM     19  C   UNL     1      36.943 -21.043 -18.213  0.00  0.00    +0.023 C 
BRANCH  15  21
ATOM     20  O   UNL     1      35.325 -19.607 -22.228  0.00  0.00    -0.261 OA
ATOM     21  N   UNL     1      34.650 -20.390 -20.141  0.00  0.00    -0.294 N 
ATOM     22  C   UNL     1      34.682 -19.496 -21.191  0.00  0.00    +0.289 C 
ATOM     23  H   UNL     1      34.087 -20.177 -19.361  0.00  0.00    +0.150 HD
BRANCH  22  24
ATOM     24  C   UNL     1      33.858 -18.323 -21.009  0.00  0.00    -0.007 C 
ATOM     25  C   UNL     1      33.173 -17.347 -20.861  0.00  0.00    -0.081 C 
ATOM     26  C   UNL     1      32.339 -16.159 -20.678  0.00  0.00    +0.090 C 
ENDBRANCH  22  24
ENDBRANCH  15  21
ENDBRANCH   3  14
BRANCH   9  29
ATOM     27  O   UNL     1      30.892 -24.017 -13.070  0.00  0.00    -0.270 OA
ATOM     28  N   UNL     1      29.870 -25.062 -14.836  0.00  0.00    -0.325 N 
ATOM     29  C   UNL     1      30.888 -24.287 -14.285  0.00  0.00    +0.244 C 
ATOM     30  H   UNL     1      29.152 -25.413 -14.262  0.00  0.00    +0.145 HD
ATOM     31  H   UNL     1      29.869 -25.259 -15.801  0.00  0.00    +0.145 HD
ENDBRANCH   9  29
TORSDOF 4
ENDMDL
MODEL 5
REMARK VINA RESULT:      -7.3      4.339      7.808
REMARK  Name = 121293929
REMARK  4 active torsions:
REMARK  status: ('A' for Active; 'I' for Inactive)
REMARK    1  A    between atoms: C_3  and  N_14
REMARK    2  A    between atoms: C_9  and  C_29
REMARK    3  A    between atoms: C_15  and  N_21
REMARK    4  A    between atoms: C_22  and  C_24
REMARK                            x       y       z     vdW  Elec       q    Type
REMARK                         _______ _______ _______ _____ _____    ______ ____
ROOT
ATOM      1  F   UNL     1      34.863  -8.384 -24.269  0.00  0.00    -0.203 F 
ATOM      2  N   UNL     1      32.378  -3.768 -25.802  0.00  0.00    -0.357 N 
ATOM      3  C   UNL     1      33.177  -6.732 -24.003  0.00  0.00    +0.077 C 
ATOM      4  C   UNL     1      32.588  -5.534 -24.456  0.00  0.00    +0.028 A 
ATOM      5  C   UNL     1      33.130  -4.899 -25.575  0.00  0.00    +0.062 A 
ATOM      6  C   UNL     1      31.485  -4.747 -24.021  0.00  0.00    -0.008 A 
ATOM      7  C   UNL     1      34.286  -7.247 -24.685  0.00  0.00    +0.154 C 
ATOM      8  C   UNL     1      31.382  -3.667 -24.868  0.00  0.00    +0.030 A 
ATOM      9  C   UNL     1      34.237  -5.402 -26.266  0.00  0.00    +0.071 C 
ATOM     10  C   UNL     1      34.806  -6.590 -25.799  0.00  0.00    +0.037 C 
ATOM     11  C   UNL     1      30.600  -5.023 -22.869  0.00  0.00    +0.032 C 
ATOM     12  C   UNL     1      30.432  -2.539 -24.890  0.00  0.00    +0.049 C 
ATOM     13  H   UNL     1      32.534  -3.125 -26.531  0.00  0.00    +0.166 HD
ENDROOT
BRANCH   3  14
ATOM     14  N   UNL     1      32.689  -7.422 -22.889  0.00  0.00    -0.304 N 
ATOM     15  C   UNL     1      31.227  -9.226 -22.033  0.00  0.00    +0.092 C 
ATOM     16  C   UNL     1      31.364  -8.051 -23.007  0.00  0.00    +0.110 C 
ATOM     17  C   UNL     1      31.606  -8.820 -20.608  0.00  0.00    +0.023 C 
ATOM     18  C   UNL     1      33.092  -7.001 -21.543  0.00  0.00    +0.091 C 
ATOM     19  C   UNL     1      32.985  -8.167 -20.563  0.00  0.00    +0.023 C 
BRANCH  15  21
ATOM     20  O   UNL     1      30.912 -12.021 -21.277  0.00  0.00    -0.261 OA
ATOM     21  N   UNL     1      32.014 -10.356 -22.478  0.00  0.00    -0.294 N 
ATOM     22  C   UNL     1      31.782 -11.649 -22.056  0.00  0.00    +0.289 C 
ATOM     23  H   UNL     1      32.750 -10.194 -23.110  0.00  0.00    +0.150 HD
BRANCH  22  24
ATOM     24  C   UNL     1      32.678 -12.635 -22.616  0.00  0.00    -0.007 C 
ATOM     25  C   UNL     1      33.422 -13.455 -23.083  0.00  0.00    -0.081 C 
ATOM     26  C   UNL     1      34.327 -14.454 -23.649  0.00  0.00    +0.090 C 
ENDBRANCH  22  24
ENDBRANCH  15  21
ENDBRANCH   3  14
BRANCH   9  29
ATOM     27  O   UNL     1      34.054  -4.143 -28.248  0.00  0.00    -0.270 OA
ATOM     28  N   UNL     1      36.170  -4.734 -27.591  0.00  0.00    -0.325 N 
ATOM     29  C   UNL     1      34.787  -4.727 -27.428  0.00  0.00    +0.244 C 
ATOM     30  H   UNL     1      36.577  -4.286 -28.368  0.00  0.00    +0.145 HD
ATOM     31  H   UNL     1      36.741  -5.187 -26.930  0.00  0.00    +0.145 HD
ENDBRANCH   9  29
TORSDOF 4
ENDMDL
MODEL 6
REMARK VINA RESULT:      -6.9      3.361      5.982
REMARK  Name = 121293929
REMARK  4 active torsions:
REMARK  status: ('A' for Active; 'I' for Inactive)
REMARK    1  A    between atoms: C_3  and  N_14
REMARK    2  A    between atoms: C_9  and  C_29
REMARK    3  A    between atoms: C_15  and  N_21
REMARK    4  A    between atoms: C_22  and  C_24
REMARK                            x       y       z     vdW  Elec       q    Type
REMARK                         _______ _______ _______ _____ _____    ______ ____
ROOT
ATOM      1  F   UNL     1      30.940  -6.755 -21.703  0.00  0.00    -0.203 F 
ATOM      2  N   UNL     1      34.607  -8.194 -25.486  0.00  0.00    -0.357 N 
ATOM      3  C   UNL     1      32.405  -8.339 -22.696  0.00  0.00    +0.077 C 
ATOM      4  C   UNL     1      33.344  -8.640 -23.702  0.00  0.00    +0.028 A 
ATOM      5  C   UNL     1      33.682  -7.648 -24.625  0.00  0.00    +0.062 A 
ATOM      6  C   UNL     1      34.099  -9.799 -24.038  0.00  0.00    -0.008 A 
ATOM      7  C   UNL     1      31.838  -7.060 -22.652  0.00  0.00    +0.154 C 
ATOM      8  C   UNL     1      34.865  -9.494 -25.140  0.00  0.00    +0.030 A 
ATOM      9  C   UNL     1      33.123  -6.366 -24.593  0.00  0.00    +0.071 C 
ATOM     10  C   UNL     1      32.193  -6.090 -23.587  0.00  0.00    +0.037 C 
ATOM     11  C   UNL     1      34.077 -11.102 -23.342  0.00  0.00    +0.032 C 
ATOM     12  C   UNL     1      35.826 -10.307 -25.908  0.00  0.00    +0.049 C 
ATOM     13  H   UNL     1      35.022  -7.719 -26.242  0.00  0.00    +0.166 HD
ENDROOT
BRANCH   3  14
ATOM     14  N   UNL     1      32.018  -9.283 -21.738  0.00  0.00    -0.304 N 
ATOM     15  C   UNL     1      30.834 -11.405 -21.265  0.00  0.00    +0.092 C 
ATOM     16  C   UNL     1      30.801 -10.065 -22.010  0.00  0.00    +0.110 C 
ATOM     17  C   UNL     1      31.139 -11.211 -19.779  0.00  0.00    +0.023 C 
ATOM     18  C   UNL     1      32.344  -9.057 -20.326  0.00  0.00    +0.091 C 
ATOM     19  C   UNL     1      32.405 -10.384 -19.572  0.00  0.00    +0.023 C 
BRANCH  15  21
ATOM     20  O   UNL     1      31.983 -13.820 -20.115  0.00  0.00    -0.261 OA
ATOM     21  N   UNL     1      31.783 -12.309 -21.876  0.00  0.00    -0.294 N 
ATOM     22  C   UNL     1      32.270 -13.434 -21.242  0.00  0.00    +0.289 C 
ATOM     23  H   UNL     1      32.098 -12.112 -22.788  0.00  0.00    +0.150 HD
BRANCH  22  24
ATOM     24  C   UNL     1      33.210 -14.206 -22.022  0.00  0.00    -0.007 C 
ATOM     25  C   UNL     1      33.989 -14.851 -22.669  0.00  0.00    -0.081 C 
ATOM     26  C   UNL     1      34.940 -15.634 -23.458  0.00  0.00    +0.090 C 
ENDBRANCH  22  24
ENDBRANCH  15  21
ENDBRANCH   3  14
BRANCH   9  29
ATOM     27  O   UNL     1      34.531  -5.433 -26.234  0.00  0.00    -0.270 OA
ATOM     28  N   UNL     1      32.618  -4.273 -25.734  0.00  0.00    -0.325 N 
ATOM     29  C   UNL     1      33.487  -5.348 -25.562  0.00  0.00    +0.244 C 
ATOM     30  H   UNL     1      32.833  -3.564 -26.382  0.00  0.00    +0.145 HD
ATOM     31  H   UNL     1      31.788  -4.222 -25.207  0.00  0.00    +0.145 HD
ENDBRANCH   9  29
TORSDOF 4
ENDMDL
MODEL 7
REMARK VINA RESULT:      -6.7      5.041      8.035
REMARK  Name = 121293929
REMARK  4 active torsions:
REMARK  status: ('A' for Active; 'I' for Inactive)
REMARK    1  A    between atoms: C_3  and  N_14
REMARK    2  A    between atoms: C_9  and  C_29
REMARK    3  A    between atoms: C_15  and  N_21
REMARK    4  A    between atoms: C_22  and  C_24
REMARK                            x       y       z     vdW  Elec       q    Type
REMARK                         _______ _______ _______ _____ _____    ______ ____
ROOT
ATOM      1  F   UNL     1      29.768  -5.461 -22.036  0.00  0.00    -0.203 F 
ATOM      2  N   UNL     1      32.958  -4.114 -26.260  0.00  0.00    -0.357 N 
ATOM      3  C   UNL     1      31.639  -5.848 -23.447  0.00  0.00    +0.077 C 
ATOM      4  C   UNL     1      32.416  -5.440 -24.550  0.00  0.00    +0.028 A 
ATOM      5  C   UNL     1      32.045  -4.286 -25.243  0.00  0.00    +0.062 A 
ATOM      6  C   UNL     1      33.582  -5.953 -25.184  0.00  0.00    -0.008 A 
ATOM      7  C   UNL     1      30.521  -5.089 -23.081  0.00  0.00    +0.154 C 
ATOM      8  C   UNL     1      33.890  -5.117 -26.232  0.00  0.00    +0.030 A 
ATOM      9  C   UNL     1      30.931  -3.518 -24.889  0.00  0.00    +0.071 C 
ATOM     10  C   UNL     1      30.175  -3.941 -23.793  0.00  0.00    +0.037 C 
ATOM     11  C   UNL     1      34.338  -7.164 -24.800  0.00  0.00    +0.032 C 
ATOM     12  C   UNL     1      34.984  -5.163 -27.221  0.00  0.00    +0.049 C 
ATOM     13  H   UNL     1      32.942  -3.377 -26.912  0.00  0.00    +0.166 HD
ENDROOT
BRANCH   3  14
ATOM     14  N   UNL     1      31.949  -6.993 -22.706  0.00  0.00    -0.304 N 
ATOM     15  C   UNL     1      31.741  -9.450 -22.486  0.00  0.00    +0.092 C 
ATOM     16  C   UNL     1      31.022  -8.134 -22.800  0.00  0.00    +0.110 C 
ATOM     17  C   UNL     1      32.506  -9.368 -21.164  0.00  0.00    +0.023 C 
ATOM     18  C   UNL     1      32.694  -6.863 -21.450  0.00  0.00    +0.091 C 
ATOM     19  C   UNL     1      33.437  -8.159 -21.132  0.00  0.00    +0.023 C 
BRANCH  15  21
ATOM     20  O   UNL     1      32.749 -12.108 -23.116  0.00  0.00    -0.261 OA
ATOM     21  N   UNL     1      32.620  -9.828 -23.572  0.00  0.00    -0.294 N 
ATOM     22  C   UNL     1      33.042 -11.124 -23.784  0.00  0.00    +0.289 C 
ATOM     23  H   UNL     1      32.932  -9.126 -24.187  0.00  0.00    +0.150 HD
BRANCH  22  24
ATOM     24  C   UNL     1      33.917 -11.294 -24.922  0.00  0.00    -0.007 C 
ATOM     25  C   UNL     1      34.642 -11.436 -25.869  0.00  0.00    -0.081 C 
ATOM     26  C   UNL     1      35.527 -11.610 -27.020  0.00  0.00    +0.090 C 
ENDBRANCH  22  24
ENDBRANCH  15  21
ENDBRANCH   3  14
BRANCH   9  29
ATOM     27  O   UNL     1      31.343  -1.786 -26.431  0.00  0.00    -0.270 OA
ATOM     28  N   UNL     1      29.290  -1.793 -25.410  0.00  0.00    -0.325 N 
ATOM     29  C   UNL     1      30.562  -2.321 -25.623  0.00  0.00    +0.244 C 
ATOM     30  H   UNL     1      29.007  -0.982 -25.890  0.00  0.00    +0.145 HD
ATOM     31  H   UNL     1      28.675  -2.231 -24.779  0.00  0.00    +0.145 HD
ENDBRANCH   9  29
TORSDOF 4
ENDMDL
MODEL 8
REMARK VINA RESULT:      -6.5      2.822      8.317
REMARK  Name = 121293929
REMARK  4 active torsions:
REMARK  status: ('A' for Active; 'I' for Inactive)
REMARK    1  A    between atoms: C_3  and  N_14
REMARK    2  A    between atoms: C_9  and  C_29
REMARK    3  A    between atoms: C_15  and  N_21
REMARK    4  A    between atoms: C_22  and  C_24
REMARK                            x       y       z     vdW  Elec       q    Type
REMARK                         _______ _______ _______ _____ _____    ______ ____
ROOT
ATOM      1  F   UNL     1      33.488 -10.708 -25.563  0.00  0.00    -0.203 F 
ATOM      2  N   UNL     1      33.013 -15.037 -22.267  0.00  0.00    -0.357 N 
ATOM      3  C   UNL     1      32.872 -11.701 -23.495  0.00  0.00    +0.077 C 
ATOM      4  C   UNL     1      32.778 -12.861 -22.702  0.00  0.00    +0.028 A 
ATOM      5  C   UNL     1      33.210 -14.077 -23.234  0.00  0.00    +0.062 A 
ATOM      6  C   UNL     1      32.315 -13.124 -21.381  0.00  0.00    -0.008 A 
ATOM      7  C   UNL     1      33.392 -11.800 -24.791  0.00  0.00    +0.154 C 
ATOM      8  C   UNL     1      32.471 -14.470 -21.144  0.00  0.00    +0.030 A 
ATOM      9  C   UNL     1      33.733 -14.192 -24.527  0.00  0.00    +0.071 C 
ATOM     10  C   UNL     1      33.815 -13.028 -25.297  0.00  0.00    +0.037 C 
ATOM     11  C   UNL     1      31.763 -12.141 -20.425  0.00  0.00    +0.032 C 
ATOM     12  C   UNL     1      32.162 -15.288 -19.956  0.00  0.00    +0.049 C 
ATOM     13  H   UNL     1      33.229 -15.992 -22.369  0.00  0.00    +0.166 HD
ENDROOT
BRANCH   3  14
ATOM     14  N   UNL     1      32.456 -10.449 -23.029  0.00  0.00    -0.304 N 
ATOM     15  C   UNL     1      33.116  -8.232 -22.146  0.00  0.00    +0.092 C 
ATOM     16  C   UNL     1      33.345  -9.746 -22.088  0.00  0.00    +0.110 C 
ATOM     17  C   UNL     1      31.634  -7.884 -21.992  0.00  0.00    +0.023 C 
ATOM     18  C   UNL     1      31.024 -10.160 -22.909  0.00  0.00    +0.091 C 
ATOM     19  C   UNL     1      30.773  -8.655 -22.989  0.00  0.00    +0.023 C 
BRANCH  15  21
ATOM     20  O   UNL     1      32.477  -5.667 -23.367  0.00  0.00    -0.261 OA
ATOM     21  N   UNL     1      33.655  -7.677 -23.368  0.00  0.00    -0.294 N 
ATOM     22  C   UNL     1      33.283  -6.445 -23.865  0.00  0.00    +0.289 C 
ATOM     23  H   UNL     1      34.317  -8.205 -23.870  0.00  0.00    +0.150 HD
BRANCH  22  24
ATOM     24  C   UNL     1      33.936  -6.071 -25.099  0.00  0.00    -0.007 C 
ATOM     25  C   UNL     1      34.479  -5.757 -26.124  0.00  0.00    -0.081 C 
ATOM     26  C   UNL     1      35.139  -5.378 -27.372  0.00  0.00    +0.090 C 
ENDBRANCH  22  24
ENDBRANCH  15  21
ENDBRANCH   3  14
BRANCH   9  29
ATOM     27  O   UNL     1      33.739 -15.904 -26.143  0.00  0.00    -0.270 OA
ATOM     28  N   UNL     1      35.130 -16.179 -24.341  0.00  0.00    -0.325 N 
ATOM     29  C   UNL     1      34.177 -15.465 -25.064  0.00  0.00    +0.244 C 
ATOM     30  H   UNL     1      35.453 -17.047 -24.675  0.00  0.00    +0.145 HD
ATOM     31  H   UNL     1      35.479 -15.817 -23.495  0.00  0.00    +0.145 HD
ENDBRANCH   9  29
TORSDOF 4
ENDMDL
MODEL 9
REMARK VINA RESULT:      -6.5      2.153      7.400
REMARK  Name = 121293929
REMARK  4 active torsions:
REMARK  status: ('A' for Active; 'I' for Inactive)
REMARK    1  A    between atoms: C_3  and  N_14
REMARK    2  A    between atoms: C_9  and  C_29
REMARK    3  A    between atoms: C_15  and  N_21
REMARK    4  A    between atoms: C_22  and  C_24
REMARK                            x       y       z     vdW  Elec       q    Type
REMARK                         _______ _______ _______ _____ _____    ______ ____
ROOT
ATOM      1  F   UNL     1      32.403 -14.666 -19.804  0.00  0.00    -0.203 F 
ATOM      2  N   UNL     1      34.196 -13.590 -24.849  0.00  0.00    -0.357 N 
ATOM      3  C   UNL     1      32.719 -13.190 -21.637  0.00  0.00    +0.077 C 
ATOM      4  C   UNL     1      33.207 -12.985 -22.943  0.00  0.00    +0.028 A 
ATOM      5  C   UNL     1      33.815 -14.051 -23.609  0.00  0.00    +0.062 A 
ATOM      6  C   UNL     1      33.234 -11.869 -23.827  0.00  0.00    -0.008 A 
ATOM      7  C   UNL     1      32.859 -14.450 -21.046  0.00  0.00    +0.154 C 
ATOM      8  C   UNL     1      33.850 -12.272 -24.990  0.00  0.00    +0.030 A 
ATOM      9  C   UNL     1      33.962 -15.316 -23.031  0.00  0.00    +0.071 C 
ATOM     10  C   UNL     1      33.472 -15.496 -21.734  0.00  0.00    +0.037 C 
ATOM     11  C   UNL     1      32.704 -10.516 -23.560  0.00  0.00    +0.032 C 
ATOM     12  C   UNL     1      34.147 -11.538 -26.234  0.00  0.00    +0.049 C 
ATOM     13  H   UNL     1      34.651 -14.129 -25.535  0.00  0.00    +0.166 HD
ENDROOT
BRANCH   3  14
ATOM     14  N   UNL     1      32.099 -12.168 -20.909  0.00  0.00    -0.304 N 
ATOM     15  C   UNL     1      32.339  -9.987 -19.765  0.00  0.00    +0.092 C 
ATOM     16  C   UNL     1      32.942 -11.376 -19.999  0.00  0.00    +0.110 C 
ATOM     17  C   UNL     1      30.872 -10.078 -19.343  0.00  0.00    +0.023 C 
ATOM     18  C   UNL     1      30.686 -12.297 -20.540  0.00  0.00    +0.091 C 
ATOM     19  C   UNL     1      30.061 -10.920 -20.325  0.00  0.00    +0.023 C 
BRANCH  15  21
ATOM     20  O   UNL     1      32.734  -7.104 -19.862  0.00  0.00    -0.261 OA
ATOM     21  N   UNL     1      32.492  -9.155 -20.938  0.00  0.00    -0.294 N 
ATOM     22  C   UNL     1      32.675  -7.789 -20.876  0.00  0.00    +0.289 C 
ATOM     23  H   UNL     1      32.463  -9.584 -21.823  0.00  0.00    +0.150 HD
BRANCH  22  24
ATOM     24  C   UNL     1      32.806  -7.140 -22.160  0.00  0.00    -0.007 C 
ATOM     25  C   UNL     1      32.913  -6.599 -23.227  0.00  0.00    -0.081 C 
ATOM     26  C   UNL     1      33.045  -5.942 -24.527  0.00  0.00    +0.090 C 
ENDBRANCH  22  24
ENDBRANCH  15  21
ENDBRANCH   3  14
BRANCH   9  29
ATOM     27  O   UNL     1      34.219 -16.762 -24.872  0.00  0.00    -0.270 OA
ATOM     28  N   UNL     1      35.666 -17.056 -23.118  0.00  0.00    -0.325 N 
ATOM     29  C   UNL     1      34.598 -16.412 -23.739  0.00  0.00    +0.244 C 
ATOM     30  H   UNL     1      36.120 -17.804 -23.569  0.00  0.00    +0.145 HD
ATOM     31  H   UNL     1      35.966 -16.764 -22.227  0.00  0.00    +0.145 HD
ENDBRANCH   9  29
TORSDOF 4
ENDMDL
