MODEL 1
REMARK VINA RESULT:      -8.9      0.000      0.000
REMARK  Name = 11300765
REMARK  2 active torsions:
REMARK  status: ('A' for Active; 'I' for Inactive)
REMARK    1  A    between atoms: C_11  and  O_20
REMARK    2  A    between atoms: C_18  and  O_22
REMARK                            x       y       z     vdW  Elec       q    Type
REMARK                         _______ _______ _______ _____ _____    ______ ____
ROOT
ATOM      1  C   UNL     1      33.940 -23.312 -15.436  0.00  0.00    +0.000 C 
ATOM      2  C   UNL     1      32.522 -23.637 -15.915  0.00  0.00    +0.002 C 
ATOM      3  C   UNL     1      34.473 -24.525 -14.596  0.00  0.00    +0.004 C 
ATOM      4  C   UNL     1      31.541 -23.883 -14.752  0.00  0.00    +0.025 C 
ATOM      5  C   UNL     1      35.952 -24.283 -14.114  0.00  0.00    +0.018 C 
ATOM      6  C   UNL     1      33.476 -24.921 -13.471  0.00  0.00    +0.000 C 
ATOM      7  C   UNL     1      32.030 -25.107 -13.969  0.00  0.00    +0.002 C 
ATOM      8  C   UNL     1      36.807 -24.018 -15.401  0.00  0.00    +0.006 C 
ATOM      9  C   UNL     1      34.867 -22.984 -16.615  0.00  0.00    +0.000 C 
ATOM     10  C   UNL     1      31.783 -22.631 -16.795  0.00  0.00    +0.003 C 
ATOM     11  C   UNL     1      30.247 -24.107 -15.558  0.00  0.00    +0.110 C 
ATOM     12  C   UNL     1      36.321 -22.798 -16.187  0.00  0.00    +0.000 C 
ATOM     13  C   UNL     1      30.303 -23.032 -16.661  0.00  0.00    +0.029 C 
ATOM     14  C   UNL     1      31.372 -22.684 -13.784  0.00  0.00    +0.002 C 
ATOM     15  C   UNL     1      38.306 -23.947 -15.089  0.00  0.00    +0.034 C 
ATOM     16  C   UNL     1      36.028 -23.114 -13.101  0.00  0.00    +0.004 C 
ATOM     17  C   UNL     1      36.543 -25.489 -13.393  0.00  0.00    -0.029 C 
ATOM     18  C   UNL     1      38.792 -25.273 -14.491  0.00  0.00    +0.132 C 
ATOM     19  C   UNL     1      37.805 -25.917 -13.562  0.00  0.00    -0.002 C 
ENDROOT
BRANCH  11  20
ATOM     20  O   UNL     1      29.078 -23.990 -14.771  0.00  0.00    -0.384 OA
ATOM     21  H   UNL     1      29.317 -23.685 -13.882  0.00  0.00    +0.210 HD
ENDBRANCH  11  20
BRANCH  18  22
ATOM     22  O   UNL     1      40.017 -25.028 -13.803  0.00  0.00    -0.380 OA
ATOM     23  H   UNL     1      40.068 -25.601 -13.022  0.00  0.00    +0.211 HD
ENDBRANCH  18  22
TORSDOF 2
ENDMDL
MODEL 2
REMARK VINA RESULT:      -8.9      3.565      6.137
REMARK  Name = 11300765
REMARK  2 active torsions:
REMARK  status: ('A' for Active; 'I' for Inactive)
REMARK    1  A    between atoms: C_11  and  O_20
REMARK    2  A    between atoms: C_18  and  O_22
REMARK                            x       y       z     vdW  Elec       q    Type
REMARK                         _______ _______ _______ _____ _____    ______ ____
ROOT
ATOM      1  C   UNL     1      35.755 -22.707 -16.877  0.00  0.00    +0.000 C 
ATOM      2  C   UNL     1      35.715 -22.861 -15.354  0.00  0.00    +0.002 C 
ATOM      3  C   UNL     1      34.362 -22.175 -17.363  0.00  0.00    +0.004 C 
ATOM      4  C   UNL     1      34.633 -23.852 -14.884  0.00  0.00    +0.025 C 
ATOM      5  C   UNL     1      34.348 -21.941 -18.920  0.00  0.00    +0.018 C 
ATOM      6  C   UNL     1      33.198 -23.053 -16.824  0.00  0.00    +0.000 C 
ATOM      7  C   UNL     1      33.267 -23.299 -15.305  0.00  0.00    +0.002 C 
ATOM      8  C   UNL     1      35.518 -20.946 -19.235  0.00  0.00    +0.006 C 
ATOM      9  C   UNL     1      36.902 -21.784 -17.316  0.00  0.00    +0.000 C 
ATOM     10  C   UNL     1      36.969 -23.328 -14.617  0.00  0.00    +0.003 C 
ATOM     11  C   UNL     1      34.903 -23.817 -13.367  0.00  0.00    +0.110 C 
ATOM     12  C   UNL     1      36.884 -21.493 -18.814  0.00  0.00    +0.000 C 
ATOM     13  C   UNL     1      36.440 -23.830 -13.262  0.00  0.00    +0.029 C 
ATOM     14  C   UNL     1      34.796 -25.294 -15.427  0.00  0.00    +0.002 C 
ATOM     15  C   UNL     1      35.502 -20.489 -20.698  0.00  0.00    +0.034 C 
ATOM     16  C   UNL     1      34.484 -23.278 -19.690  0.00  0.00    +0.004 C 
ATOM     17  C   UNL     1      33.048 -21.316 -19.411  0.00  0.00    -0.029 C 
ATOM     18  C   UNL     1      34.191 -19.759 -21.018  0.00  0.00    +0.132 C 
ATOM     19  C   UNL     1      32.987 -20.353 -20.346  0.00  0.00    -0.002 C 
ENDROOT
BRANCH  11  20
ATOM     20  O   UNL     1      34.322 -24.906 -12.677  0.00  0.00    -0.384 OA
ATOM     21  H   UNL     1      34.696 -24.960 -11.784  0.00  0.00    +0.210 HD
ENDBRANCH  11  20
BRANCH  18  22
ATOM     22  O   UNL     1      34.011 -19.768 -22.432  0.00  0.00    -0.380 OA
ATOM     23  H   UNL     1      34.644 -19.158 -22.842  0.00  0.00    +0.211 HD
ENDBRANCH  18  22
TORSDOF 2
ENDMDL
MODEL 3
REMARK VINA RESULT:      -7.6      1.391      6.457
REMARK  Name = 11300765
REMARK  2 active torsions:
REMARK  status: ('A' for Active; 'I' for Inactive)
REMARK    1  A    between atoms: C_11  and  O_20
REMARK    2  A    between atoms: C_18  and  O_22
REMARK                            x       y       z     vdW  Elec       q    Type
REMARK                         _______ _______ _______ _____ _____    ______ ____
ROOT
ATOM      1  C   UNL     1      33.973 -23.494 -15.837  0.00  0.00    +0.000 C 
ATOM      2  C   UNL     1      35.359 -23.063 -15.347  0.00  0.00    +0.002 C 
ATOM      3  C   UNL     1      32.957 -23.354 -14.651  0.00  0.00    +0.004 C 
ATOM      4  C   UNL     1      35.870 -23.923 -14.174  0.00  0.00    +0.025 C 
ATOM      5  C   UNL     1      31.496 -23.730 -15.099  0.00  0.00    +0.018 C 
ATOM      6  C   UNL     1      33.461 -24.092 -13.379  0.00  0.00    +0.000 C 
ATOM      7  C   UNL     1      34.909 -23.735 -12.994  0.00  0.00    +0.002 C 
ATOM      8  C   UNL     1      31.143 -22.798 -16.310  0.00  0.00    +0.006 C 
ATOM      9  C   UNL     1      33.535 -22.678 -17.063  0.00  0.00    +0.000 C 
ATOM     10  C   UNL     1      36.531 -23.066 -16.326  0.00  0.00    +0.003 C 
ATOM     11  C   UNL     1      37.259 -23.284 -13.982  0.00  0.00    +0.110 C 
ATOM     12  C   UNL     1      32.101 -22.981 -17.489  0.00  0.00    +0.000 C 
ATOM     13  C   UNL     1      37.775 -23.075 -15.419  0.00  0.00    +0.029 C 
ATOM     14  C   UNL     1      36.010 -25.433 -14.491  0.00  0.00    +0.002 C 
ATOM     15  C   UNL     1      29.675 -22.935 -16.729  0.00  0.00    +0.034 C 
ATOM     16  C   UNL     1      31.388 -25.233 -15.457  0.00  0.00    +0.004 C 
ATOM     17  C   UNL     1      30.463 -23.494 -14.004  0.00  0.00    -0.029 C 
ATOM     18  C   UNL     1      28.748 -22.540 -15.572  0.00  0.00    +0.132 C 
ATOM     19  C   UNL     1      29.245 -22.972 -14.223  0.00  0.00    -0.002 C 
ENDROOT
BRANCH  11  20
ATOM     20  O   UNL     1      38.137 -24.091 -13.222  0.00  0.00    -0.384 OA
ATOM     21  H   UNL     1      38.028 -25.019 -13.479  0.00  0.00    +0.210 HD
ENDBRANCH  11  20
BRANCH  18  22
ATOM     22  O   UNL     1      27.463 -23.105 -15.820  0.00  0.00    -0.380 OA
ATOM     23  H   UNL     1      26.974 -22.537 -16.435  0.00  0.00    +0.211 HD
ENDBRANCH  18  22
TORSDOF 2
ENDMDL
MODEL 4
REMARK VINA RESULT:      -7.4      1.300      2.751
REMARK  Name = 11300765
REMARK  2 active torsions:
REMARK  status: ('A' for Active; 'I' for Inactive)
REMARK    1  A    between atoms: C_11  and  O_20
REMARK    2  A    between atoms: C_18  and  O_22
REMARK                            x       y       z     vdW  Elec       q    Type
REMARK                         _______ _______ _______ _____ _____    ______ ____
ROOT
ATOM      1  C   UNL     1      32.891 -23.793 -14.388  0.00  0.00    +0.000 C 
ATOM      2  C   UNL     1      31.647 -22.984 -14.770  0.00  0.00    +0.002 C 
ATOM      3  C   UNL     1      34.071 -23.369 -15.331  0.00  0.00    +0.004 C 
ATOM      4  C   UNL     1      31.206 -23.221 -16.227  0.00  0.00    +0.025 C 
ATOM      5  C   UNL     1      35.401 -24.124 -14.959  0.00  0.00    +0.018 C 
ATOM      6  C   UNL     1      33.664 -23.460 -16.828  0.00  0.00    +0.000 C 
ATOM      7  C   UNL     1      32.336 -22.749 -17.149  0.00  0.00    +0.002 C 
ATOM      8  C   UNL     1      35.691 -23.810 -13.451  0.00  0.00    +0.006 C 
ATOM      9  C   UNL     1      33.248 -23.603 -12.907  0.00  0.00    +0.000 C 
ATOM     10  C   UNL     1      30.359 -23.176 -13.973  0.00  0.00    +0.003 C 
ATOM     11  C   UNL     1      29.942 -22.341 -16.252  0.00  0.00    +0.110 C 
ATOM     12  C   UNL     1      34.564 -24.278 -12.527  0.00  0.00    +0.000 C 
ATOM     13  C   UNL     1      29.260 -22.627 -14.900  0.00  0.00    +0.029 C 
ATOM     14  C   UNL     1      30.846 -24.691 -16.563  0.00  0.00    +0.002 C 
ATOM     15  C   UNL     1      37.060 -24.337 -13.009  0.00  0.00    +0.034 C 
ATOM     16  C   UNL     1      35.280 -25.644 -15.235  0.00  0.00    +0.004 C 
ATOM     17  C   UNL     1      36.596 -23.653 -15.779  0.00  0.00    -0.029 C 
ATOM     18  C   UNL     1      38.178 -23.681 -13.828  0.00  0.00    +0.132 C 
ATOM     19  C   UNL     1      37.825 -23.465 -15.271  0.00  0.00    -0.002 C 
ENDROOT
BRANCH  11  20
ATOM     20  O   UNL     1      29.088 -22.631 -17.342  0.00  0.00    -0.384 OA
ATOM     21  H   UNL     1      29.091 -21.886 -17.962  0.00  0.00    +0.210 HD
ENDBRANCH  11  20
BRANCH  18  22
ATOM     22  O   UNL     1      39.341 -24.500 -13.731  0.00  0.00    -0.380 OA
ATOM     23  H   UNL     1      39.185 -25.338 -14.194  0.00  0.00    +0.211 HD
ENDBRANCH  18  22
TORSDOF 2
ENDMDL
MODEL 5
REMARK VINA RESULT:      -7.1     19.731     21.881
REMARK  Name = 11300765
REMARK  2 active torsions:
REMARK  status: ('A' for Active; 'I' for Inactive)
REMARK    1  A    between atoms: C_11  and  O_20
REMARK    2  A    between atoms: C_18  and  O_22
REMARK                            x       y       z     vdW  Elec       q    Type
REMARK                         _______ _______ _______ _____ _____    ______ ____
ROOT
ATOM      1  C   UNL     1      32.063  -4.455 -25.162  0.00  0.00    +0.000 C 
ATOM      2  C   UNL     1      32.736  -3.417 -26.066  0.00  0.00    +0.002 C 
ATOM      3  C   UNL     1      33.158  -5.454 -24.649  0.00  0.00    +0.004 C 
ATOM      4  C   UNL     1      33.420  -4.050 -27.293  0.00  0.00    +0.025 C 
ATOM      5  C   UNL     1      32.545  -6.521 -23.667  0.00  0.00    +0.018 C 
ATOM      6  C   UNL     1      33.984  -6.047 -25.824  0.00  0.00    +0.000 C 
ATOM      7  C   UNL     1      34.531  -4.979 -26.791  0.00  0.00    +0.002 C 
ATOM      8  C   UNL     1      31.864  -5.722 -22.503  0.00  0.00    +0.006 C 
ATOM      9  C   UNL     1      31.315  -3.783 -24.001  0.00  0.00    +0.000 C 
ATOM     10  C   UNL     1      31.893  -2.295 -26.670  0.00  0.00    +0.003 C 
ATOM     11  C   UNL     1      33.917  -2.769 -27.991  0.00  0.00    +0.110 C 
ATOM     12  C   UNL     1      30.755  -4.791 -23.000  0.00  0.00    +0.000 C 
ATOM     13  C   UNL     1      32.738  -1.786 -27.851  0.00  0.00    +0.029 C 
ATOM     14  C   UNL     1      32.471  -4.840 -28.229  0.00  0.00    +0.002 C 
ATOM     15  C   UNL     1      31.384  -6.646 -21.378  0.00  0.00    +0.034 C 
ATOM     16  C   UNL     1      31.554  -7.457 -24.402  0.00  0.00    +0.004 C 
ATOM     17  C   UNL     1      33.600  -7.437 -23.058  0.00  0.00    -0.029 C 
ATOM     18  C   UNL     1      32.567  -7.408 -20.768  0.00  0.00    +0.132 C 
ATOM     19  C   UNL     1      33.599  -7.830 -21.774  0.00  0.00    -0.002 C 
ENDROOT
BRANCH  11  20
ATOM     20  O   UNL     1      34.267  -2.978 -29.346  0.00  0.00    -0.384 OA
ATOM     21  H   UNL     1      34.278  -3.930 -29.533  0.00  0.00    +0.210 HD
ENDBRANCH  11  20
BRANCH  18  22
ATOM     22  O   UNL     1      32.056  -8.552 -20.088  0.00  0.00    -0.380 OA
ATOM     23  H   UNL     1      31.521  -8.265 -19.332  0.00  0.00    +0.211 HD
ENDBRANCH  18  22
TORSDOF 2
ENDMDL
MODEL 6
REMARK VINA RESULT:      -7.1      1.160      6.759
REMARK  Name = 11300765
REMARK  2 active torsions:
REMARK  status: ('A' for Active; 'I' for Inactive)
REMARK    1  A    between atoms: C_11  and  O_20
REMARK    2  A    between atoms: C_18  and  O_22
REMARK                            x       y       z     vdW  Elec       q    Type
REMARK                         _______ _______ _______ _____ _____    ______ ____
ROOT
ATOM      1  C   UNL     1      33.682 -24.307 -14.253  0.00  0.00    +0.000 C 
ATOM      2  C   UNL     1      35.091 -24.811 -14.581  0.00  0.00    +0.002 C 
ATOM      3  C   UNL     1      33.020 -23.781 -15.574  0.00  0.00    +0.004 C 
ATOM      4  C   UNL     1      35.997 -23.710 -15.165  0.00  0.00    +0.025 C 
ATOM      5  C   UNL     1      31.544 -23.295 -15.322  0.00  0.00    +0.018 C 
ATOM      6  C   UNL     1      33.933 -22.751 -16.297  0.00  0.00    +0.000 C 
ATOM      7  C   UNL     1      35.381 -23.241 -16.488  0.00  0.00    +0.002 C 
ATOM      8  C   UNL     1      30.771 -24.509 -14.702  0.00  0.00    +0.006 C 
ATOM      9  C   UNL     1      32.836 -25.405 -13.590  0.00  0.00    +0.000 C 
ATOM     10  C   UNL     1      35.944 -25.419 -13.469  0.00  0.00    +0.003 C 
ATOM     11  C   UNL     1      37.304 -24.513 -15.311  0.00  0.00    +0.110 C 
ATOM     12  C   UNL     1      31.384 -24.983 -13.382  0.00  0.00    +0.000 C 
ATOM     13  C   UNL     1      37.381 -25.341 -14.015  0.00  0.00    +0.029 C 
ATOM     14  C   UNL     1      36.215 -22.490 -14.235  0.00  0.00    +0.002 C 
ATOM     15  C   UNL     1      29.269 -24.228 -14.576  0.00  0.00    +0.034 C 
ATOM     16  C   UNL     1      31.513 -22.044 -14.409  0.00  0.00    +0.004 C 
ATOM     17  C   UNL     1      30.831 -22.884 -16.605  0.00  0.00    -0.029 C 
ATOM     18  C   UNL     1      28.656 -23.961 -15.956  0.00  0.00    +0.132 C 
ATOM     19  C   UNL     1      29.549 -23.179 -16.875  0.00  0.00    -0.002 C 
ENDROOT
BRANCH  11  20
ATOM     20  O   UNL     1      38.443 -23.689 -15.475  0.00  0.00    -0.384 OA
ATOM     21  H   UNL     1      38.282 -22.829 -15.057  0.00  0.00    +0.210 HD
ENDBRANCH  11  20
BRANCH  18  22
ATOM     22  O   UNL     1      27.425 -23.268 -15.769  0.00  0.00    -0.380 OA
ATOM     23  H   UNL     1      27.559 -22.321 -15.935  0.00  0.00    +0.211 HD
ENDBRANCH  18  22
TORSDOF 2
ENDMDL
MODEL 7
REMARK VINA RESULT:      -7.0     13.747     15.893
REMARK  Name = 11300765
REMARK  2 active torsions:
REMARK  status: ('A' for Active; 'I' for Inactive)
REMARK    1  A    between atoms: C_11  and  O_20
REMARK    2  A    between atoms: C_18  and  O_22
REMARK                            x       y       z     vdW  Elec       q    Type
REMARK                         _______ _______ _______ _____ _____    ______ ____
ROOT
ATOM      1  C   UNL     1      32.085 -10.153 -21.749  0.00  0.00    +0.000 C 
ATOM      2  C   UNL     1      32.491  -8.677 -21.804  0.00  0.00    +0.002 C 
ATOM      3  C   UNL     1      33.163 -10.996 -22.515  0.00  0.00    +0.004 C 
ATOM      4  C   UNL     1      32.586  -8.138 -23.245  0.00  0.00    +0.025 C 
ATOM      5  C   UNL     1      32.838 -12.535 -22.453  0.00  0.00    +0.018 C 
ATOM      6  C   UNL     1      33.413 -10.438 -23.944  0.00  0.00    +0.000 C 
ATOM      7  C   UNL     1      33.684  -8.922 -23.973  0.00  0.00    +0.002 C 
ATOM      8  C   UNL     1      32.742 -12.914 -20.935  0.00  0.00    +0.006 C 
ATOM      9  C   UNL     1      31.911 -10.631 -20.300  0.00  0.00    +0.000 C 
ATOM     10  C   UNL     1      31.626  -7.638 -21.093  0.00  0.00    +0.003 C 
ATOM     11  C   UNL     1      32.936  -6.669 -22.940  0.00  0.00    +0.110 C 
ATOM     12  C   UNL     1      31.649 -12.132 -20.203  0.00  0.00    +0.000 C 
ATOM     13  C   UNL     1      32.024  -6.306 -21.753  0.00  0.00    +0.029 C 
ATOM     14  C   UNL     1      31.268  -8.221 -24.055  0.00  0.00    +0.002 C 
ATOM     15  C   UNL     1      32.610 -14.427 -20.729  0.00  0.00    +0.034 C 
ATOM     16  C   UNL     1      31.539 -12.866 -23.229  0.00  0.00    +0.004 C 
ATOM     17  C   UNL     1      33.925 -13.394 -23.088  0.00  0.00    -0.029 C 
ATOM     18  C   UNL     1      33.834 -15.155 -21.298  0.00  0.00    +0.132 C 
ATOM     19  C   UNL     1      34.357 -14.557 -22.573  0.00  0.00    -0.002 C 
ENDROOT
BRANCH  11  20
ATOM     20  O   UNL     1      32.727  -5.810 -24.045  0.00  0.00    -0.384 OA
ATOM     21  H   UNL     1      32.109  -5.106 -23.794  0.00  0.00    +0.210 HD
ENDBRANCH  11  20
BRANCH  18  22
ATOM     22  O   UNL     1      33.481 -16.519 -21.512  0.00  0.00    -0.380 OA
ATOM     23  H   UNL     1      33.278 -16.657 -22.451  0.00  0.00    +0.211 HD
ENDBRANCH  18  22
TORSDOF 2
ENDMDL
MODEL 8
REMARK VINA RESULT:      -6.8     14.861     17.339
REMARK  Name = 11300765
REMARK  2 active torsions:
REMARK  status: ('A' for Active; 'I' for Inactive)
REMARK    1  A    between atoms: C_11  and  O_20
REMARK    2  A    between atoms: C_18  and  O_22
REMARK                            x       y       z     vdW  Elec       q    Type
REMARK                         _______ _______ _______ _____ _____    ______ ____
ROOT
ATOM      1  C   UNL     1      32.504 -10.403 -21.901  0.00  0.00    +0.000 C 
ATOM      2  C   UNL     1      32.143 -11.851 -22.247  0.00  0.00    +0.002 C 
ATOM      3  C   UNL     1      32.301  -9.518 -23.180  0.00  0.00    +0.004 C 
ATOM      4  C   UNL     1      33.018 -12.430 -23.376  0.00  0.00    +0.025 C 
ATOM      5  C   UNL     1      32.603  -8.002 -22.882  0.00  0.00    +0.018 C 
ATOM      6  C   UNL     1      33.053 -10.106 -24.405  0.00  0.00    +0.000 C 
ATOM      7  C   UNL     1      32.769 -11.601 -24.642  0.00  0.00    +0.002 C 
ATOM      8  C   UNL     1      31.665  -7.580 -21.699  0.00  0.00    +0.006 C 
ATOM      9  C   UNL     1      31.677  -9.889 -20.713  0.00  0.00    +0.000 C 
ATOM     10  C   UNL     1      32.215 -12.919 -21.158  0.00  0.00    +0.003 C 
ATOM     11  C   UNL     1      32.451 -13.863 -23.422  0.00  0.00    +0.110 C 
ATOM     12  C   UNL     1      31.907  -8.406 -20.434  0.00  0.00    +0.000 C 
ATOM     13  C   UNL     1      32.282 -14.244 -21.938  0.00  0.00    +0.029 C 
ATOM     14  C   UNL     1      34.536 -12.460 -23.068  0.00  0.00    +0.002 C 
ATOM     15  C   UNL     1      31.727  -6.072 -21.428  0.00  0.00    +0.034 C 
ATOM     16  C   UNL     1      34.102  -7.782 -22.557  0.00  0.00    +0.004 C 
ATOM     17  C   UNL     1      32.304  -7.096 -24.070  0.00  0.00    -0.029 C 
ATOM     18  C   UNL     1      31.275  -5.286 -22.665  0.00  0.00    +0.132 C 
ATOM     19  C   UNL     1      31.721  -5.891 -23.965  0.00  0.00    -0.002 C 
ENDROOT
BRANCH  11  20
ATOM     20  O   UNL     1      33.297 -14.769 -24.103  0.00  0.00    -0.384 OA
ATOM     21  H   UNL     1      34.135 -14.331 -24.317  0.00  0.00    +0.210 HD
ENDBRANCH  11  20
BRANCH  18  22
ATOM     22  O   UNL     1      31.774  -3.955 -22.553  0.00  0.00    -0.380 OA
ATOM     23  H   UNL     1      31.429  -3.549 -21.742  0.00  0.00    +0.211 HD
ENDBRANCH  18  22
TORSDOF 2
ENDMDL
MODEL 9
REMARK VINA RESULT:      -6.8     10.669     13.087
REMARK  Name = 11300765
REMARK  2 active torsions:
REMARK  status: ('A' for Active; 'I' for Inactive)
REMARK    1  A    between atoms: C_11  and  O_20
REMARK    2  A    between atoms: C_18  and  O_22
REMARK                            x       y       z     vdW  Elec       q    Type
REMARK                         _______ _______ _______ _____ _____    ______ ____
ROOT
ATOM      1  C   UNL     1      34.085 -16.573 -23.700  0.00  0.00    +0.000 C 
ATOM      2  C   UNL     1      34.945 -17.686 -23.092  0.00  0.00    +0.002 C 
ATOM      3  C   UNL     1      34.462 -15.216 -23.008  0.00  0.00    +0.004 C 
ATOM      4  C   UNL     1      34.729 -17.845 -21.575  0.00  0.00    +0.025 C 
ATOM      5  C   UNL     1      33.653 -14.014 -23.623  0.00  0.00    +0.018 C 
ATOM      6  C   UNL     1      34.391 -15.328 -21.460  0.00  0.00    +0.000 C 
ATOM      7  C   UNL     1      35.156 -16.539 -20.895  0.00  0.00    +0.002 C 
ATOM      8  C   UNL     1      33.952 -14.011 -25.162  0.00  0.00    +0.006 C 
ATOM      9  C   UNL     1      34.258 -16.503 -25.225  0.00  0.00    +0.000 C 
ATOM     10  C   UNL     1      34.805 -19.111 -23.623  0.00  0.00    +0.003 C 
ATOM     11  C   UNL     1      35.660 -19.044 -21.314  0.00  0.00    +0.110 C 
ATOM     12  C   UNL     1      33.528 -15.314 -25.845  0.00  0.00    +0.000 C 
ATOM     13  C   UNL     1      35.400 -19.986 -22.505  0.00  0.00    +0.029 C 
ATOM     14  C   UNL     1      33.276 -18.191 -21.161  0.00  0.00    +0.002 C 
ATOM     15  C   UNL     1      33.368 -12.776 -25.857  0.00  0.00    +0.034 C 
ATOM     16  C   UNL     1      32.140 -14.140 -23.314  0.00  0.00    +0.004 C 
ATOM     17  C   UNL     1      34.076 -12.665 -23.056  0.00  0.00    -0.029 C 
ATOM     18  C   UNL     1      33.980 -11.495 -25.276  0.00  0.00    +0.132 C 
ATOM     19  C   UNL     1      34.213 -11.552 -23.794  0.00  0.00    -0.002 C 
ENDROOT
BRANCH  11  20
ATOM     20  O   UNL     1      35.407 -19.681 -20.076  0.00  0.00    -0.384 OA
ATOM     21  H   UNL     1      34.523 -19.435 -19.761  0.00  0.00    +0.210 HD
ENDBRANCH  11  20
BRANCH  18  22
ATOM     22  O   UNL     1      33.114 -10.407 -25.589  0.00  0.00    -0.380 OA
ATOM     23  H   UNL     1      32.915 -10.416 -26.539  0.00  0.00    +0.211 HD
ENDBRANCH  18  22
TORSDOF 2
ENDMDL
