MODEL 1
REMARK VINA RESULT:      -9.4      0.000      0.000
REMARK  Name = 16750071
REMARK  4 active torsions:
REMARK  status: ('A' for Active; 'I' for Inactive)
REMARK    1  A    between atoms: N_1  and  C_10
REMARK    2  A    between atoms: C_7  and  C_17
REMARK    3  A    between atoms: C_17  and  C_18
REMARK    4  A    between atoms: C_21  and  O_24
REMARK                            x       y       z     vdW  Elec       q    Type
REMARK                         _______ _______ _______ _____ _____    ______ ____
ROOT
ATOM      1  N   UNL     1      34.434 -15.943 -22.173  0.00  0.00    -0.202 N 
ATOM      2  N   UNL     1      35.093 -16.765 -21.336  0.00  0.00    -0.185 NA
ATOM      3  N   UNL     1      33.661 -15.868 -24.466  0.00  0.00    -0.232 NA
ATOM      4  N   UNL     1      34.237 -17.905 -25.679  0.00  0.00    -0.234 NA
ATOM      5  C   UNL     1      34.274 -16.455 -23.426  0.00  0.00    +0.136 C 
ATOM      6  C   UNL     1      34.872 -17.703 -23.407  0.00  0.00    +0.146 C 
ATOM      7  C   UNL     1      35.357 -17.836 -22.093  0.00  0.00    +0.072 C 
ATOM      8  C   UNL     1      34.839 -18.438 -24.588  0.00  0.00    +0.111 C 
ATOM      9  C   UNL     1      33.694 -16.671 -25.552  0.00  0.00    +0.252 C 
ATOM     10  N   UNL     1      35.422 -19.715 -24.665  0.00  0.00    -0.346 N 
ATOM     11  H   UNL     1      35.389 -20.222 -25.509  0.00  0.00    +0.143 HD
ATOM     12  H   UNL     1      35.860 -20.105 -23.874  0.00  0.00    +0.143 HD
ENDROOT
BRANCH   1  13
ATOM     13  C   UNL     1      33.965 -14.617 -21.683  0.00  0.00    +0.081 C 
ATOM     14  C   UNL     1      34.785 -14.201 -20.442  0.00  0.00    +0.022 C 
ATOM     15  C   UNL     1      32.467 -14.697 -21.314  0.00  0.00    +0.022 C 
ATOM     16  C   UNL     1      34.111 -13.476 -22.720  0.00  0.00    +0.022 C 
ENDBRANCH   1  13
BRANCH   7  17
ATOM     17  C   UNL     1      36.085 -18.974 -21.504  0.00  0.00    +0.070 C 
BRANCH  17  18
ATOM     18  C   UNL     1      35.070 -19.838 -20.783  0.00  0.00    -0.013 C 
ATOM     19  C   UNL     1      35.497 -20.882 -19.964  0.00  0.00    +0.033 C 
ATOM     20  C   UNL     1      33.706 -19.588 -20.940  0.00  0.00    -0.004 C 
ATOM     21  C   UNL     1      34.562 -21.677 -19.301  0.00  0.00    +0.133 C 
ATOM     22  C   UNL     1      32.770 -20.384 -20.278  0.00  0.00    +0.003 C 
ATOM     23  C   UNL     1      33.199 -21.428 -19.458  0.00  0.00    +0.037 C 
BRANCH  21  24
ATOM     24  O   UNL     1      34.979 -22.696 -18.502  0.00  0.00    -0.506 OA
ATOM     25  H   UNL     1      34.376 -23.364 -18.240  0.00  0.00    +0.292 HD
ENDBRANCH  21  24
ENDBRANCH  17  18
ENDBRANCH   7  17
TORSDOF 4
ENDMDL
MODEL 2
REMARK VINA RESULT:      -9.2      5.544      9.103
REMARK  Name = 16750071
REMARK  4 active torsions:
REMARK  status: ('A' for Active; 'I' for Inactive)
REMARK    1  A    between atoms: N_1  and  C_10
REMARK    2  A    between atoms: C_7  and  C_17
REMARK    3  A    between atoms: C_17  and  C_18
REMARK    4  A    between atoms: C_21  and  O_24
REMARK                            x       y       z     vdW  Elec       q    Type
REMARK                         _______ _______ _______ _____ _____    ______ ____
ROOT
ATOM      1  N   UNL     1      34.888 -23.479 -15.803  0.00  0.00    -0.202 N 
ATOM      2  N   UNL     1      34.893 -23.255 -17.130  0.00  0.00    -0.185 NA
ATOM      3  N   UNL     1      33.332 -23.601 -13.952  0.00  0.00    -0.232 NA
ATOM      4  N   UNL     1      31.037 -23.199 -14.675  0.00  0.00    -0.234 NA
ATOM      5  C   UNL     1      33.646 -23.422 -15.245  0.00  0.00    +0.136 C 
ATOM      6  C   UNL     1      32.774 -23.140 -16.283  0.00  0.00    +0.146 C 
ATOM      7  C   UNL     1      33.603 -23.050 -17.416  0.00  0.00    +0.072 C 
ATOM      8  C   UNL     1      31.425 -23.030 -15.963  0.00  0.00    +0.111 C 
ATOM      9  C   UNL     1      32.001 -23.470 -13.763  0.00  0.00    +0.252 C 
ATOM     10  N   UNL     1      30.466 -22.745 -16.950  0.00  0.00    -0.346 N 
ATOM     11  H   UNL     1      29.514 -22.671 -16.706  0.00  0.00    +0.143 HD
ATOM     12  H   UNL     1      30.745 -22.621 -17.887  0.00  0.00    +0.143 HD
ENDROOT
BRANCH   1  13
ATOM     13  C   UNL     1      36.173 -23.753 -15.100  0.00  0.00    +0.081 C 
ATOM     14  C   UNL     1      37.334 -23.067 -15.851  0.00  0.00    +0.022 C 
ATOM     15  C   UNL     1      36.420 -25.276 -15.039  0.00  0.00    +0.022 C 
ATOM     16  C   UNL     1      36.213 -23.234 -13.641  0.00  0.00    +0.022 C 
ENDBRANCH   1  13
BRANCH   7  17
ATOM     17  C   UNL     1      33.209 -22.767 -18.809  0.00  0.00    +0.070 C 
BRANCH  17  18
ATOM     18  C   UNL     1      34.207 -21.772 -19.369  0.00  0.00    -0.013 C 
ATOM     19  C   UNL     1      33.762 -20.686 -20.120  0.00  0.00    +0.033 C 
ATOM     20  C   UNL     1      35.570 -21.945 -19.131  0.00  0.00    -0.004 C 
ATOM     21  C   UNL     1      34.681 -19.771 -20.635  0.00  0.00    +0.133 C 
ATOM     22  C   UNL     1      36.489 -21.030 -19.647  0.00  0.00    +0.003 C 
ATOM     23  C   UNL     1      36.044 -19.943 -20.399  0.00  0.00    +0.037 C 
BRANCH  21  24
ATOM     24  O   UNL     1      34.247 -18.711 -21.370  0.00  0.00    -0.506 OA
ATOM     25  H   UNL     1      33.609 -18.123 -21.014  0.00  0.00    +0.292 HD
ENDBRANCH  21  24
ENDBRANCH  17  18
ENDBRANCH   7  17
TORSDOF 4
ENDMDL
MODEL 3
REMARK VINA RESULT:      -9.0      6.144      9.186
REMARK  Name = 16750071
REMARK  4 active torsions:
REMARK  status: ('A' for Active; 'I' for Inactive)
REMARK    1  A    between atoms: N_1  and  C_10
REMARK    2  A    between atoms: C_7  and  C_17
REMARK    3  A    between atoms: C_17  and  C_18
REMARK    4  A    between atoms: C_21  and  O_24
REMARK                            x       y       z     vdW  Elec       q    Type
REMARK                         _______ _______ _______ _____ _____    ______ ____
ROOT
ATOM      1  N   UNL     1      34.440 -22.589 -17.620  0.00  0.00    -0.202 N 
ATOM      2  N   UNL     1      35.584 -22.542 -16.914  0.00  0.00    -0.185 NA
ATOM      3  N   UNL     1      32.084 -23.047 -17.301  0.00  0.00    -0.232 NA
ATOM      4  N   UNL     1      31.581 -23.605 -14.980  0.00  0.00    -0.234 NA
ATOM      5  C   UNL     1      33.350 -22.923 -16.873  0.00  0.00    +0.136 C 
ATOM      6  C   UNL     1      33.815 -23.109 -15.583  0.00  0.00    +0.146 C 
ATOM      7  C   UNL     1      35.197 -22.859 -15.673  0.00  0.00    +0.072 C 
ATOM      8  C   UNL     1      32.878 -23.461 -14.617  0.00  0.00    +0.111 C 
ATOM      9  C   UNL     1      31.269 -23.392 -16.281  0.00  0.00    +0.252 C 
ATOM     10  N   UNL     1      33.258 -23.672 -13.279  0.00  0.00    -0.346 N 
ATOM     11  H   UNL     1      32.581 -23.921 -12.609  0.00  0.00    +0.143 HD
ATOM     12  H   UNL     1      34.200 -23.569 -13.013  0.00  0.00    +0.143 HD
ENDROOT
BRANCH   1  13
ATOM     13  C   UNL     1      34.465 -22.288 -19.079  0.00  0.00    +0.081 C 
ATOM     14  C   UNL     1      34.205 -23.582 -19.881  0.00  0.00    +0.022 C 
ATOM     15  C   UNL     1      35.841 -21.703 -19.468  0.00  0.00    +0.022 C 
ATOM     16  C   UNL     1      33.398 -21.259 -19.528  0.00  0.00    +0.022 C 
ENDBRANCH   1  13
BRANCH   7  17
ATOM     17  C   UNL     1      36.202 -22.911 -14.596  0.00  0.00    +0.070 C 
BRANCH  17  18
ATOM     18  C   UNL     1      36.550 -24.369 -14.369  0.00  0.00    -0.013 C 
ATOM     19  C   UNL     1      36.479 -25.276 -15.426  0.00  0.00    +0.033 C 
ATOM     20  C   UNL     1      36.941 -24.803 -13.103  0.00  0.00    -0.004 C 
ATOM     21  C   UNL     1      36.799 -26.618 -15.217  0.00  0.00    +0.133 C 
ATOM     22  C   UNL     1      37.261 -26.145 -12.893  0.00  0.00    +0.003 C 
ATOM     23  C   UNL     1      37.190 -27.052 -13.951  0.00  0.00    +0.037 C 
BRANCH  21  24
ATOM     24  O   UNL     1      36.730 -27.503 -16.248  0.00  0.00    -0.506 OA
ATOM     25  H   UNL     1      36.680 -27.192 -17.131  0.00  0.00    +0.292 HD
ENDBRANCH  21  24
ENDBRANCH  17  18
ENDBRANCH   7  17
TORSDOF 4
ENDMDL
MODEL 4
REMARK VINA RESULT:      -8.4      6.254      9.123
REMARK  Name = 16750071
REMARK  4 active torsions:
REMARK  status: ('A' for Active; 'I' for Inactive)
REMARK    1  A    between atoms: N_1  and  C_10
REMARK    2  A    between atoms: C_7  and  C_17
REMARK    3  A    between atoms: C_17  and  C_18
REMARK    4  A    between atoms: C_21  and  O_24
REMARK                            x       y       z     vdW  Elec       q    Type
REMARK                         _______ _______ _______ _____ _____    ______ ____
ROOT
ATOM      1  N   UNL     1      34.116 -22.692 -17.526  0.00  0.00    -0.202 N 
ATOM      2  N   UNL     1      35.168 -22.749 -16.689  0.00  0.00    -0.185 NA
ATOM      3  N   UNL     1      31.708 -22.942 -17.491  0.00  0.00    -0.232 NA
ATOM      4  N   UNL     1      30.887 -23.463 -15.253  0.00  0.00    -0.234 NA
ATOM      5  C   UNL     1      32.921 -22.932 -16.916  0.00  0.00    +0.136 C 
ATOM      6  C   UNL     1      33.212 -23.163 -15.583  0.00  0.00    +0.146 C 
ATOM      7  C   UNL     1      34.612 -23.036 -15.507  0.00  0.00    +0.072 C 
ATOM      8  C   UNL     1      32.141 -23.436 -14.739  0.00  0.00    +0.111 C 
ATOM      9  C   UNL     1      30.751 -23.218 -16.578  0.00  0.00    +0.252 C 
ATOM     10  N   UNL     1      32.340 -23.684 -13.369  0.00  0.00    -0.346 N 
ATOM     11  H   UNL     1      31.570 -23.876 -12.786  0.00  0.00    +0.143 HD
ATOM     12  H   UNL     1      33.250 -23.666 -12.993  0.00  0.00    +0.143 HD
ENDROOT
BRANCH   1  13
ATOM     13  C   UNL     1      34.339 -22.389 -18.967  0.00  0.00    +0.081 C 
ATOM     14  C   UNL     1      35.757 -21.810 -19.164  0.00  0.00    +0.022 C 
ATOM     15  C   UNL     1      33.288 -21.368 -19.455  0.00  0.00    +0.022 C 
ATOM     16  C   UNL     1      34.226 -23.625 -19.894  0.00  0.00    +0.022 C 
ENDBRANCH   1  13
BRANCH   7  17
ATOM     17  C   UNL     1      35.474 -23.180 -14.320  0.00  0.00    +0.070 C 
BRANCH  17  18
ATOM     18  C   UNL     1      36.416 -24.339 -14.582  0.00  0.00    -0.013 C 
ATOM     19  C   UNL     1      37.795 -24.154 -14.483  0.00  0.00    +0.033 C 
ATOM     20  C   UNL     1      35.903 -25.590 -14.922  0.00  0.00    -0.004 C 
ATOM     21  C   UNL     1      38.661 -25.220 -14.725  0.00  0.00    +0.133 C 
ATOM     22  C   UNL     1      36.770 -26.657 -15.165  0.00  0.00    +0.003 C 
ATOM     23  C   UNL     1      38.149 -26.472 -15.065  0.00  0.00    +0.037 C 
BRANCH  21  24
ATOM     24  O   UNL     1      40.006 -25.039 -14.629  0.00  0.00    -0.506 OA
ATOM     25  H   UNL     1      40.394 -24.238 -14.922  0.00  0.00    +0.292 HD
ENDBRANCH  21  24
ENDBRANCH  17  18
ENDBRANCH   7  17
TORSDOF 4
ENDMDL
MODEL 5
REMARK VINA RESULT:      -8.4      5.377      8.289
REMARK  Name = 16750071
REMARK  4 active torsions:
REMARK  status: ('A' for Active; 'I' for Inactive)
REMARK    1  A    between atoms: N_1  and  C_10
REMARK    2  A    between atoms: C_7  and  C_17
REMARK    3  A    between atoms: C_17  and  C_18
REMARK    4  A    between atoms: C_21  and  O_24
REMARK                            x       y       z     vdW  Elec       q    Type
REMARK                         _______ _______ _______ _____ _____    ______ ____
ROOT
ATOM      1  N   UNL     1      33.085  -9.187 -22.862  0.00  0.00    -0.202 N 
ATOM      2  N   UNL     1      32.655 -10.429 -23.153  0.00  0.00    -0.185 NA
ATOM      3  N   UNL     1      33.015  -7.581 -21.052  0.00  0.00    -0.232 NA
ATOM      4  N   UNL     1      31.788  -8.443 -19.128  0.00  0.00    -0.234 NA
ATOM      5  C   UNL     1      32.730  -8.766 -21.615  0.00  0.00    +0.136 C 
ATOM      6  C   UNL     1      32.016  -9.807 -21.049  0.00  0.00    +0.146 C 
ATOM      7  C   UNL     1      32.005 -10.801 -22.045  0.00  0.00    +0.072 C 
ATOM      8  C   UNL     1      31.538  -9.617 -19.757  0.00  0.00    +0.111 C 
ATOM      9  C   UNL     1      32.501  -7.512 -19.805  0.00  0.00    +0.252 C 
ATOM     10  N   UNL     1      30.801 -10.619 -19.100  0.00  0.00    -0.346 N 
ATOM     11  H   UNL     1      30.471 -10.467 -18.185  0.00  0.00    +0.143 HD
ATOM     12  H   UNL     1      30.617 -11.473 -19.555  0.00  0.00    +0.143 HD
ENDROOT
BRANCH   1  13
ATOM     13  C   UNL     1      33.867  -8.425 -23.875  0.00  0.00    +0.081 C 
ATOM     14  C   UNL     1      32.926  -7.484 -24.659  0.00  0.00    +0.022 C 
ATOM     15  C   UNL     1      34.553  -9.406 -24.851  0.00  0.00    +0.022 C 
ATOM     16  C   UNL     1      34.985  -7.540 -23.270  0.00  0.00    +0.022 C 
ENDBRANCH   1  13
BRANCH   7  17
ATOM     17  C   UNL     1      31.382 -12.137 -21.988  0.00  0.00    +0.070 C 
BRANCH  17  18
ATOM     18  C   UNL     1      32.480 -13.159 -22.210  0.00  0.00    -0.013 C 
ATOM     19  C   UNL     1      33.139 -13.724 -21.119  0.00  0.00    +0.033 C 
ATOM     20  C   UNL     1      32.830 -13.533 -23.507  0.00  0.00    -0.004 C 
ATOM     21  C   UNL     1      34.149 -14.664 -21.325  0.00  0.00    +0.133 C 
ATOM     22  C   UNL     1      33.841 -14.474 -23.713  0.00  0.00    +0.003 C 
ATOM     23  C   UNL     1      34.500 -15.039 -22.621  0.00  0.00    +0.037 C 
BRANCH  21  24
ATOM     24  O   UNL     1      34.792 -15.215 -20.260  0.00  0.00    -0.506 OA
ATOM     25  H   UNL     1      35.629 -14.885 -19.996  0.00  0.00    +0.292 HD
ENDBRANCH  21  24
ENDBRANCH  17  18
ENDBRANCH   7  17
TORSDOF 4
ENDMDL
MODEL 6
REMARK VINA RESULT:      -8.4      0.954      1.396
REMARK  Name = 16750071
REMARK  4 active torsions:
REMARK  status: ('A' for Active; 'I' for Inactive)
REMARK    1  A    between atoms: N_1  and  C_10
REMARK    2  A    between atoms: C_7  and  C_17
REMARK    3  A    between atoms: C_17  and  C_18
REMARK    4  A    between atoms: C_21  and  O_24
REMARK                            x       y       z     vdW  Elec       q    Type
REMARK                         _______ _______ _______ _____ _____    ______ ____
ROOT
ATOM      1  N   UNL     1      34.530 -16.040 -22.201  0.00  0.00    -0.202 N 
ATOM      2  N   UNL     1      35.292 -16.791 -21.383  0.00  0.00    -0.185 NA
ATOM      3  N   UNL     1      33.625 -16.086 -24.445  0.00  0.00    -0.232 NA
ATOM      4  N   UNL     1      34.270 -18.114 -25.638  0.00  0.00    -0.234 NA
ATOM      5  C   UNL     1      34.335 -16.599 -23.428  0.00  0.00    +0.136 C 
ATOM      6  C   UNL     1      35.018 -17.803 -23.413  0.00  0.00    +0.146 C 
ATOM      7  C   UNL     1      35.585 -17.863 -22.127  0.00  0.00    +0.072 C 
ATOM      8  C   UNL     1      34.969 -18.572 -24.571  0.00  0.00    +0.111 C 
ATOM      9  C   UNL     1      33.650 -16.916 -25.510  0.00  0.00    +0.252 C 
ATOM     10  N   UNL     1      35.633 -19.809 -24.649  0.00  0.00    -0.346 N 
ATOM     11  H   UNL     1      35.588 -20.341 -25.477  0.00  0.00    +0.143 HD
ATOM     12  H   UNL     1      36.143 -20.144 -23.876  0.00  0.00    +0.143 HD
ENDROOT
BRANCH   1  13
ATOM     13  C   UNL     1      33.999 -14.735 -21.717  0.00  0.00    +0.081 C 
ATOM     14  C   UNL     1      34.765 -14.299 -20.449  0.00  0.00    +0.022 C 
ATOM     15  C   UNL     1      32.495 -14.871 -21.396  0.00  0.00    +0.022 C 
ATOM     16  C   UNL     1      34.136 -13.583 -22.743  0.00  0.00    +0.022 C 
ENDBRANCH   1  13
BRANCH   7  17
ATOM     17  C   UNL     1      36.424 -18.931 -21.553  0.00  0.00    +0.070 C 
BRANCH  17  18
ATOM     18  C   UNL     1      35.505 -19.874 -20.800  0.00  0.00    -0.013 C 
ATOM     19  C   UNL     1      34.142 -19.595 -20.708  0.00  0.00    +0.033 C 
ATOM     20  C   UNL     1      36.024 -21.020 -20.200  0.00  0.00    -0.004 C 
ATOM     21  C   UNL     1      33.298 -20.462 -20.016  0.00  0.00    +0.133 C 
ATOM     22  C   UNL     1      35.180 -21.888 -19.507  0.00  0.00    +0.003 C 
ATOM     23  C   UNL     1      33.816 -21.609 -19.415  0.00  0.00    +0.037 C 
BRANCH  21  24
ATOM     24  O   UNL     1      31.967 -20.190 -19.925  0.00  0.00    -0.506 OA
ATOM     25  H   UNL     1      31.342 -20.776 -20.304  0.00  0.00    +0.292 HD
ENDBRANCH  21  24
ENDBRANCH  17  18
ENDBRANCH   7  17
TORSDOF 4
ENDMDL
MODEL 7
REMARK VINA RESULT:      -8.2      4.463      6.739
REMARK  Name = 16750071
REMARK  4 active torsions:
REMARK  status: ('A' for Active; 'I' for Inactive)
REMARK    1  A    between atoms: N_1  and  C_10
REMARK    2  A    between atoms: C_7  and  C_17
REMARK    3  A    between atoms: C_17  and  C_18
REMARK    4  A    between atoms: C_21  and  O_24
REMARK                            x       y       z     vdW  Elec       q    Type
REMARK                         _______ _______ _______ _____ _____    ______ ____
ROOT
ATOM      1  N   UNL     1      32.724  -9.735 -22.455  0.00  0.00    -0.202 N 
ATOM      2  N   UNL     1      32.021 -10.849 -22.178  0.00  0.00    -0.185 NA
ATOM      3  N   UNL     1      34.380  -8.934 -24.028  0.00  0.00    -0.232 NA
ATOM      4  N   UNL     1      35.001 -10.658 -25.640  0.00  0.00    -0.234 NA
ATOM      5  C   UNL     1      33.561  -9.870 -23.522  0.00  0.00    +0.136 C 
ATOM      6  C   UNL     1      33.394 -11.165 -23.978  0.00  0.00    +0.146 C 
ATOM      7  C   UNL     1      32.433 -11.717 -23.110  0.00  0.00    +0.072 C 
ATOM      8  C   UNL     1      34.151 -11.551 -25.079  0.00  0.00    +0.111 C 
ATOM      9  C   UNL     1      35.062  -9.422 -25.088  0.00  0.00    +0.252 C 
ATOM     10  N   UNL     1      34.049 -12.849 -25.611  0.00  0.00    -0.346 N 
ATOM     11  H   UNL     1      34.593 -13.105 -26.391  0.00  0.00    +0.143 HD
ATOM     12  H   UNL     1      33.433 -13.501 -25.205  0.00  0.00    +0.143 HD
ENDROOT
BRANCH   1  13
ATOM     13  C   UNL     1      32.535  -8.521 -21.613  0.00  0.00    +0.081 C 
ATOM     14  C   UNL     1      32.085  -8.935 -20.195  0.00  0.00    +0.022 C 
ATOM     15  C   UNL     1      31.468  -7.604 -22.251  0.00  0.00    +0.022 C 
ATOM     16  C   UNL     1      33.817  -7.667 -21.447  0.00  0.00    +0.022 C 
ENDBRANCH   1  13
BRANCH   7  17
ATOM     17  C   UNL     1      31.870 -13.079 -23.126  0.00  0.00    +0.070 C 
BRANCH  17  18
ATOM     18  C   UNL     1      32.855 -13.986 -22.415  0.00  0.00    -0.013 C 
ATOM     19  C   UNL     1      33.791 -14.712 -23.149  0.00  0.00    +0.033 C 
ATOM     20  C   UNL     1      32.823 -14.093 -21.024  0.00  0.00    -0.004 C 
ATOM     21  C   UNL     1      34.697 -15.546 -22.494  0.00  0.00    +0.133 C 
ATOM     22  C   UNL     1      33.729 -14.929 -20.369  0.00  0.00    +0.003 C 
ATOM     23  C   UNL     1      34.667 -15.654 -21.104  0.00  0.00    +0.037 C 
BRANCH  21  24
ATOM     24  O   UNL     1      35.611 -16.255 -23.211  0.00  0.00    -0.506 OA
ATOM     25  H   UNL     1      35.601 -16.221 -24.148  0.00  0.00    +0.292 HD
ENDBRANCH  21  24
ENDBRANCH  17  18
ENDBRANCH   7  17
TORSDOF 4
ENDMDL
MODEL 8
REMARK VINA RESULT:      -8.1      1.078      1.724
REMARK  Name = 16750071
REMARK  4 active torsions:
REMARK  status: ('A' for Active; 'I' for Inactive)
REMARK    1  A    between atoms: N_1  and  C_10
REMARK    2  A    between atoms: C_7  and  C_17
REMARK    3  A    between atoms: C_17  and  C_18
REMARK    4  A    between atoms: C_21  and  O_24
REMARK                            x       y       z     vdW  Elec       q    Type
REMARK                         _______ _______ _______ _____ _____    ______ ____
ROOT
ATOM      1  N   UNL     1      33.697 -16.364 -21.772  0.00  0.00    -0.202 N 
ATOM      2  N   UNL     1      33.400 -17.480 -21.081  0.00  0.00    -0.185 NA
ATOM      3  N   UNL     1      34.534 -15.700 -23.944  0.00  0.00    -0.232 NA
ATOM      4  N   UNL     1      34.999 -17.631 -25.361  0.00  0.00    -0.234 NA
ATOM      5  C   UNL     1      34.160 -16.609 -23.030  0.00  0.00    +0.136 C 
ATOM      6  C   UNL     1      34.167 -17.985 -23.174  0.00  0.00    +0.146 C 
ATOM      7  C   UNL     1      33.688 -18.464 -21.940  0.00  0.00    +0.072 C 
ATOM      8  C   UNL     1      34.605 -18.492 -24.392  0.00  0.00    +0.111 C 
ATOM      9  C   UNL     1      34.939 -16.307 -25.081  0.00  0.00    +0.252 C 
ATOM     10  N   UNL     1      34.648 -19.878 -24.629  0.00  0.00    -0.346 N 
ATOM     11  H   UNL     1      34.961 -20.220 -25.498  0.00  0.00    +0.143 HD
ATOM     12  H   UNL     1      34.363 -20.507 -23.927  0.00  0.00    +0.143 HD
ENDROOT
BRANCH   1  13
ATOM     13  C   UNL     1      33.505 -15.032 -21.133  0.00  0.00    +0.081 C 
ATOM     14  C   UNL     1      34.859 -14.506 -20.609  0.00  0.00    +0.022 C 
ATOM     15  C   UNL     1      32.505 -15.154 -19.962  0.00  0.00    +0.022 C 
ATOM     16  C   UNL     1      32.944 -13.951 -22.090  0.00  0.00    +0.022 C 
ENDBRANCH   1  13
BRANCH   7  17
ATOM     17  C   UNL     1      33.485 -19.865 -21.526  0.00  0.00    +0.070 C 
BRANCH  17  18
ATOM     18  C   UNL     1      34.676 -20.264 -20.678  0.00  0.00    -0.013 C 
ATOM     19  C   UNL     1      34.531 -21.230 -19.683  0.00  0.00    +0.033 C 
ATOM     20  C   UNL     1      35.917 -19.665 -20.894  0.00  0.00    -0.004 C 
ATOM     21  C   UNL     1      35.628 -21.597 -18.902  0.00  0.00    +0.133 C 
ATOM     22  C   UNL     1      37.014 -20.032 -20.113  0.00  0.00    +0.003 C 
ATOM     23  C   UNL     1      36.869 -20.998 -19.117  0.00  0.00    +0.037 C 
BRANCH  21  24
ATOM     24  O   UNL     1      35.487 -22.539 -17.930  0.00  0.00    -0.506 OA
ATOM     25  H   UNL     1      36.240 -22.987 -17.598  0.00  0.00    +0.292 HD
ENDBRANCH  21  24
ENDBRANCH  17  18
ENDBRANCH   7  17
TORSDOF 4
ENDMDL
MODEL 9
REMARK VINA RESULT:      -8.0      4.270      7.255
REMARK  Name = 16750071
REMARK  4 active torsions:
REMARK  status: ('A' for Active; 'I' for Inactive)
REMARK    1  A    between atoms: N_1  and  C_10
REMARK    2  A    between atoms: C_7  and  C_17
REMARK    3  A    between atoms: C_17  and  C_18
REMARK    4  A    between atoms: C_21  and  O_24
REMARK                            x       y       z     vdW  Elec       q    Type
REMARK                         _______ _______ _______ _____ _____    ______ ____
ROOT
ATOM      1  N   UNL     1      33.767 -14.762 -22.684  0.00  0.00    -0.202 N 
ATOM      2  N   UNL     1      33.560 -13.443 -22.509  0.00  0.00    -0.185 NA
ATOM      3  N   UNL     1      33.865 -16.401 -24.462  0.00  0.00    -0.232 NA
ATOM      4  N   UNL     1      33.471 -15.386 -26.646  0.00  0.00    -0.234 NA
ATOM      5  C   UNL     1      33.702 -15.156 -23.987  0.00  0.00    +0.136 C 
ATOM      6  C   UNL     1      33.433 -14.013 -24.719  0.00  0.00    +0.146 C 
ATOM      7  C   UNL     1      33.358 -12.992 -23.753  0.00  0.00    +0.072 C 
ATOM      8  C   UNL     1      33.319 -14.157 -26.097  0.00  0.00    +0.111 C 
ATOM      9  C   UNL     1      33.731 -16.417 -25.807  0.00  0.00    +0.252 C 
ATOM     10  N   UNL     1      33.047 -13.051 -26.923  0.00  0.00    -0.346 N 
ATOM     11  H   UNL     1      32.969 -13.172 -27.897  0.00  0.00    +0.143 HD
ATOM     12  H   UNL     1      32.935 -12.157 -26.527  0.00  0.00    +0.143 HD
ENDROOT
BRANCH   1  13
ATOM     13  C   UNL     1      34.032 -15.626 -21.500  0.00  0.00    +0.081 C 
ATOM     14  C   UNL     1      32.702 -16.207 -20.972  0.00  0.00    +0.022 C 
ATOM     15  C   UNL     1      34.714 -14.796 -20.390  0.00  0.00    +0.022 C 
ATOM     16  C   UNL     1      34.961 -16.829 -21.795  0.00  0.00    +0.022 C 
ENDBRANCH   1  13
BRANCH   7  17
ATOM     17  C   UNL     1      33.094 -11.558 -23.965  0.00  0.00    +0.070 C 
BRANCH  17  18
ATOM     18  C   UNL     1      32.457 -11.021 -22.698  0.00  0.00    -0.013 C 
ATOM     19  C   UNL     1      32.678  -9.700 -22.311  0.00  0.00    +0.033 C 
ATOM     20  C   UNL     1      31.649 -11.851 -21.921  0.00  0.00    -0.004 C 
ATOM     21  C   UNL     1      32.091  -9.208 -21.145  0.00  0.00    +0.133 C 
ATOM     22  C   UNL     1      31.063 -11.358 -20.754  0.00  0.00    +0.003 C 
ATOM     23  C   UNL     1      31.284 -10.037 -20.366  0.00  0.00    +0.037 C 
BRANCH  21  24
ATOM     24  O   UNL     1      32.307  -7.919 -20.767  0.00  0.00    -0.506 OA
ATOM     25  H   UNL     1      31.892  -7.580 -19.998  0.00  0.00    +0.292 HD
ENDBRANCH  21  24
ENDBRANCH  17  18
ENDBRANCH   7  17
TORSDOF 4
ENDMDL
