MODEL 1
REMARK VINA RESULT:     -11.6      0.000      0.000
REMARK  Name = 9890801
REMARK  11 active torsions:
REMARK  status: ('A' for Active; 'I' for Inactive)
REMARK    1  A    between atoms: N_1  and  S_2
REMARK    2  A    between atoms: N_1  and  C_11
REMARK    3  A    between atoms: N_1  and  C_22
REMARK    4  A    between atoms: S_2  and  C_6
REMARK    5  A    between atoms: C_11  and  C_13
REMARK    6  A    between atoms: C_12  and  C_18
REMARK    7  A    between atoms: C_22  and  C_23
REMARK    8  A    between atoms: C_26  and  O_29
REMARK    9  A    between atoms: O_29  and  C_30
REMARK   10  A    between atoms: C_30  and  C_32
REMARK   11  A    between atoms: C_32  and  O_33
REMARK                            x       y       z     vdW  Elec       q    Type
REMARK                         _______ _______ _______ _____ _____    ______ ____
ROOT
ATOM      1  N   UNL     1      34.504 -23.208 -15.929  0.00  0.00    -0.147 NA
ENDROOT
BRANCH   1   2
ATOM      2  S   UNL     1      35.874 -24.174 -15.519  0.00  0.00    +0.065 S 
ATOM      3  O   UNL     1      37.078 -23.545 -16.030  0.00  0.00    -0.153 OA
ATOM      4  O   UNL     1      35.601 -25.562 -15.843  0.00  0.00    -0.153 OA
BRANCH   2   6
ATOM      5  N   UNL     1      35.054 -24.742 -11.608  0.00  0.00    -0.241 NA
ATOM      6  C   UNL     1      35.923 -24.046 -13.753  0.00  0.00    +0.141 C 
ATOM      7  C   UNL     1      36.821 -23.192 -13.121  0.00  0.00    +0.023 C 
ATOM      8  C   UNL     1      35.068 -24.793 -12.958  0.00  0.00    +0.119 C 
ATOM      9  C   UNL     1      36.836 -23.113 -11.732  0.00  0.00    +0.022 C 
ATOM     10  C   UNL     1      35.940 -23.902 -11.028  0.00  0.00    +0.099 C 
ENDBRANCH   2   6
ENDBRANCH   1   2
BRANCH   1  11
ATOM     11  C   UNL     1      33.835 -23.470 -17.227  0.00  0.00    +0.122 C 
BRANCH  11  13
ATOM     12  C   UNL     1      34.709 -20.484 -20.167  0.00  0.00    -0.023 C 
ATOM     13  C   UNL     1      34.139 -22.430 -18.251  0.00  0.00    -0.004 C 
ATOM     14  C   UNL     1      35.747 -21.098 -19.467  0.00  0.00    -0.005 C 
ATOM     15  C   UNL     1      33.386 -20.842 -19.909  0.00  0.00    -0.005 C 
ATOM     16  C   UNL     1      35.463 -22.071 -18.510  0.00  0.00    -0.003 C 
ATOM     17  C   UNL     1      33.100 -21.815 -18.950  0.00  0.00    -0.003 C 
BRANCH  12  18
ATOM     18  C   UNL     1      35.022 -19.409 -21.222  0.00  0.00    +0.019 C 
ATOM     19  C   UNL     1      36.497 -18.972 -21.096  0.00  0.00    +0.004 C 
ATOM     20  C   UNL     1      34.108 -18.185 -21.002  0.00  0.00    +0.004 C 
ATOM     21  C   UNL     1      34.809 -19.882 -22.677  0.00  0.00    +0.004 C 
ENDBRANCH  12  18
ENDBRANCH  11  13
ENDBRANCH   1  11
BRANCH   1  22
ATOM     22  C   UNL     1      33.529 -22.899 -14.852  0.00  0.00    +0.123 C 
BRANCH  22  23
ATOM     23  C   UNL     1      32.156 -23.427 -15.158  0.00  0.00    -0.001 C 
ATOM     24  C   UNL     1      31.281 -22.680 -15.946  0.00  0.00    +0.034 C 
ATOM     25  C   UNL     1      31.757 -24.664 -14.653  0.00  0.00    -0.003 C 
ATOM     26  C   UNL     1      30.007 -23.171 -16.230  0.00  0.00    +0.139 C 
ATOM     27  C   UNL     1      30.482 -25.155 -14.937  0.00  0.00    +0.003 C 
ATOM     28  C   UNL     1      29.607 -24.408 -15.725  0.00  0.00    +0.037 C 
BRANCH  26  29
ATOM     29  O   UNL     1      29.151 -22.442 -16.998  0.00  0.00    -0.464 OA
BRANCH  29  30
ATOM     30  C   UNL     1      27.854 -22.994 -17.226  0.00  0.00    +0.314 C 
BRANCH  30  32
ATOM     31  O   UNL     1      26.137 -22.203 -15.700  0.00  0.00    -0.246 OA
ATOM     32  C   UNL     1      26.802 -22.050 -16.713  0.00  0.00    +0.359 C 
BRANCH  32  33
ATOM     33  O   UNL     1      26.689 -20.981 -17.541  0.00  0.00    -0.478 OA
ATOM     34  H   UNL     1      27.417 -20.406 -17.667  0.00  0.00    +0.295 HD
ENDBRANCH  32  33
ENDBRANCH  30  32
ENDBRANCH  29  30
ENDBRANCH  26  29
ENDBRANCH  22  23
ENDBRANCH   1  22
TORSDOF 11
ENDMDL
MODEL 2
REMARK VINA RESULT:     -10.5      1.326      1.825
REMARK  Name = 9890801
REMARK  11 active torsions:
REMARK  status: ('A' for Active; 'I' for Inactive)
REMARK    1  A    between atoms: N_1  and  S_2
REMARK    2  A    between atoms: N_1  and  C_11
REMARK    3  A    between atoms: N_1  and  C_22
REMARK    4  A    between atoms: S_2  and  C_6
REMARK    5  A    between atoms: C_11  and  C_13
REMARK    6  A    between atoms: C_12  and  C_18
REMARK    7  A    between atoms: C_22  and  C_23
REMARK    8  A    between atoms: C_26  and  O_29
REMARK    9  A    between atoms: O_29  and  C_30
REMARK   10  A    between atoms: C_30  and  C_32
REMARK   11  A    between atoms: C_32  and  O_33
REMARK                            x       y       z     vdW  Elec       q    Type
REMARK                         _______ _______ _______ _____ _____    ______ ____
ROOT
ATOM      1  N   UNL     1      34.510 -23.215 -16.707  0.00  0.00    -0.147 NA
ENDROOT
BRANCH   1   2
ATOM      2  S   UNL     1      36.010 -22.682 -16.041  0.00  0.00    +0.065 S 
ATOM      3  O   UNL     1      35.827 -21.385 -15.415  0.00  0.00    -0.153 OA
ATOM      4  O   UNL     1      37.064 -22.858 -17.023  0.00  0.00    -0.153 OA
BRANCH   2   6
ATOM      5  N   UNL     1      37.139 -26.016 -14.066  0.00  0.00    -0.241 NA
ATOM      6  C   UNL     1      36.297 -23.855 -14.745  0.00  0.00    +0.141 C 
ATOM      7  C   UNL     1      35.931 -23.576 -13.433  0.00  0.00    +0.023 C 
ATOM      8  C   UNL     1      36.893 -25.078 -15.007  0.00  0.00    +0.119 C 
ATOM      9  C   UNL     1      36.169 -24.517 -12.436  0.00  0.00    +0.022 C 
ATOM     10  C   UNL     1      36.771 -25.711 -12.802  0.00  0.00    +0.099 C 
ENDBRANCH   2   6
ENDBRANCH   1   2
BRANCH   1  11
ATOM     11  C   UNL     1      34.471 -23.540 -18.154  0.00  0.00    +0.122 C 
BRANCH  11  13
ATOM     12  C   UNL     1      34.658 -20.054 -20.632  0.00  0.00    -0.023 C 
ATOM     13  C   UNL     1      34.536 -22.326 -19.017  0.00  0.00    -0.004 C 
ATOM     14  C   UNL     1      33.426 -20.517 -20.172  0.00  0.00    -0.005 C 
ATOM     15  C   UNL     1      35.830 -20.727 -20.285  0.00  0.00    -0.005 C 
ATOM     16  C   UNL     1      33.365 -21.653 -19.366  0.00  0.00    -0.003 C 
ATOM     17  C   UNL     1      35.769 -21.863 -19.477  0.00  0.00    -0.003 C 
BRANCH  12  18
ATOM     18  C   UNL     1      34.726 -18.803 -21.525  0.00  0.00    +0.019 C 
ATOM     19  C   UNL     1      36.162 -18.238 -21.519  0.00  0.00    +0.004 C 
ATOM     20  C   UNL     1      33.755 -17.730 -20.987  0.00  0.00    +0.004 C 
ATOM     21  C   UNL     1      34.344 -19.067 -22.998  0.00  0.00    +0.004 C 
ENDBRANCH  12  18
ENDBRANCH  11  13
ENDBRANCH   1  11
BRANCH   1  22
ATOM     22  C   UNL     1      33.693 -24.159 -15.902  0.00  0.00    +0.123 C 
BRANCH  22  23
ATOM     23  C   UNL     1      32.351 -23.587 -15.543  0.00  0.00    -0.001 C 
ATOM     24  C   UNL     1      31.434 -23.275 -16.547  0.00  0.00    +0.034 C 
ATOM     25  C   UNL     1      32.022 -23.367 -14.205  0.00  0.00    -0.003 C 
ATOM     26  C   UNL     1      30.189 -22.743 -16.213  0.00  0.00    +0.139 C 
ATOM     27  C   UNL     1      30.776 -22.835 -13.872  0.00  0.00    +0.003 C 
ATOM     28  C   UNL     1      29.859 -22.523 -14.876  0.00  0.00    +0.037 C 
BRANCH  26  29
ATOM     29  O   UNL     1      29.294 -22.437 -17.192  0.00  0.00    -0.464 OA
BRANCH  29  30
ATOM     30  C   UNL     1      28.013 -23.064 -17.120  0.00  0.00    +0.314 C 
BRANCH  30  32
ATOM     31  O   UNL     1      26.673 -21.118 -17.689  0.00  0.00    -0.246 OA
ATOM     32  C   UNL     1      26.948 -22.023 -16.915  0.00  0.00    +0.359 C 
BRANCH  32  33
ATOM     33  O   UNL     1      26.317 -22.226 -15.732  0.00  0.00    -0.478 OA
ATOM     34  H   UNL     1      26.067 -21.496 -15.201  0.00  0.00    +0.295 HD
ENDBRANCH  32  33
ENDBRANCH  30  32
ENDBRANCH  29  30
ENDBRANCH  26  29
ENDBRANCH  22  23
ENDBRANCH   1  22
TORSDOF 11
ENDMDL
MODEL 3
REMARK VINA RESULT:     -10.1      1.952      2.715
REMARK  Name = 9890801
REMARK  11 active torsions:
REMARK  status: ('A' for Active; 'I' for Inactive)
REMARK    1  A    between atoms: N_1  and  S_2
REMARK    2  A    between atoms: N_1  and  C_11
REMARK    3  A    between atoms: N_1  and  C_22
REMARK    4  A    between atoms: S_2  and  C_6
REMARK    5  A    between atoms: C_11  and  C_13
REMARK    6  A    between atoms: C_12  and  C_18
REMARK    7  A    between atoms: C_22  and  C_23
REMARK    8  A    between atoms: C_26  and  O_29
REMARK    9  A    between atoms: O_29  and  C_30
REMARK   10  A    between atoms: C_30  and  C_32
REMARK   11  A    between atoms: C_32  and  O_33
REMARK                            x       y       z     vdW  Elec       q    Type
REMARK                         _______ _______ _______ _____ _____    ______ ____
ROOT
ATOM      1  N   UNL     1      34.247 -23.484 -13.773  0.00  0.00    -0.147 NA
ENDROOT
BRANCH   1   2
ATOM      2  S   UNL     1      35.336 -24.020 -12.546  0.00  0.00    +0.065 S 
ATOM      3  O   UNL     1      34.698 -25.052 -11.750  0.00  0.00    -0.153 OA
ATOM      4  O   UNL     1      35.922 -22.869 -11.885  0.00  0.00    -0.153 OA
BRANCH   2   6
ATOM      5  N   UNL     1      38.800 -24.649 -14.521  0.00  0.00    -0.241 NA
ATOM      6  C   UNL     1      36.622 -24.798 -13.484  0.00  0.00    +0.141 C 
ATOM      7  C   UNL     1      36.497 -26.114 -13.916  0.00  0.00    +0.023 C 
ATOM      8  C   UNL     1      37.783 -24.115 -13.809  0.00  0.00    +0.119 C 
ATOM      9  C   UNL     1      37.524 -26.699 -14.650  0.00  0.00    +0.022 C 
ATOM     10  C   UNL     1      38.644 -25.930 -14.923  0.00  0.00    +0.099 C 
ENDBRANCH   2   6
ENDBRANCH   1   2
BRANCH   1  11
ATOM     11  C   UNL     1      34.162 -24.283 -15.020  0.00  0.00    +0.122 C 
BRANCH  11  13
ATOM     12  C   UNL     1      35.163 -22.011 -18.507  0.00  0.00    -0.023 C 
ATOM     13  C   UNL     1      34.510 -23.492 -16.235  0.00  0.00    -0.004 C 
ATOM     14  C   UNL     1      36.055 -22.074 -17.436  0.00  0.00    -0.005 C 
ATOM     15  C   UNL     1      33.946 -22.689 -18.442  0.00  0.00    -0.005 C 
ATOM     16  C   UNL     1      35.728 -22.813 -16.300  0.00  0.00    -0.003 C 
ATOM     17  C   UNL     1      33.619 -23.429 -17.306  0.00  0.00    -0.003 C 
BRANCH  12  18
ATOM     18  C   UNL     1      35.522 -21.193 -19.760  0.00  0.00    +0.019 C 
ATOM     19  C   UNL     1      34.297 -20.370 -20.211  0.00  0.00    +0.004 C 
ATOM     20  C   UNL     1      35.942 -22.147 -20.899  0.00  0.00    +0.004 C 
ATOM     21  C   UNL     1      36.686 -20.200 -19.544  0.00  0.00    +0.004 C 
ENDBRANCH  12  18
ENDBRANCH  11  13
ENDBRANCH   1  11
BRANCH   1  22
ATOM     22  C   UNL     1      32.919 -22.977 -13.344  0.00  0.00    +0.123 C 
BRANCH  22  23
ATOM     23  C   UNL     1      31.797 -23.560 -14.156  0.00  0.00    -0.001 C 
ATOM     24  C   UNL     1      31.126 -22.769 -15.089  0.00  0.00    +0.034 C 
ATOM     25  C   UNL     1      31.427 -24.893 -13.977  0.00  0.00    -0.003 C 
ATOM     26  C   UNL     1      30.085 -23.310 -15.842  0.00  0.00    +0.139 C 
ATOM     27  C   UNL     1      30.385 -25.434 -14.731  0.00  0.00    +0.003 C 
ATOM     28  C   UNL     1      29.714 -24.643 -15.663  0.00  0.00    +0.037 C 
BRANCH  26  29
ATOM     29  O   UNL     1      29.429 -22.539 -16.751  0.00  0.00    -0.464 OA
BRANCH  29  30
ATOM     30  C   UNL     1      28.162 -23.013 -17.210  0.00  0.00    +0.314 C 
BRANCH  30  32
ATOM     31  O   UNL     1      26.517 -22.325 -15.559  0.00  0.00    -0.246 OA
ATOM     32  C   UNL     1      27.063 -22.160 -16.639  0.00  0.00    +0.359 C 
BRANCH  32  33
ATOM     33  O   UNL     1      26.753 -21.159 -17.501  0.00  0.00    -0.478 OA
ATOM     34  H   UNL     1      27.252 -21.043 -18.285  0.00  0.00    +0.295 HD
ENDBRANCH  32  33
ENDBRANCH  30  32
ENDBRANCH  29  30
ENDBRANCH  26  29
ENDBRANCH  22  23
ENDBRANCH   1  22
TORSDOF 11
ENDMDL
MODEL 4
REMARK VINA RESULT:     -10.0     12.484     16.703
REMARK  Name = 9890801
REMARK  11 active torsions:
REMARK  status: ('A' for Active; 'I' for Inactive)
REMARK    1  A    between atoms: N_1  and  S_2
REMARK    2  A    between atoms: N_1  and  C_11
REMARK    3  A    between atoms: N_1  and  C_22
REMARK    4  A    between atoms: S_2  and  C_6
REMARK    5  A    between atoms: C_11  and  C_13
REMARK    6  A    between atoms: C_12  and  C_18
REMARK    7  A    between atoms: C_22  and  C_23
REMARK    8  A    between atoms: C_26  and  O_29
REMARK    9  A    between atoms: O_29  and  C_30
REMARK   10  A    between atoms: C_30  and  C_32
REMARK   11  A    between atoms: C_32  and  O_33
REMARK                            x       y       z     vdW  Elec       q    Type
REMARK                         _______ _______ _______ _____ _____    ______ ____
ROOT
ATOM      1  N   UNL     1      33.151  -8.248 -23.396  0.00  0.00    -0.147 NA
ENDROOT
BRANCH   1   2
ATOM      2  S   UNL     1      31.639  -8.028 -22.596  0.00  0.00    +0.065 S 
ATOM      3  O   UNL     1      30.557  -8.329 -23.517  0.00  0.00    -0.153 OA
ATOM      4  O   UNL     1      31.644  -6.760 -21.891  0.00  0.00    -0.153 OA
BRANCH   2   6
ATOM      5  N   UNL     1      32.127  -9.987 -19.101  0.00  0.00    -0.241 NA
ATOM      6  C   UNL     1      31.658  -9.309 -21.373  0.00  0.00    +0.141 C 
ATOM      7  C   UNL     1      31.244 -10.601 -21.681  0.00  0.00    +0.023 C 
ATOM      8  C   UNL     1      32.087  -9.056 -20.079  0.00  0.00    +0.119 C 
ATOM      9  C   UNL     1      31.271 -11.586 -20.699  0.00  0.00    +0.022 C 
ATOM     10  C   UNL     1      31.717 -11.230 -19.436  0.00  0.00    +0.099 C 
ENDBRANCH   2   6
ENDBRANCH   1   2
BRANCH   1  11
ATOM     11  C   UNL     1      34.061  -7.079 -23.489  0.00  0.00    +0.122 C 
BRANCH  11  13
ATOM     12  C   UNL     1      33.333  -4.692 -26.967  0.00  0.00    -0.023 C 
ATOM     13  C   UNL     1      33.808  -6.248 -24.701  0.00  0.00    -0.004 C 
ATOM     14  C   UNL     1      32.354  -4.802 -25.980  0.00  0.00    -0.005 C 
ATOM     15  C   UNL     1      34.549  -5.360 -26.822  0.00  0.00    -0.005 C 
ATOM     16  C   UNL     1      32.591  -5.580 -24.847  0.00  0.00    -0.003 C 
ATOM     17  C   UNL     1      34.787  -6.138 -25.689  0.00  0.00    -0.003 C 
BRANCH  12  18
ATOM     18  C   UNL     1      33.071  -3.837 -28.218  0.00  0.00    +0.019 C 
ATOM     19  C   UNL     1      31.906  -2.861 -27.946  0.00  0.00    +0.004 C 
ATOM     20  C   UNL     1      32.700  -4.753 -29.404  0.00  0.00    +0.004 C 
ATOM     21  C   UNL     1      34.284  -2.988 -28.659  0.00  0.00    +0.004 C 
ENDBRANCH  12  18
ENDBRANCH  11  13
ENDBRANCH   1  11
BRANCH   1  22
ATOM     22  C   UNL     1      33.891  -9.511 -23.143  0.00  0.00    +0.123 C 
BRANCH  22  23
ATOM     23  C   UNL     1      34.268 -10.214 -24.415  0.00  0.00    -0.001 C 
ATOM     24  C   UNL     1      33.544 -11.328 -24.839  0.00  0.00    +0.034 C 
ATOM     25  C   UNL     1      35.345  -9.753 -25.173  0.00  0.00    -0.003 C 
ATOM     26  C   UNL     1      33.895 -11.981 -26.020  0.00  0.00    +0.139 C 
ATOM     27  C   UNL     1      35.696 -10.407 -26.355  0.00  0.00    +0.003 C 
ATOM     28  C   UNL     1      34.972 -11.521 -26.778  0.00  0.00    +0.037 C 
BRANCH  26  29
ATOM     29  O   UNL     1      33.190 -13.069 -26.433  0.00  0.00    -0.464 OA
BRANCH  29  30
ATOM     30  C   UNL     1      32.968 -14.102 -25.472  0.00  0.00    +0.314 C 
BRANCH  30  32
ATOM     31  O   UNL     1      34.339 -16.047 -25.966  0.00  0.00    -0.246 OA
ATOM     32  C   UNL     1      33.285 -15.440 -26.082  0.00  0.00    +0.359 C 
BRANCH  32  33
ATOM     33  O   UNL     1      32.222 -15.894 -26.791  0.00  0.00    -0.478 OA
ATOM     34  H   UNL     1      32.034 -16.811 -26.820  0.00  0.00    +0.295 HD
ENDBRANCH  32  33
ENDBRANCH  30  32
ENDBRANCH  29  30
ENDBRANCH  26  29
ENDBRANCH  22  23
ENDBRANCH   1  22
TORSDOF 11
ENDMDL
MODEL 5
REMARK VINA RESULT:      -9.4      3.028      6.569
REMARK  Name = 9890801
REMARK  11 active torsions:
REMARK  status: ('A' for Active; 'I' for Inactive)
REMARK    1  A    between atoms: N_1  and  S_2
REMARK    2  A    between atoms: N_1  and  C_11
REMARK    3  A    between atoms: N_1  and  C_22
REMARK    4  A    between atoms: S_2  and  C_6
REMARK    5  A    between atoms: C_11  and  C_13
REMARK    6  A    between atoms: C_12  and  C_18
REMARK    7  A    between atoms: C_22  and  C_23
REMARK    8  A    between atoms: C_26  and  O_29
REMARK    9  A    between atoms: O_29  and  C_30
REMARK   10  A    between atoms: C_30  and  C_32
REMARK   11  A    between atoms: C_32  and  O_33
REMARK                            x       y       z     vdW  Elec       q    Type
REMARK                         _______ _______ _______ _____ _____    ______ ____
ROOT
ATOM      1  N   UNL     1      35.842 -23.286 -15.872  0.00  0.00    -0.147 NA
ENDROOT
BRANCH   1   2
ATOM      2  S   UNL     1      36.498 -24.707 -15.146  0.00  0.00    +0.065 S 
ATOM      3  O   UNL     1      37.915 -24.795 -15.448  0.00  0.00    -0.153 OA
ATOM      4  O   UNL     1      35.636 -25.839 -15.435  0.00  0.00    -0.153 OA
BRANCH   2   6
ATOM      5  N   UNL     1      35.207 -24.757 -11.322  0.00  0.00    -0.241 NA
ATOM      6  C   UNL     1      36.349 -24.362 -13.415  0.00  0.00    +0.141 C 
ATOM      7  C   UNL     1      37.208 -23.466 -12.787  0.00  0.00    +0.023 C 
ATOM      8  C   UNL     1      35.374 -24.976 -12.645  0.00  0.00    +0.119 C 
ATOM      9  C   UNL     1      37.067 -23.216 -11.426  0.00  0.00    +0.022 C 
ATOM     10  C   UNL     1      36.060 -23.881 -10.745  0.00  0.00    +0.099 C 
ENDBRANCH   2   6
ENDBRANCH   1   2
BRANCH   1  11
ATOM     11  C   UNL     1      34.944 -22.440 -15.048  0.00  0.00    +0.122 C 
BRANCH  11  13
ATOM     12  C   UNL     1      30.835 -23.600 -15.362  0.00  0.00    -0.023 C 
ATOM     13  C   UNL     1      33.513 -22.844 -15.158  0.00  0.00    -0.004 C 
ATOM     14  C   UNL     1      31.387 -23.318 -14.112  0.00  0.00    -0.005 C 
ATOM     15  C   UNL     1      31.622 -23.504 -16.510  0.00  0.00    -0.005 C 
ATOM     16  C   UNL     1      32.725 -22.941 -14.010  0.00  0.00    -0.003 C 
ATOM     17  C   UNL     1      32.961 -23.126 -16.408  0.00  0.00    -0.003 C 
BRANCH  12  18
ATOM     18  C   UNL     1      29.359 -24.019 -15.475  0.00  0.00    +0.019 C 
ATOM     19  C   UNL     1      29.055 -24.465 -16.921  0.00  0.00    +0.004 C 
ATOM     20  C   UNL     1      28.452 -22.826 -15.109  0.00  0.00    +0.004 C 
ATOM     21  C   UNL     1      28.971 -25.190 -14.545  0.00  0.00    +0.004 C 
ENDBRANCH  12  18
ENDBRANCH  11  13
ENDBRANCH   1  11
BRANCH   1  22
ATOM     22  C   UNL     1      36.739 -22.473 -16.733  0.00  0.00    +0.123 C 
BRANCH  22  23
ATOM     23  C   UNL     1      36.050 -21.993 -17.979  0.00  0.00    -0.001 C 
ATOM     24  C   UNL     1      36.614 -20.967 -18.736  0.00  0.00    +0.034 C 
ATOM     25  C   UNL     1      34.846 -22.574 -18.377  0.00  0.00    -0.003 C 
ATOM     26  C   UNL     1      35.973 -20.521 -19.893  0.00  0.00    +0.139 C 
ATOM     27  C   UNL     1      34.205 -22.128 -19.534  0.00  0.00    +0.003 C 
ATOM     28  C   UNL     1      34.769 -21.101 -20.291  0.00  0.00    +0.037 C 
BRANCH  26  29
ATOM     29  O   UNL     1      36.522 -19.519 -20.632  0.00  0.00    -0.464 OA
BRANCH  29  30
ATOM     30  C   UNL     1      35.647 -18.473 -21.058  0.00  0.00    +0.314 C 
BRANCH  30  32
ATOM     31  O   UNL     1      34.912 -19.317 -23.215  0.00  0.00    -0.246 OA
ATOM     32  C   UNL     1      35.526 -18.491 -22.557  0.00  0.00    +0.359 C 
BRANCH  32  33
ATOM     33  O   UNL     1      36.201 -17.443 -23.092  0.00  0.00    -0.478 OA
ATOM     34  H   UNL     1      36.105 -17.238 -24.001  0.00  0.00    +0.295 HD
ENDBRANCH  32  33
ENDBRANCH  30  32
ENDBRANCH  29  30
ENDBRANCH  26  29
ENDBRANCH  22  23
ENDBRANCH   1  22
TORSDOF 11
ENDMDL
MODEL 6
REMARK VINA RESULT:      -9.3      8.929     13.062
REMARK  Name = 9890801
REMARK  11 active torsions:
REMARK  status: ('A' for Active; 'I' for Inactive)
REMARK    1  A    between atoms: N_1  and  S_2
REMARK    2  A    between atoms: N_1  and  C_11
REMARK    3  A    between atoms: N_1  and  C_22
REMARK    4  A    between atoms: S_2  and  C_6
REMARK    5  A    between atoms: C_11  and  C_13
REMARK    6  A    between atoms: C_12  and  C_18
REMARK    7  A    between atoms: C_22  and  C_23
REMARK    8  A    between atoms: C_26  and  O_29
REMARK    9  A    between atoms: O_29  and  C_30
REMARK   10  A    between atoms: C_30  and  C_32
REMARK   11  A    between atoms: C_32  and  O_33
REMARK                            x       y       z     vdW  Elec       q    Type
REMARK                         _______ _______ _______ _____ _____    ______ ____
ROOT
ATOM      1  N   UNL     1      32.323 -13.101 -22.259  0.00  0.00    -0.147 NA
ENDROOT
BRANCH   1   2
ATOM      2  S   UNL     1      33.504 -12.730 -23.460  0.00  0.00    +0.065 S 
ATOM      3  O   UNL     1      34.814 -12.643 -22.839  0.00  0.00    -0.153 OA
ATOM      4  O   UNL     1      33.030 -11.631 -24.281  0.00  0.00    -0.153 OA
BRANCH   2   6
ATOM      5  N   UNL     1      32.713 -15.311 -26.460  0.00  0.00    -0.241 NA
ATOM      6  C   UNL     1      33.498 -14.183 -24.472  0.00  0.00    +0.141 C 
ATOM      7  C   UNL     1      34.233 -15.309 -24.114  0.00  0.00    +0.023 C 
ATOM      8  C   UNL     1      32.761 -14.235 -25.645  0.00  0.00    +0.119 C 
ATOM      9  C   UNL     1      34.208 -16.436 -24.930  0.00  0.00    +0.022 C 
ATOM     10  C   UNL     1      33.439 -16.386 -26.081  0.00  0.00    +0.099 C 
ENDBRANCH   2   6
ENDBRANCH   1   2
BRANCH   1  11
ATOM     11  C   UNL     1      32.802 -13.600 -20.947  0.00  0.00    +0.122 C 
BRANCH  11  13
ATOM     12  C   UNL     1      34.158 -17.657 -21.116  0.00  0.00    -0.023 C 
ATOM     13  C   UNL     1      33.274 -15.013 -21.006  0.00  0.00    -0.004 C 
ATOM     14  C   UNL     1      35.076 -16.622 -20.932  0.00  0.00    -0.005 C 
ATOM     15  C   UNL     1      32.799 -17.370 -21.245  0.00  0.00    -0.005 C 
ATOM     16  C   UNL     1      34.634 -15.301 -20.878  0.00  0.00    -0.003 C 
ATOM     17  C   UNL     1      32.357 -16.048 -21.190  0.00  0.00    -0.003 C 
BRANCH  12  18
ATOM     18  C   UNL     1      34.646 -19.114 -21.179  0.00  0.00    +0.019 C 
ATOM     19  C   UNL     1      34.769 -19.558 -22.652  0.00  0.00    +0.004 C 
ATOM     20  C   UNL     1      33.636 -20.030 -20.455  0.00  0.00    +0.004 C 
ATOM     21  C   UNL     1      36.023 -19.341 -20.517  0.00  0.00    +0.004 C 
ENDBRANCH  12  18
ENDBRANCH  11  13
ENDBRANCH   1  11
BRANCH   1  22
ATOM     22  C   UNL     1      31.168 -12.178 -22.117  0.00  0.00    +0.123 C 
BRANCH  22  23
ATOM     23  C   UNL     1      31.472 -11.022 -21.207  0.00  0.00    -0.001 C 
ATOM     24  C   UNL     1      31.914  -9.811 -21.741  0.00  0.00    +0.034 C 
ATOM     25  C   UNL     1      31.313 -11.160 -19.828  0.00  0.00    -0.003 C 
ATOM     26  C   UNL     1      32.197  -8.739 -20.896  0.00  0.00    +0.139 C 
ATOM     27  C   UNL     1      31.597 -10.086 -18.983  0.00  0.00    +0.003 C 
ATOM     28  C   UNL     1      32.039  -8.876 -19.516  0.00  0.00    +0.037 C 
BRANCH  26  29
ATOM     29  O   UNL     1      32.630  -7.557 -21.415  0.00  0.00    -0.464 OA
BRANCH  29  30
ATOM     30  C   UNL     1      31.924  -6.379 -21.025  0.00  0.00    +0.314 C 
BRANCH  30  32
ATOM     31  O   UNL     1      30.830  -6.538 -23.190  0.00  0.00    -0.246 OA
ATOM     32  C   UNL     1      30.999  -5.952 -22.131  0.00  0.00    +0.359 C 
BRANCH  32  33
ATOM     33  O   UNL     1      30.361  -4.804 -21.789  0.00  0.00    -0.478 OA
ATOM     34  H   UNL     1      30.819  -4.134 -21.321  0.00  0.00    +0.295 HD
ENDBRANCH  32  33
ENDBRANCH  30  32
ENDBRANCH  29  30
ENDBRANCH  26  29
ENDBRANCH  22  23
ENDBRANCH   1  22
TORSDOF 11
ENDMDL
MODEL 7
REMARK VINA RESULT:      -9.1      2.350      6.248
REMARK  Name = 9890801
REMARK  11 active torsions:
REMARK  status: ('A' for Active; 'I' for Inactive)
REMARK    1  A    between atoms: N_1  and  S_2
REMARK    2  A    between atoms: N_1  and  C_11
REMARK    3  A    between atoms: N_1  and  C_22
REMARK    4  A    between atoms: S_2  and  C_6
REMARK    5  A    between atoms: C_11  and  C_13
REMARK    6  A    between atoms: C_12  and  C_18
REMARK    7  A    between atoms: C_22  and  C_23
REMARK    8  A    between atoms: C_26  and  O_29
REMARK    9  A    between atoms: O_29  and  C_30
REMARK   10  A    between atoms: C_30  and  C_32
REMARK   11  A    between atoms: C_32  and  O_33
REMARK                            x       y       z     vdW  Elec       q    Type
REMARK                         _______ _______ _______ _____ _____    ______ ____
ROOT
ATOM      1  N   UNL     1      34.193 -22.942 -17.711  0.00  0.00    -0.147 NA
ENDROOT
BRANCH   1   2
ATOM      2  S   UNL     1      33.578 -22.229 -19.157  0.00  0.00    +0.065 S 
ATOM      3  O   UNL     1      32.462 -21.361 -18.830  0.00  0.00    -0.153 OA
ATOM      4  O   UNL     1      33.411 -23.256 -20.169  0.00  0.00    -0.153 OA
BRANCH   2   6
ATOM      5  N   UNL     1      35.654 -19.182 -20.799  0.00  0.00    -0.241 NA
ATOM      6  C   UNL     1      34.916 -21.191 -19.677  0.00  0.00    +0.141 C 
ATOM      7  C   UNL     1      36.235 -21.530 -19.398  0.00  0.00    +0.023 C 
ATOM      8  C   UNL     1      34.680 -20.017 -20.374  0.00  0.00    +0.119 C 
ATOM      9  C   UNL     1      37.265 -20.695 -19.819  0.00  0.00    +0.022 C 
ATOM     10  C   UNL     1      36.924 -19.543 -20.510  0.00  0.00    +0.099 C 
ENDBRANCH   2   6
ENDBRANCH   1   2
BRANCH   1  11
ATOM     11  C   UNL     1      34.775 -22.040 -16.687  0.00  0.00    +0.122 C 
BRANCH  11  13
ATOM     12  C   UNL     1      37.423 -24.074 -14.008  0.00  0.00    -0.023 C 
ATOM     13  C   UNL     1      35.698 -22.748 -15.754  0.00  0.00    -0.004 C 
ATOM     14  C   UNL     1      36.118 -23.782 -13.611  0.00  0.00    -0.005 C 
ATOM     15  C   UNL     1      37.865 -23.703 -15.278  0.00  0.00    -0.005 C 
ATOM     16  C   UNL     1      35.256 -23.119 -14.484  0.00  0.00    -0.003 C 
ATOM     17  C   UNL     1      37.002 -23.040 -16.151  0.00  0.00    -0.003 C 
BRANCH  12  18
ATOM     18  C   UNL     1      38.375 -24.803 -13.045  0.00  0.00    +0.019 C 
ATOM     19  C   UNL     1      37.672 -26.047 -12.462  0.00  0.00    +0.004 C 
ATOM     20  C   UNL     1      38.771 -23.855 -11.892  0.00  0.00    +0.004 C 
ATOM     21  C   UNL     1      39.684 -25.286 -13.708  0.00  0.00    +0.004 C 
ENDBRANCH  12  18
ENDBRANCH  11  13
ENDBRANCH   1  11
BRANCH   1  22
ATOM     22  C   UNL     1      33.414 -24.049 -17.101  0.00  0.00    +0.123 C 
BRANCH  22  23
ATOM     23  C   UNL     1      32.223 -23.551 -16.332  0.00  0.00    -0.001 C 
ATOM     24  C   UNL     1      31.128 -23.018 -17.011  0.00  0.00    +0.034 C 
ATOM     25  C   UNL     1      32.214 -23.622 -14.939  0.00  0.00    -0.003 C 
ATOM     26  C   UNL     1      30.023 -22.555 -16.297  0.00  0.00    +0.139 C 
ATOM     27  C   UNL     1      31.108 -23.158 -14.225  0.00  0.00    +0.003 C 
ATOM     28  C   UNL     1      30.013 -22.625 -14.904  0.00  0.00    +0.037 C 
BRANCH  26  29
ATOM     29  O   UNL     1      28.954 -22.034 -16.959  0.00  0.00    -0.464 OA
BRANCH  29  30
ATOM     30  C   UNL     1      27.709 -22.721 -16.825  0.00  0.00    +0.314 C 
BRANCH  30  32
ATOM     31  O   UNL     1      26.500 -20.837 -17.770  0.00  0.00    -0.246 OA
ATOM     32  C   UNL     1      26.573 -21.744 -16.955  0.00  0.00    +0.359 C 
BRANCH  32  33
ATOM     33  O   UNL     1      25.618 -22.013 -16.030  0.00  0.00    -0.478 OA
ATOM     34  H   UNL     1      25.159 -22.830 -16.052  0.00  0.00    +0.295 HD
ENDBRANCH  32  33
ENDBRANCH  30  32
ENDBRANCH  29  30
ENDBRANCH  26  29
ENDBRANCH  22  23
ENDBRANCH   1  22
TORSDOF 11
ENDMDL
MODEL 8
REMARK VINA RESULT:      -8.7      3.256      7.732
REMARK  Name = 9890801
REMARK  11 active torsions:
REMARK  status: ('A' for Active; 'I' for Inactive)
REMARK    1  A    between atoms: N_1  and  S_2
REMARK    2  A    between atoms: N_1  and  C_11
REMARK    3  A    between atoms: N_1  and  C_22
REMARK    4  A    between atoms: S_2  and  C_6
REMARK    5  A    between atoms: C_11  and  C_13
REMARK    6  A    between atoms: C_12  and  C_18
REMARK    7  A    between atoms: C_22  and  C_23
REMARK    8  A    between atoms: C_26  and  O_29
REMARK    9  A    between atoms: O_29  and  C_30
REMARK   10  A    between atoms: C_30  and  C_32
REMARK   11  A    between atoms: C_32  and  O_33
REMARK                            x       y       z     vdW  Elec       q    Type
REMARK                         _______ _______ _______ _____ _____    ______ ____
ROOT
ATOM      1  N   UNL     1      32.916 -23.137 -16.531  0.00  0.00    -0.147 NA
ENDROOT
BRANCH   1   2
ATOM      2  S   UNL     1      31.854 -23.322 -15.184  0.00  0.00    +0.065 S 
ATOM      3  O   UNL     1      31.922 -22.137 -14.348  0.00  0.00    -0.153 OA
ATOM      4  O   UNL     1      32.054 -24.629 -14.586  0.00  0.00    -0.153 OA
BRANCH   2   6
ATOM      5  N   UNL     1      28.420 -22.092 -16.912  0.00  0.00    -0.241 NA
ATOM      6  C   UNL     1      30.256 -23.333 -15.949  0.00  0.00    +0.141 C 
ATOM      7  C   UNL     1      29.586 -24.527 -16.191  0.00  0.00    +0.023 C 
ATOM      8  C   UNL     1      29.635 -22.153 -16.326  0.00  0.00    +0.119 C 
ATOM      9  C   UNL     1      28.333 -24.505 -16.794  0.00  0.00    +0.022 C 
ATOM     10  C   UNL     1      27.798 -23.272 -17.132  0.00  0.00    +0.099 C 
ENDBRANCH   2   6
ENDBRANCH   1   2
BRANCH   1  11
ATOM     11  C   UNL     1      33.874 -24.234 -16.812  0.00  0.00    +0.122 C 
BRANCH  11  13
ATOM     12  C   UNL     1      36.930 -24.561 -13.833  0.00  0.00    -0.023 C 
ATOM     13  C   UNL     1      34.939 -24.348 -15.775  0.00  0.00    -0.004 C 
ATOM     14  C   UNL     1      36.437 -23.306 -14.191  0.00  0.00    -0.005 C 
ATOM     15  C   UNL     1      36.429 -25.709 -14.445  0.00  0.00    -0.005 C 
ATOM     16  C   UNL     1      35.442 -23.200 -15.162  0.00  0.00    -0.003 C 
ATOM     17  C   UNL     1      35.432 -25.603 -15.417  0.00  0.00    -0.003 C 
BRANCH  12  18
ATOM     18  C   UNL     1      38.030 -24.678 -12.764  0.00  0.00    +0.019 C 
ATOM     19  C   UNL     1      39.390 -24.944 -13.444  0.00  0.00    +0.004 C 
ATOM     20  C   UNL     1      37.703 -25.846 -11.809  0.00  0.00    +0.004 C 
ATOM     21  C   UNL     1      38.194 -23.411 -11.895  0.00  0.00    +0.004 C 
ENDBRANCH  12  18
ENDBRANCH  11  13
ENDBRANCH   1  11
BRANCH   1  22
ATOM     22  C   UNL     1      32.358 -22.551 -17.776  0.00  0.00    +0.123 C 
BRANCH  22  23
ATOM     23  C   UNL     1      33.418 -21.920 -18.633  0.00  0.00    -0.001 C 
ATOM     24  C   UNL     1      33.067 -20.965 -19.587  0.00  0.00    +0.034 C 
ATOM     25  C   UNL     1      34.754 -22.288 -18.474  0.00  0.00    -0.003 C 
ATOM     26  C   UNL     1      34.051 -20.380 -20.383  0.00  0.00    +0.139 C 
ATOM     27  C   UNL     1      35.738 -21.703 -19.270  0.00  0.00    +0.003 C 
ATOM     28  C   UNL     1      35.387 -20.748 -20.225  0.00  0.00    +0.037 C 
BRANCH  26  29
ATOM     29  O   UNL     1      33.710 -19.450 -21.316  0.00  0.00    -0.464 OA
BRANCH  29  30
ATOM     30  C   UNL     1      34.726 -19.047 -22.234  0.00  0.00    +0.314 C 
BRANCH  30  32
ATOM     31  O   UNL     1      35.200 -17.182 -20.750  0.00  0.00    -0.246 OA
ATOM     32  C   UNL     1      35.233 -17.681 -21.865  0.00  0.00    +0.359 C 
BRANCH  32  33
ATOM     33  O   UNL     1      35.745 -17.061 -22.958  0.00  0.00    -0.478 OA
ATOM     34  H   UNL     1      36.218 -16.258 -22.863  0.00  0.00    +0.295 HD
ENDBRANCH  32  33
ENDBRANCH  30  32
ENDBRANCH  29  30
ENDBRANCH  26  29
ENDBRANCH  22  23
ENDBRANCH   1  22
TORSDOF 11
ENDMDL
