MODEL 1
REMARK VINA RESULT:      -9.1      0.000      0.000
REMARK  Name = 24798742
REMARK  0 active torsions:
REMARK  status: ('A' for Active; 'I' for Inactive)
REMARK                            x       y       z     vdW  Elec       q    Type
REMARK                         _______ _______ _______ _____ _____    ______ ____
ROOT
ATOM      1 CL   UNL     1      35.208 -19.425 -24.291  0.00  0.00    -0.085 Cl
ATOM      2  N   UNL     1      34.274 -18.581 -21.246  0.00  0.00    -0.291 N 
ATOM      3  N   UNL     1      32.790 -21.420 -19.214  0.00  0.00    -0.318 N 
ATOM      4  N   UNL     1      34.846 -22.294 -19.323  0.00  0.00    -0.319 N 
ATOM      5  N   UNL     1      33.552 -16.330 -21.009  0.00  0.00    -0.233 NA
ATOM      6  N   UNL     1      34.255 -15.723 -24.941  0.00  0.00    -0.300 N 
ATOM      7  N   UNL     1      33.502 -14.755 -22.865  0.00  0.00    -0.233 NA
ATOM      8  C   UNL     1      35.660 -18.959 -20.860  0.00  0.00    +0.098 C 
ATOM      9  C   UNL     1      33.131 -19.304 -20.622  0.00  0.00    +0.134 C 
ATOM     10  C   UNL     1      35.883 -20.488 -20.773  0.00  0.00    +0.063 C 
ATOM     11  C   UNL     1      33.534 -20.570 -19.973  0.00  0.00    +0.052 C 
ATOM     12  C   UNL     1      34.786 -21.124 -20.023  0.00  0.00    +0.035 C 
ATOM     13  C   UNL     1      34.023 -17.318 -21.804  0.00  0.00    +0.117 C 
ATOM     14  C   UNL     1      34.251 -17.062 -23.155  0.00  0.00    +0.142 C 
ATOM     15  C   UNL     1      33.970 -15.776 -23.602  0.00  0.00    +0.118 C 
ATOM     16  C   UNL     1      33.626 -22.445 -18.844  0.00  0.00    +0.181 C 
ATOM     17  C   UNL     1      34.720 -17.796 -24.275  0.00  0.00    +0.064 C 
ATOM     18  C   UNL     1      34.712 -16.946 -25.361  0.00  0.00    +0.071 C 
ATOM     19  C   UNL     1      33.324 -15.126 -21.581  0.00  0.00    +0.252 C 
ATOM     20  H   UNL     1      31.839 -21.319 -18.977  0.00  0.00    +0.148 HD
ATOM     21  H   UNL     1      35.622 -22.888 -19.203  0.00  0.00    +0.148 HD
ATOM     22  H   UNL     1      34.149 -14.929 -25.513  0.00  0.00    +0.153 HD
ENDROOT
TORSDOF 0
ENDMDL
MODEL 2
REMARK VINA RESULT:      -8.5      6.708      9.730
REMARK  Name = 24798742
REMARK  0 active torsions:
REMARK  status: ('A' for Active; 'I' for Inactive)
REMARK                            x       y       z     vdW  Elec       q    Type
REMARK                         _______ _______ _______ _____ _____    ______ ____
ROOT
ATOM      1 CL   UNL     1      32.562  -9.300 -19.625  0.00  0.00    -0.085 Cl
ATOM      2  N   UNL     1      32.062 -10.030 -22.799  0.00  0.00    -0.291 N 
ATOM      3  N   UNL     1      34.037 -13.014 -24.056  0.00  0.00    -0.318 N 
ATOM      4  N   UNL     1      32.762 -14.189 -22.643  0.00  0.00    -0.319 N 
ATOM      5  N   UNL     1      31.541  -8.170 -24.183  0.00  0.00    -0.233 NA
ATOM      6  N   UNL     1      31.814  -5.740 -20.967  0.00  0.00    -0.300 N 
ATOM      7  N   UNL     1      31.386  -5.894 -23.335  0.00  0.00    -0.233 NA
ATOM      8  C   UNL     1      30.969 -10.901 -22.289  0.00  0.00    +0.098 C 
ATOM      9  C   UNL     1      33.172 -10.649 -23.575  0.00  0.00    +0.134 C 
ATOM     10  C   UNL     1      31.473 -12.229 -21.674  0.00  0.00    +0.063 C 
ATOM     11  C   UNL     1      33.240 -12.117 -23.415  0.00  0.00    +0.052 C 
ATOM     12  C   UNL     1      32.469 -12.858 -22.559  0.00  0.00    +0.035 C 
ATOM     13  C   UNL     1      31.842  -8.653 -22.956  0.00  0.00    +0.117 C 
ATOM     14  C   UNL     1      31.925  -7.776 -21.874  0.00  0.00    +0.142 C 
ATOM     15  C   UNL     1      31.688  -6.433 -22.142  0.00  0.00    +0.118 C 
ATOM     16  C   UNL     1      33.711 -14.251 -23.556  0.00  0.00    +0.181 C 
ATOM     17  C   UNL     1      32.202  -7.879 -20.487  0.00  0.00    +0.064 C 
ATOM     18  C   UNL     1      32.127  -6.610 -19.953  0.00  0.00    +0.071 C 
ATOM     19  C   UNL     1      31.335  -6.838 -24.295  0.00  0.00    +0.252 C 
ATOM     20  H   UNL     1      34.715 -12.815 -24.743  0.00  0.00    +0.148 HD
ATOM     21  H   UNL     1      32.358 -14.931 -22.137  0.00  0.00    +0.148 HD
ATOM     22  H   UNL     1      31.698  -4.768 -20.866  0.00  0.00    +0.153 HD
ENDROOT
TORSDOF 0
ENDMDL
MODEL 3
REMARK VINA RESULT:      -8.4      1.435      5.954
REMARK  Name = 24798742
REMARK  0 active torsions:
REMARK  status: ('A' for Active; 'I' for Inactive)
REMARK                            x       y       z     vdW  Elec       q    Type
REMARK                         _______ _______ _______ _____ _____    ______ ____
ROOT
ATOM      1 CL   UNL     1      37.404 -19.231 -21.078  0.00  0.00    -0.085 Cl
ATOM      2  N   UNL     1      34.231 -18.516 -21.600  0.00  0.00    -0.291 N 
ATOM      3  N   UNL     1      33.520 -14.830 -22.153  0.00  0.00    -0.318 N 
ATOM      4  N   UNL     1      34.711 -15.096 -24.027  0.00  0.00    -0.319 N 
ATOM      5  N   UNL     1      32.688 -19.964 -20.519  0.00  0.00    -0.233 NA
ATOM      6  N   UNL     1      35.781 -22.055 -18.975  0.00  0.00    -0.300 N 
ATOM      7  N   UNL     1      33.384 -21.837 -19.130  0.00  0.00    -0.233 NA
ATOM      8  C   UNL     1      34.558 -18.722 -23.036  0.00  0.00    +0.098 C 
ATOM      9  C   UNL     1      33.715 -17.188 -21.163  0.00  0.00    +0.134 C 
ATOM     10  C   UNL     1      35.320 -17.535 -23.674  0.00  0.00    +0.063 C 
ATOM     11  C   UNL     1      33.952 -16.121 -22.159  0.00  0.00    +0.052 C 
ATOM     12  C   UNL     1      34.675 -16.260 -23.314  0.00  0.00    +0.035 C 
ATOM     13  C   UNL     1      33.971 -19.622 -20.776  0.00  0.00    +0.117 C 
ATOM     14  C   UNL     1      35.007 -20.373 -20.221  0.00  0.00    +0.142 C 
ATOM     15  C   UNL     1      34.637 -21.448 -19.422  0.00  0.00    +0.118 C 
ATOM     16  C   UNL     1      34.003 -14.253 -23.301  0.00  0.00    +0.181 C 
ATOM     17  C   UNL     1      36.425 -20.345 -20.247  0.00  0.00    +0.064 C 
ATOM     18  C   UNL     1      36.875 -21.392 -19.470  0.00  0.00    +0.071 C 
ATOM     19  C   UNL     1      32.477 -21.036 -19.722  0.00  0.00    +0.252 C 
ATOM     20  H   UNL     1      32.970 -14.397 -21.461  0.00  0.00    +0.148 HD
ATOM     21  H   UNL     1      35.162 -14.927 -24.886  0.00  0.00    +0.148 HD
ATOM     22  H   UNL     1      35.812 -22.845 -18.389  0.00  0.00    +0.153 HD
ENDROOT
TORSDOF 0
ENDMDL
MODEL 4
REMARK VINA RESULT:      -8.4      6.866     10.946
REMARK  Name = 24798742
REMARK  0 active torsions:
REMARK  status: ('A' for Active; 'I' for Inactive)
REMARK                            x       y       z     vdW  Elec       q    Type
REMARK                         _______ _______ _______ _____ _____    ______ ____
ROOT
ATOM      1 CL   UNL     1      30.974 -10.920 -20.472  0.00  0.00    -0.085 Cl
ATOM      2  N   UNL     1      32.412  -8.928 -22.668  0.00  0.00    -0.291 N 
ATOM      3  N   UNL     1      30.549  -5.685 -23.303  0.00  0.00    -0.318 N 
ATOM      4  N   UNL     1      31.065  -5.216 -21.178  0.00  0.00    -0.319 N 
ATOM      5  N   UNL     1      33.656 -10.037 -24.361  0.00  0.00    -0.233 NA
ATOM      6  N   UNL     1      32.678 -13.591 -22.707  0.00  0.00    -0.300 N 
ATOM      7  N   UNL     1      33.862 -12.460 -24.477  0.00  0.00    -0.233 NA
ATOM      8  C   UNL     1      33.114  -8.355 -21.488  0.00  0.00    +0.098 C 
ATOM      9  C   UNL     1      31.552  -8.037 -23.496  0.00  0.00    +0.134 C 
ATOM     10  C   UNL     1      32.231  -7.406 -20.643  0.00  0.00    +0.063 C 
ATOM     11  C   UNL     1      31.208  -6.771 -22.815  0.00  0.00    +0.052 C 
ATOM     12  C   UNL     1      31.514  -6.460 -21.516  0.00  0.00    +0.035 C 
ATOM     13  C   UNL     1      32.882 -10.113 -23.254  0.00  0.00    +0.117 C 
ATOM     14  C   UNL     1      32.571 -11.362 -22.718  0.00  0.00    +0.142 C 
ATOM     15  C   UNL     1      33.090 -12.470 -23.377  0.00  0.00    +0.118 C 
ATOM     16  C   UNL     1      30.488  -4.773 -22.279  0.00  0.00    +0.181 C 
ATOM     17  C   UNL     1      31.823 -11.850 -21.615  0.00  0.00    +0.064 C 
ATOM     18  C   UNL     1      31.906 -13.226 -21.634  0.00  0.00    +0.071 C 
ATOM     19  C   UNL     1      34.092 -11.200 -24.897  0.00  0.00    +0.252 C 
ATOM     20  H   UNL     1      30.187  -5.576 -24.213  0.00  0.00    +0.148 HD
ATOM     21  H   UNL     1      31.152  -4.756 -20.312  0.00  0.00    +0.148 HD
ATOM     22  H   UNL     1      32.902 -14.517 -22.957  0.00  0.00    +0.153 HD
ENDROOT
TORSDOF 0
ENDMDL
MODEL 5
REMARK VINA RESULT:      -8.3      1.669      6.160
REMARK  Name = 24798742
REMARK  0 active torsions:
REMARK  status: ('A' for Active; 'I' for Inactive)
REMARK                            x       y       z     vdW  Elec       q    Type
REMARK                         _______ _______ _______ _____ _____    ______ ____
ROOT
ATOM      1 CL   UNL     1      31.928 -19.134 -20.666  0.00  0.00    -0.085 Cl
ATOM      2  N   UNL     1      34.644 -17.567 -21.678  0.00  0.00    -0.291 N 
ATOM      3  N   UNL     1      34.143 -15.355 -24.719  0.00  0.00    -0.318 N 
ATOM      4  N   UNL     1      32.846 -14.140 -23.361  0.00  0.00    -0.319 N 
ATOM      5  N   UNL     1      36.679 -18.722 -21.262  0.00  0.00    -0.233 NA
ATOM      6  N   UNL     1      34.586 -21.736 -19.572  0.00  0.00    -0.300 N 
ATOM      7  N   UNL     1      36.765 -20.897 -20.173  0.00  0.00    -0.233 NA
ATOM      8  C   UNL     1      34.204 -16.487 -20.754  0.00  0.00    +0.098 C 
ATOM      9  C   UNL     1      34.794 -17.257 -23.127  0.00  0.00    +0.134 C 
ATOM     10  C   UNL     1      33.046 -15.628 -21.315  0.00  0.00    +0.063 C 
ATOM     11  C   UNL     1      34.119 -16.002 -23.522  0.00  0.00    +0.052 C 
ATOM     12  C   UNL     1      33.322 -15.240 -22.709  0.00  0.00    +0.035 C 
ATOM     13  C   UNL     1      35.329 -18.683 -21.173  0.00  0.00    +0.117 C 
ATOM     14  C   UNL     1      34.649 -19.746 -20.581  0.00  0.00    +0.142 C 
ATOM     15  C   UNL     1      35.426 -20.799 -20.113  0.00  0.00    +0.118 C 
ATOM     16  C   UNL     1      33.360 -14.236 -24.572  0.00  0.00    +0.181 C 
ATOM     17  C   UNL     1      33.297 -20.075 -20.304  0.00  0.00    +0.064 C 
ATOM     18  C   UNL     1      33.288 -21.306 -19.683  0.00  0.00    +0.071 C 
ATOM     19  C   UNL     1      37.305 -19.812 -20.764  0.00  0.00    +0.252 C 
ATOM     20  H   UNL     1      34.626 -15.635 -25.530  0.00  0.00    +0.148 HD
ATOM     21  H   UNL     1      32.255 -13.436 -23.008  0.00  0.00    +0.148 HD
ATOM     22  H   UNL     1      34.870 -22.587 -19.166  0.00  0.00    +0.153 HD
ENDROOT
TORSDOF 0
ENDMDL
MODEL 6
REMARK VINA RESULT:      -8.3      5.304      8.213
REMARK  Name = 24798742
REMARK  0 active torsions:
REMARK  status: ('A' for Active; 'I' for Inactive)
REMARK                            x       y       z     vdW  Elec       q    Type
REMARK                         _______ _______ _______ _____ _____    ______ ____
ROOT
ATOM      1 CL   UNL     1      36.705 -22.276 -17.914  0.00  0.00    -0.085 Cl
ATOM      2  N   UNL     1      35.084 -23.673 -15.409  0.00  0.00    -0.291 N 
ATOM      3  N   UNL     1      37.003 -26.423 -13.634  0.00  0.00    -0.318 N 
ATOM      4  N   UNL     1      38.383 -24.774 -13.017  0.00  0.00    -0.319 N 
ATOM      5  N   UNL     1      32.721 -23.716 -15.646  0.00  0.00    -0.233 NA
ATOM      6  N   UNL     1      33.077 -21.860 -19.217  0.00  0.00    -0.300 N 
ATOM      7  N   UNL     1      31.570 -22.800 -17.586  0.00  0.00    -0.233 NA
ATOM      8  C   UNL     1      35.727 -22.618 -14.580  0.00  0.00    +0.098 C 
ATOM      9  C   UNL     1      35.356 -25.103 -15.090  0.00  0.00    +0.134 C 
ATOM     10  C   UNL     1      37.216 -22.898 -14.266  0.00  0.00    +0.063 C 
ATOM     11  C   UNL     1      36.535 -25.286 -14.217  0.00  0.00    +0.052 C 
ATOM     12  C   UNL     1      37.393 -24.292 -13.823  0.00  0.00    +0.035 C 
ATOM     13  C   UNL     1      33.930 -23.375 -16.148  0.00  0.00    +0.117 C 
ATOM     14  C   UNL     1      34.004 -22.735 -17.385  0.00  0.00    +0.142 C 
ATOM     15  C   UNL     1      32.799 -22.487 -18.031  0.00  0.00    +0.118 C 
ATOM     16  C   UNL     1      38.119 -26.063 -12.920  0.00  0.00    +0.181 C 
ATOM     17  C   UNL     1      35.033 -22.234 -18.223  0.00  0.00    +0.064 C 
ATOM     18  C   UNL     1      34.433 -21.701 -19.344  0.00  0.00    +0.071 C 
ATOM     19  C   UNL     1      31.630 -23.412 -16.386  0.00  0.00    +0.252 C 
ATOM     20  H   UNL     1      36.618 -27.326 -13.711  0.00  0.00    +0.148 HD
ATOM     21  H   UNL     1      39.123 -24.274 -12.602  0.00  0.00    +0.148 HD
ATOM     22  H   UNL     1      32.406 -21.568 -19.875  0.00  0.00    +0.153 HD
ENDROOT
TORSDOF 0
ENDMDL
MODEL 7
REMARK VINA RESULT:      -8.2      7.298      9.334
REMARK  Name = 24798742
REMARK  0 active torsions:
REMARK  status: ('A' for Active; 'I' for Inactive)
REMARK                            x       y       z     vdW  Elec       q    Type
REMARK                         _______ _______ _______ _____ _____    ______ ____
ROOT
ATOM      1 CL   UNL     1      34.656 -22.811 -17.833  0.00  0.00    -0.085 Cl
ATOM      2  N   UNL     1      35.058 -24.163 -14.855  0.00  0.00    -0.291 N 
ATOM      3  N   UNL     1      37.966 -26.586 -14.608  0.00  0.00    -0.318 N 
ATOM      4  N   UNL     1      39.232 -24.777 -14.963  0.00  0.00    -0.319 N 
ATOM      5  N   UNL     1      33.058 -24.439 -13.603  0.00  0.00    -0.233 NA
ATOM      6  N   UNL     1      30.961 -22.827 -16.658  0.00  0.00    -0.300 N 
ATOM      7  N   UNL     1      30.871 -23.779 -14.444  0.00  0.00    -0.233 NA
ATOM      8  C   UNL     1      35.941 -22.995 -14.591  0.00  0.00    +0.098 C 
ATOM      9  C   UNL     1      35.633 -25.534 -14.763  0.00  0.00    +0.134 C 
ATOM     10  C   UNL     1      37.337 -23.114 -15.248  0.00  0.00    +0.063 C 
ATOM     11  C   UNL     1      37.111 -25.543 -14.788  0.00  0.00    +0.052 C 
ATOM     12  C   UNL     1      37.908 -24.449 -15.001  0.00  0.00    +0.035 C 
ATOM     13  C   UNL     1      33.666 -24.027 -14.739  0.00  0.00    +0.117 C 
ATOM     14  C   UNL     1      32.902 -23.476 -15.767  0.00  0.00    +0.142 C 
ATOM     15  C   UNL     1      31.532 -23.388 -15.546  0.00  0.00    +0.118 C 
ATOM     16  C   UNL     1      39.235 -26.074 -14.722  0.00  0.00    +0.181 C 
ATOM     17  C   UNL     1      33.147 -22.946 -17.060  0.00  0.00    +0.064 C 
ATOM     18  C   UNL     1      31.934 -22.554 -17.585  0.00  0.00    +0.071 C 
ATOM     19  C   UNL     1      31.715 -24.292 -13.527  0.00  0.00    +0.252 C 
ATOM     20  H   UNL     1      37.722 -27.524 -14.432  0.00  0.00    +0.148 HD
ATOM     21  H   UNL     1      40.007 -24.182 -15.086  0.00  0.00    +0.148 HD
ATOM     22  H   UNL     1      30.000 -22.647 -16.772  0.00  0.00    +0.153 HD
ENDROOT
TORSDOF 0
ENDMDL
MODEL 8
REMARK VINA RESULT:      -8.2      7.573      9.913
REMARK  Name = 24798742
REMARK  0 active torsions:
REMARK  status: ('A' for Active; 'I' for Inactive)
REMARK                            x       y       z     vdW  Elec       q    Type
REMARK                         _______ _______ _______ _____ _____    ______ ____
ROOT
ATOM      1 CL   UNL     1      34.267 -24.498 -12.419  0.00  0.00    -0.085 Cl
ATOM      2  N   UNL     1      35.717 -24.557 -15.377  0.00  0.00    -0.291 N 
ATOM      3  N   UNL     1      39.494 -24.213 -15.283  0.00  0.00    -0.318 N 
ATOM      4  N   UNL     1      39.440 -26.200 -14.259  0.00  0.00    -0.319 N 
ATOM      5  N   UNL     1      34.400 -23.688 -17.154  0.00  0.00    -0.233 NA
ATOM      6  N   UNL     1      31.419 -22.934 -14.534  0.00  0.00    -0.300 N 
ATOM      7  N   UNL     1      32.151 -22.818 -16.828  0.00  0.00    -0.233 NA
ATOM      8  C   UNL     1      35.793 -26.027 -15.162  0.00  0.00    +0.098 C 
ATOM      9  C   UNL     1      36.980 -23.792 -15.570  0.00  0.00    +0.134 C 
ATOM     10  C   UNL     1      36.916 -26.453 -14.186  0.00  0.00    +0.063 C 
ATOM     11  C   UNL     1      38.181 -24.544 -15.146  0.00  0.00    +0.052 C 
ATOM     12  C   UNL     1      38.174 -25.763 -14.520  0.00  0.00    +0.035 C 
ATOM     13  C   UNL     1      34.524 -23.979 -15.838  0.00  0.00    +0.117 C 
ATOM     14  C   UNL     1      33.469 -23.701 -14.971  0.00  0.00    +0.142 C 
ATOM     15  C   UNL     1      32.334 -23.129 -15.534  0.00  0.00    +0.118 C 
ATOM     16  C   UNL     1      40.215 -25.244 -14.734  0.00  0.00    +0.181 C 
ATOM     17  C   UNL     1      33.212 -23.848 -13.584  0.00  0.00    +0.064 C 
ATOM     18  C   UNL     1      31.943 -23.368 -13.343  0.00  0.00    +0.071 C 
ATOM     19  C   UNL     1      33.237 -23.133 -17.562  0.00  0.00    +0.252 C 
ATOM     20  H   UNL     1      39.855 -23.395 -15.696  0.00  0.00    +0.148 HD
ATOM     21  H   UNL     1      39.712 -27.038 -13.818  0.00  0.00    +0.148 HD
ATOM     22  H   UNL     1      30.523 -22.543 -14.652  0.00  0.00    +0.153 HD
ENDROOT
TORSDOF 0
ENDMDL
MODEL 9
REMARK VINA RESULT:      -8.1      1.751      2.973
REMARK  Name = 24798742
REMARK  0 active torsions:
REMARK  status: ('A' for Active; 'I' for Inactive)
REMARK                            x       y       z     vdW  Elec       q    Type
REMARK                         _______ _______ _______ _____ _____    ______ ____
ROOT
ATOM      1 CL   UNL     1      32.883 -16.206 -20.367  0.00  0.00    -0.085 Cl
ATOM      2  N   UNL     1      34.506 -18.474 -22.122  0.00  0.00    -0.291 N 
ATOM      3  N   UNL     1      36.767 -20.727 -20.071  0.00  0.00    -0.318 N 
ATOM      4  N   UNL     1      34.859 -21.470 -19.170  0.00  0.00    -0.319 N 
ATOM      5  N   UNL     1      35.027 -17.831 -24.349  0.00  0.00    -0.233 NA
ATOM      6  N   UNL     1      33.238 -14.267 -23.705  0.00  0.00    -0.300 N 
ATOM      7  N   UNL     1      34.415 -15.666 -25.277  0.00  0.00    -0.233 NA
ATOM      8  C   UNL     1      33.322 -19.334 -21.857  0.00  0.00    +0.098 C 
ATOM      9  C   UNL     1      35.843 -18.925 -21.645  0.00  0.00    +0.134 C 
ATOM     10  C   UNL     1      33.290 -19.920 -20.426  0.00  0.00    +0.063 C 
ATOM     11  C   UNL     1      35.763 -20.001 -20.633  0.00  0.00    +0.052 C 
ATOM     12  C   UNL     1      34.608 -20.474 -20.069  0.00  0.00    +0.035 C 
ATOM     13  C   UNL     1      34.466 -17.526 -23.156  0.00  0.00    +0.117 C 
ATOM     14  C   UNL     1      33.859 -16.284 -22.980  0.00  0.00    +0.142 C 
ATOM     15  C   UNL     1      33.875 -15.422 -24.071  0.00  0.00    +0.118 C 
ATOM     16  C   UNL     1      36.171 -21.601 -19.195  0.00  0.00    +0.181 C 
ATOM     17  C   UNL     1      33.186 -15.608 -21.930  0.00  0.00    +0.064 C 
ATOM     18  C   UNL     1      32.815 -14.368 -22.405  0.00  0.00    +0.071 C 
ATOM     19  C   UNL     1      34.968 -16.894 -25.323  0.00  0.00    +0.252 C 
ATOM     20  H   UNL     1      37.730 -20.642 -20.256  0.00  0.00    +0.148 HD
ATOM     21  H   UNL     1      34.210 -21.975 -18.629  0.00  0.00    +0.148 HD
ATOM     22  H   UNL     1      33.104 -13.484 -24.287  0.00  0.00    +0.153 HD
ENDROOT
TORSDOF 0
ENDMDL
