MODEL 1
REMARK VINA RESULT:      -9.7      0.000      0.000
REMARK  Name = 15602983
REMARK  5 active torsions:
REMARK  status: ('A' for Active; 'I' for Inactive)
REMARK    1  A    between atoms: C_1  and  C_3
REMARK    2  A    between atoms: C_1  and  C_9
REMARK    3  A    between atoms: C_1  and  C_21
REMARK    4  A    between atoms: C_12  and  C_17
REMARK    5  A    between atoms: C_21  and  N_22
REMARK                            x       y       z     vdW  Elec       q    Type
REMARK                         _______ _______ _______ _____ _____    ______ ____
ROOT
ATOM      1  C   UNL     1      35.191 -17.512 -22.857  0.00  0.00    +0.023 C 
ENDROOT
BRANCH   1   3
ATOM      2 CL   UNL     1      32.062 -12.588 -21.445  0.00  0.00    -0.082 Cl
ATOM      3  C   UNL     1      34.390 -16.250 -22.495  0.00  0.00    -0.020 C 
ATOM      4  C   UNL     1      34.285 -15.903 -21.172  0.00  0.00    -0.003 C 
ATOM      5  C   UNL     1      33.817 -15.529 -23.512  0.00  0.00    -0.003 C 
ATOM      6  C   UNL     1      33.557 -14.759 -20.844  0.00  0.00    +0.011 C 
ATOM      7  C   UNL     1      33.089 -14.385 -23.184  0.00  0.00    +0.011 C 
ATOM      8  C   UNL     1      32.959 -14.000 -21.850  0.00  0.00    +0.058 C 
ENDBRANCH   1   3
BRANCH   1   9
ATOM      9  C   UNL     1      35.026 -18.599 -21.848  0.00  0.00    -0.021 C 
ATOM     10  C   UNL     1      33.754 -19.092 -21.555  0.00  0.00    -0.004 C 
ATOM     11  C   UNL     1      36.144 -19.121 -21.198  0.00  0.00    -0.004 C 
ATOM     12  C   UNL     1      34.718 -20.629 -19.960  0.00  0.00    +0.003 C 
ATOM     13  C   UNL     1      33.601 -20.107 -20.610  0.00  0.00    -0.000 C 
ATOM     14  C   UNL     1      35.990 -20.137 -20.254  0.00  0.00    -0.000 C 
BRANCH  12  17
ATOM     15  N   UNL     1      33.674 -23.282 -17.816  0.00  0.00    -0.235 N 
ATOM     16  N   UNL     1      34.911 -23.169 -17.304  0.00  0.00    -0.180 NA
ATOM     17  C   UNL     1      34.561 -21.673 -18.988  0.00  0.00    +0.037 C 
ATOM     18  C   UNL     1      33.414 -22.406 -18.829  0.00  0.00    +0.081 C 
ATOM     19  C   UNL     1      35.449 -22.182 -18.027  0.00  0.00    +0.119 C 
ATOM     20  H   UNL     1      33.015 -23.936 -17.489  0.00  0.00    +0.174 HD
ENDBRANCH  12  17
ENDBRANCH   1   9
BRANCH   1  21
ATOM     21  C   UNL     1      34.938 -17.947 -24.336  0.00  0.00    -0.077 C 
BRANCH  21  22
ATOM     22  N   UNL     1      34.928 -19.405 -24.457  0.00  0.00    +0.381 N 
ATOM     23  H   UNL     1      34.236 -19.683 -25.154  0.00  0.00    -0.089 HD
ATOM     24  H   UNL     1      34.689 -19.819 -23.557  0.00  0.00    -0.089 HD
ATOM     25  H   UNL     1      35.851 -19.729 -24.746  0.00  0.00    -0.089 HD
ENDBRANCH  21  22
ENDBRANCH   1  21
TORSDOF 5
ENDMDL
MODEL 2
REMARK VINA RESULT:      -9.7      0.027      1.491
REMARK  Name = 15602983
REMARK  5 active torsions:
REMARK  status: ('A' for Active; 'I' for Inactive)
REMARK    1  A    between atoms: C_1  and  C_3
REMARK    2  A    between atoms: C_1  and  C_9
REMARK    3  A    between atoms: C_1  and  C_21
REMARK    4  A    between atoms: C_12  and  C_17
REMARK    5  A    between atoms: C_21  and  N_22
REMARK                            x       y       z     vdW  Elec       q    Type
REMARK                         _______ _______ _______ _____ _____    ______ ____
ROOT
ATOM      1  C   UNL     1      35.190 -17.510 -22.866  0.00  0.00    +0.023 C 
ENDROOT
BRANCH   1   3
ATOM      2 CL   UNL     1      32.031 -12.601 -21.468  0.00  0.00    -0.082 Cl
ATOM      3  C   UNL     1      34.380 -16.253 -22.508  0.00  0.00    -0.020 C 
ATOM      4  C   UNL     1      33.816 -15.530 -23.528  0.00  0.00    -0.003 C 
ATOM      5  C   UNL     1      34.259 -15.911 -21.184  0.00  0.00    -0.003 C 
ATOM      6  C   UNL     1      33.082 -14.388 -23.203  0.00  0.00    +0.011 C 
ATOM      7  C   UNL     1      33.525 -14.770 -20.859  0.00  0.00    +0.011 C 
ATOM      8  C   UNL     1      32.937 -14.008 -21.868  0.00  0.00    +0.058 C 
ENDBRANCH   1   3
BRANCH   1   9
ATOM      9  C   UNL     1      35.033 -18.594 -21.854  0.00  0.00    -0.021 C 
ATOM     10  C   UNL     1      36.153 -19.105 -21.198  0.00  0.00    -0.004 C 
ATOM     11  C   UNL     1      33.765 -19.099 -21.565  0.00  0.00    -0.004 C 
ATOM     12  C   UNL     1      34.738 -20.625 -19.964  0.00  0.00    +0.003 C 
ATOM     13  C   UNL     1      36.005 -20.121 -20.253  0.00  0.00    -0.000 C 
ATOM     14  C   UNL     1      33.618 -20.114 -20.619  0.00  0.00    -0.000 C 
BRANCH  12  17
ATOM     15  N   UNL     1      33.713 -23.297 -17.834  0.00  0.00    -0.235 N 
ATOM     16  N   UNL     1      34.937 -23.155 -17.299  0.00  0.00    -0.180 NA
ATOM     17  C   UNL     1      34.585 -21.671 -18.992  0.00  0.00    +0.037 C 
ATOM     18  C   UNL     1      33.453 -22.429 -18.854  0.00  0.00    +0.081 C 
ATOM     19  C   UNL     1      35.466 -22.157 -18.013  0.00  0.00    +0.119 C 
ATOM     20  H   UNL     1      33.063 -23.965 -17.518  0.00  0.00    +0.174 HD
ENDBRANCH  12  17
ENDBRANCH   1   9
BRANCH   1  21
ATOM     21  C   UNL     1      34.942 -17.951 -24.343  0.00  0.00    -0.077 C 
BRANCH  21  22
ATOM     22  N   UNL     1      34.939 -19.409 -24.460  0.00  0.00    +0.381 N 
ATOM     23  H   UNL     1      35.559 -19.807 -23.754  0.00  0.00    -0.089 HD
ATOM     24  H   UNL     1      35.264 -19.676 -25.388  0.00  0.00    -0.089 HD
ATOM     25  H   UNL     1      33.991 -19.760 -24.318  0.00  0.00    -0.089 HD
ENDBRANCH  21  22
ENDBRANCH   1  21
TORSDOF 5
ENDMDL
MODEL 3
REMARK VINA RESULT:      -9.6      3.555      7.185
REMARK  Name = 15602983
REMARK  5 active torsions:
REMARK  status: ('A' for Active; 'I' for Inactive)
REMARK    1  A    between atoms: C_1  and  C_3
REMARK    2  A    between atoms: C_1  and  C_9
REMARK    3  A    between atoms: C_1  and  C_21
REMARK    4  A    between atoms: C_12  and  C_17
REMARK    5  A    between atoms: C_21  and  N_22
REMARK                            x       y       z     vdW  Elec       q    Type
REMARK                         _______ _______ _______ _____ _____    ______ ____
ROOT
ATOM      1  C   UNL     1      35.933 -19.211 -21.653  0.00  0.00    +0.023 C 
ENDROOT
BRANCH   1   3
ATOM      2 CL   UNL     1      32.757 -22.734 -17.976  0.00  0.00    -0.082 Cl
ATOM      3  C   UNL     1      35.119 -20.114 -20.712  0.00  0.00    -0.020 C 
ATOM      4  C   UNL     1      33.752 -19.997 -20.718  0.00  0.00    -0.003 C 
ATOM      5  C   UNL     1      35.797 -20.996 -19.908  0.00  0.00    -0.003 C 
ATOM      6  C   UNL     1      33.014 -20.815 -19.862  0.00  0.00    +0.011 C 
ATOM      7  C   UNL     1      35.059 -21.815 -19.053  0.00  0.00    +0.011 C 
ATOM      8  C   UNL     1      33.667 -21.724 -19.030  0.00  0.00    +0.058 C 
ENDBRANCH   1   3
BRANCH   1   9
ATOM      9  C   UNL     1      35.270 -17.897 -21.896  0.00  0.00    -0.021 C 
ATOM     10  C   UNL     1      34.902 -17.529 -23.190  0.00  0.00    -0.004 C 
ATOM     11  C   UNL     1      35.018 -17.036 -20.827  0.00  0.00    -0.004 C 
ATOM     12  C   UNL     1      34.031 -15.439 -22.349  0.00  0.00    +0.003 C 
ATOM     13  C   UNL     1      34.283 -16.300 -23.417  0.00  0.00    -0.000 C 
ATOM     14  C   UNL     1      34.398 -15.807 -21.054  0.00  0.00    -0.000 C 
BRANCH  12  17
ATOM     15  N   UNL     1      31.994 -12.511 -22.428  0.00  0.00    -0.235 N 
ATOM     16  N   UNL     1      32.859 -12.104 -23.371  0.00  0.00    -0.180 NA
ATOM     17  C   UNL     1      33.395 -14.173 -22.581  0.00  0.00    +0.037 C 
ATOM     18  C   UNL     1      32.272 -13.748 -21.922  0.00  0.00    +0.081 C 
ATOM     19  C   UNL     1      33.715 -13.127 -23.460  0.00  0.00    +0.119 C 
ATOM     20  H   UNL     1      31.230 -11.968 -22.129  0.00  0.00    +0.174 HD
ENDBRANCH  12  17
ENDBRANCH   1   9
BRANCH   1  21
ATOM     21  C   UNL     1      37.428 -19.118 -21.208  0.00  0.00    -0.077 C 
BRANCH  21  22
ATOM     22  N   UNL     1      38.251 -18.528 -22.264  0.00  0.00    +0.381 N 
ATOM     23  H   UNL     1      38.278 -19.159 -23.066  0.00  0.00    -0.089 HD
ATOM     24  H   UNL     1      39.198 -18.382 -21.914  0.00  0.00    -0.089 HD
ATOM     25  H   UNL     1      37.852 -17.633 -22.547  0.00  0.00    -0.089 HD
ENDBRANCH  21  22
ENDBRANCH   1  21
TORSDOF 5
ENDMDL
MODEL 4
REMARK VINA RESULT:      -9.6      3.555      7.180
REMARK  Name = 15602983
REMARK  5 active torsions:
REMARK  status: ('A' for Active; 'I' for Inactive)
REMARK    1  A    between atoms: C_1  and  C_3
REMARK    2  A    between atoms: C_1  and  C_9
REMARK    3  A    between atoms: C_1  and  C_21
REMARK    4  A    between atoms: C_12  and  C_17
REMARK    5  A    between atoms: C_21  and  N_22
REMARK                            x       y       z     vdW  Elec       q    Type
REMARK                         _______ _______ _______ _____ _____    ______ ____
ROOT
ATOM      1  C   UNL     1      35.920 -19.201 -21.649  0.00  0.00    +0.023 C 
ENDROOT
BRANCH   1   3
ATOM      2 CL   UNL     1      32.731 -22.721 -17.979  0.00  0.00    -0.082 Cl
ATOM      3  C   UNL     1      35.103 -20.103 -20.708  0.00  0.00    -0.020 C 
ATOM      4  C   UNL     1      35.779 -20.986 -19.904  0.00  0.00    -0.003 C 
ATOM      5  C   UNL     1      33.736 -19.982 -20.715  0.00  0.00    -0.003 C 
ATOM      6  C   UNL     1      35.037 -21.805 -19.052  0.00  0.00    +0.011 C 
ATOM      7  C   UNL     1      32.995 -20.800 -19.863  0.00  0.00    +0.011 C 
ATOM      8  C   UNL     1      33.645 -21.712 -19.031  0.00  0.00    +0.058 C 
ENDBRANCH   1   3
BRANCH   1   9
ATOM      9  C   UNL     1      35.269 -17.878 -21.875  0.00  0.00    -0.021 C 
ATOM     10  C   UNL     1      35.039 -17.020 -20.799  0.00  0.00    -0.004 C 
ATOM     11  C   UNL     1      34.889 -17.500 -23.163  0.00  0.00    -0.004 C 
ATOM     12  C   UNL     1      34.049 -15.405 -22.298  0.00  0.00    +0.003 C 
ATOM     13  C   UNL     1      34.429 -15.784 -21.011  0.00  0.00    -0.000 C 
ATOM     14  C   UNL     1      34.280 -16.263 -23.374  0.00  0.00    -0.000 C 
BRANCH  12  17
ATOM     15  N   UNL     1      32.968 -12.176 -23.360  0.00  0.00    -0.235 N 
ATOM     16  N   UNL     1      32.061 -12.310 -22.378  0.00  0.00    -0.180 NA
ATOM     17  C   UNL     1      33.421 -14.133 -22.517  0.00  0.00    +0.037 C 
ATOM     18  C   UNL     1      33.808 -13.243 -23.484  0.00  0.00    +0.081 C 
ATOM     19  C   UNL     1      32.344 -13.511 -21.865  0.00  0.00    +0.119 C 
ATOM     20  H   UNL     1      33.021 -11.380 -23.936  0.00  0.00    +0.174 HD
ENDBRANCH  12  17
ENDBRANCH   1   9
BRANCH   1  21
ATOM     21  C   UNL     1      37.419 -19.128 -21.215  0.00  0.00    -0.077 C 
BRANCH  21  22
ATOM     22  N   UNL     1      38.237 -18.521 -22.265  0.00  0.00    +0.381 N 
ATOM     23  H   UNL     1      37.788 -17.666 -22.593  0.00  0.00    -0.089 HD
ATOM     24  H   UNL     1      38.333 -19.174 -23.042  0.00  0.00    -0.089 HD
ATOM     25  H   UNL     1      39.160 -18.300 -21.891  0.00  0.00    -0.089 HD
ENDBRANCH  21  22
ENDBRANCH   1  21
TORSDOF 5
ENDMDL
MODEL 5
REMARK VINA RESULT:      -9.1      2.659      4.192
REMARK  Name = 15602983
REMARK  5 active torsions:
REMARK  status: ('A' for Active; 'I' for Inactive)
REMARK    1  A    between atoms: C_1  and  C_3
REMARK    2  A    between atoms: C_1  and  C_9
REMARK    3  A    between atoms: C_1  and  C_21
REMARK    4  A    between atoms: C_12  and  C_17
REMARK    5  A    between atoms: C_21  and  N_22
REMARK                            x       y       z     vdW  Elec       q    Type
REMARK                         _______ _______ _______ _____ _____    ______ ____
ROOT
ATOM      1  C   UNL     1      33.852 -14.165 -24.754  0.00  0.00    +0.023 C 
ENDROOT
BRANCH   1   3
ATOM      2 CL   UNL     1      31.691  -9.516 -21.633  0.00  0.00    -0.082 Cl
ATOM      3  C   UNL     1      33.298 -12.973 -23.955  0.00  0.00    -0.020 C 
ATOM      4  C   UNL     1      33.786 -11.721 -24.231  0.00  0.00    -0.003 C 
ATOM      5  C   UNL     1      32.341 -13.217 -23.002  0.00  0.00    -0.003 C 
ATOM      6  C   UNL     1      33.284 -10.641 -23.505  0.00  0.00    +0.011 C 
ATOM      7  C   UNL     1      31.839 -12.137 -22.276  0.00  0.00    +0.011 C 
ATOM      8  C   UNL     1      32.311 -10.849 -22.527  0.00  0.00    +0.058 C 
ENDBRANCH   1   3
BRANCH   1   9
ATOM      9  C   UNL     1      34.231 -15.310 -23.877  0.00  0.00    -0.021 C 
ATOM     10  C   UNL     1      34.471 -15.101 -22.519  0.00  0.00    -0.004 C 
ATOM     11  C   UNL     1      34.347 -16.592 -24.417  0.00  0.00    -0.004 C 
ATOM     12  C   UNL     1      34.942 -17.453 -22.238  0.00  0.00    +0.003 C 
ATOM     13  C   UNL     1      34.827 -16.172 -21.700  0.00  0.00    -0.000 C 
ATOM     14  C   UNL     1      34.702 -17.663 -23.597  0.00  0.00    -0.000 C 
BRANCH  12  17
ATOM     15  N   UNL     1      35.158 -20.333 -20.144  0.00  0.00    -0.235 N 
ATOM     16  N   UNL     1      36.474 -20.066 -20.149  0.00  0.00    -0.180 NA
ATOM     17  C   UNL     1      35.309 -18.556 -21.396  0.00  0.00    +0.037 C 
ATOM     18  C   UNL     1      34.415 -19.455 -20.878  0.00  0.00    +0.081 C 
ATOM     19  C   UNL     1      36.560 -18.976 -20.918  0.00  0.00    +0.119 C 
ATOM     20  H   UNL     1      34.765 -21.092 -19.656  0.00  0.00    +0.174 HD
ENDBRANCH  12  17
ENDBRANCH   1   9
BRANCH   1  21
ATOM     21  C   UNL     1      32.920 -14.536 -25.951  0.00  0.00    -0.077 C 
BRANCH  21  22
ATOM     22  N   UNL     1      33.297 -13.798 -27.156  0.00  0.00    +0.381 N 
ATOM     23  H   UNL     1      33.409 -12.809 -26.928  0.00  0.00    -0.089 HD
ATOM     24  H   UNL     1      32.568 -13.903 -27.861  0.00  0.00    -0.089 HD
ATOM     25  H   UNL     1      34.177 -14.165 -27.519  0.00  0.00    -0.089 HD
ENDBRANCH  21  22
ENDBRANCH   1  21
TORSDOF 5
ENDMDL
MODEL 6
REMARK VINA RESULT:      -9.1      5.497      8.530
REMARK  Name = 15602983
REMARK  5 active torsions:
REMARK  status: ('A' for Active; 'I' for Inactive)
REMARK    1  A    between atoms: C_1  and  C_3
REMARK    2  A    between atoms: C_1  and  C_9
REMARK    3  A    between atoms: C_1  and  C_21
REMARK    4  A    between atoms: C_12  and  C_17
REMARK    5  A    between atoms: C_21  and  N_22
REMARK                            x       y       z     vdW  Elec       q    Type
REMARK                         _______ _______ _______ _____ _____    ______ ____
ROOT
ATOM      1  C   UNL     1      31.608 -10.239 -21.641  0.00  0.00    +0.023 C 
ENDROOT
BRANCH   1   3
ATOM      2 CL   UNL     1      32.496  -5.214 -24.800  0.00  0.00    -0.082 Cl
ATOM      3  C   UNL     1      31.836  -8.952 -22.451  0.00  0.00    -0.020 C 
ATOM      4  C   UNL     1      32.938  -8.187 -22.161  0.00  0.00    -0.003 C 
ATOM      5  C   UNL     1      30.928  -8.627 -23.426  0.00  0.00    -0.003 C 
ATOM      6  C   UNL     1      33.144  -7.019 -22.895  0.00  0.00    +0.011 C 
ATOM      7  C   UNL     1      31.133  -7.459 -24.160  0.00  0.00    +0.011 C 
ATOM      8  C   UNL     1      32.241  -6.655 -23.894  0.00  0.00    +0.058 C 
ENDBRANCH   1   3
BRANCH   1   9
ATOM      9  C   UNL     1      32.194 -11.440 -22.304  0.00  0.00    -0.021 C 
ATOM     10  C   UNL     1      32.997 -11.290 -23.436  0.00  0.00    -0.004 C 
ATOM     11  C   UNL     1      31.938 -12.713 -21.794  0.00  0.00    -0.004 C 
ATOM     12  C   UNL     1      33.288 -13.686 -23.547  0.00  0.00    +0.003 C 
ATOM     13  C   UNL     1      33.543 -12.413 -24.057  0.00  0.00    -0.000 C 
ATOM     14  C   UNL     1      32.486 -13.835 -22.415  0.00  0.00    -0.000 C 
BRANCH  12  17
ATOM     15  N   UNL     1      35.045 -16.631 -24.529  0.00  0.00    -0.235 N 
ATOM     16  N   UNL     1      34.357 -16.491 -25.675  0.00  0.00    -0.180 NA
ATOM     17  C   UNL     1      33.849 -14.842 -24.186  0.00  0.00    +0.037 C 
ATOM     18  C   UNL     1      34.776 -15.666 -23.603  0.00  0.00    +0.081 C 
ATOM     19  C   UNL     1      33.627 -15.393 -25.458  0.00  0.00    +0.119 C 
ATOM     20  H   UNL     1      35.685 -17.362 -24.372  0.00  0.00    +0.174 HD
ENDBRANCH  12  17
ENDBRANCH   1   9
BRANCH   1  21
ATOM     21  C   UNL     1      32.015 -10.055 -20.144  0.00  0.00    -0.077 C 
BRANCH  21  22
ATOM     22  N   UNL     1      30.922 -10.446 -19.254  0.00  0.00    +0.381 N 
ATOM     23  H   UNL     1      31.308 -10.815 -18.384  0.00  0.00    -0.089 HD
ATOM     24  H   UNL     1      30.356 -11.165 -19.705  0.00  0.00    -0.089 HD
ATOM     25  H   UNL     1      30.340  -9.634 -19.051  0.00  0.00    -0.089 HD
ENDBRANCH  21  22
ENDBRANCH   1  21
TORSDOF 5
ENDMDL
MODEL 7
REMARK VINA RESULT:      -8.9      3.955      8.049
REMARK  Name = 15602983
REMARK  5 active torsions:
REMARK  status: ('A' for Active; 'I' for Inactive)
REMARK    1  A    between atoms: C_1  and  C_3
REMARK    2  A    between atoms: C_1  and  C_9
REMARK    3  A    between atoms: C_1  and  C_21
REMARK    4  A    between atoms: C_12  and  C_17
REMARK    5  A    between atoms: C_21  and  N_22
REMARK                            x       y       z     vdW  Elec       q    Type
REMARK                         _______ _______ _______ _____ _____    ______ ____
ROOT
ATOM      1  C   UNL     1      35.254 -22.967 -17.037  0.00  0.00    +0.023 C 
ENDROOT
BRANCH   1   3
ATOM      2 CL   UNL     1      29.769 -23.359 -14.633  0.00  0.00    -0.082 Cl
ATOM      3  C   UNL     1      33.849 -23.069 -16.422  0.00  0.00    -0.020 C 
ATOM      4  C   UNL     1      32.769 -23.113 -17.267  0.00  0.00    -0.003 C 
ATOM      5  C   UNL     1      33.738 -23.110 -15.054  0.00  0.00    -0.003 C 
ATOM      6  C   UNL     1      31.494 -23.203 -16.708  0.00  0.00    +0.011 C 
ATOM      7  C   UNL     1      32.464 -23.201 -14.495  0.00  0.00    +0.011 C 
ATOM      8  C   UNL     1      31.341 -23.247 -15.322  0.00  0.00    +0.058 C 
ENDBRANCH   1   3
BRANCH   1   9
ATOM      9  C   UNL     1      35.294 -22.053 -18.215  0.00  0.00    -0.021 C 
ATOM     10  C   UNL     1      36.502 -21.479 -18.613  0.00  0.00    -0.004 C 
ATOM     11  C   UNL     1      34.123 -21.772 -18.919  0.00  0.00    -0.004 C 
ATOM     12  C   UNL     1      35.368 -20.341 -20.417  0.00  0.00    +0.003 C 
ATOM     13  C   UNL     1      36.538 -20.623 -19.713  0.00  0.00    -0.000 C 
ATOM     14  C   UNL     1      34.160 -20.916 -20.020  0.00  0.00    -0.000 C 
BRANCH  12  17
ATOM     15  N   UNL     1      36.039 -17.888 -22.918  0.00  0.00    -0.235 N 
ATOM     16  N   UNL     1      34.942 -18.390 -23.508  0.00  0.00    -0.180 NA
ATOM     17  C   UNL     1      35.405 -19.460 -21.549  0.00  0.00    +0.037 C 
ATOM     18  C   UNL     1      36.360 -18.496 -21.740  0.00  0.00    +0.081 C 
ATOM     19  C   UNL     1      34.558 -19.353 -22.664  0.00  0.00    +0.119 C 
ATOM     20  H   UNL     1      36.564 -17.148 -23.301  0.00  0.00    +0.174 HD
ENDBRANCH  12  17
ENDBRANCH   1   9
BRANCH   1  21
ATOM     21  C   UNL     1      36.338 -22.682 -15.949  0.00  0.00    -0.077 C 
BRANCH  21  22
ATOM     22  N   UNL     1      37.203 -23.845 -15.755  0.00  0.00    +0.381 N 
ATOM     23  H   UNL     1      36.671 -24.594 -15.310  0.00  0.00    -0.089 HD
ATOM     24  H   UNL     1      37.990 -23.587 -15.161  0.00  0.00    -0.089 HD
ATOM     25  H   UNL     1      37.551 -24.165 -16.660  0.00  0.00    -0.089 HD
ENDBRANCH  21  22
ENDBRANCH   1  21
TORSDOF 5
ENDMDL
MODEL 8
REMARK VINA RESULT:      -8.6      3.824      7.215
REMARK  Name = 15602983
REMARK  5 active torsions:
REMARK  status: ('A' for Active; 'I' for Inactive)
REMARK    1  A    between atoms: C_1  and  C_3
REMARK    2  A    between atoms: C_1  and  C_9
REMARK    3  A    between atoms: C_1  and  C_21
REMARK    4  A    between atoms: C_12  and  C_17
REMARK    5  A    between atoms: C_21  and  N_22
REMARK                            x       y       z     vdW  Elec       q    Type
REMARK                         _______ _______ _______ _____ _____    ______ ____
ROOT
ATOM      1  C   UNL     1      35.314 -18.324 -21.919  0.00  0.00    +0.023 C 
ENDROOT
BRANCH   1   3
ATOM      2 CL   UNL     1      33.038 -22.597 -18.372  0.00  0.00    -0.082 Cl
ATOM      3  C   UNL     1      34.731 -19.419 -21.011  0.00  0.00    -0.020 C 
ATOM      4  C   UNL     1      33.370 -19.470 -20.845  0.00  0.00    -0.003 C 
ATOM      5  C   UNL     1      35.598 -20.295 -20.408  0.00  0.00    -0.003 C 
ATOM      6  C   UNL     1      32.841 -20.463 -20.020  0.00  0.00    +0.011 C 
ATOM      7  C   UNL     1      35.069 -21.288 -19.584  0.00  0.00    +0.011 C 
ATOM      8  C   UNL     1      33.691 -21.372 -19.389  0.00  0.00    +0.058 C 
ENDBRANCH   1   3
BRANCH   1   9
ATOM      9  C   UNL     1      34.561 -17.041 -21.819  0.00  0.00    -0.021 C 
ATOM     10  C   UNL     1      33.991 -16.474 -22.959  0.00  0.00    -0.004 C 
ATOM     11  C   UNL     1      34.427 -16.406 -20.583  0.00  0.00    -0.004 C 
ATOM     12  C   UNL     1      33.154 -14.639 -21.630  0.00  0.00    +0.003 C 
ATOM     13  C   UNL     1      33.288 -15.273 -22.865  0.00  0.00    -0.000 C 
ATOM     14  C   UNL     1      33.723 -15.206 -20.489  0.00  0.00    -0.000 C 
BRANCH  12  17
ATOM     15  N   UNL     1      31.377 -11.581 -22.096  0.00  0.00    -0.235 N 
ATOM     16  N   UNL     1      31.341 -11.559 -20.754  0.00  0.00    -0.180 NA
ATOM     17  C   UNL     1      32.431 -13.403 -21.532  0.00  0.00    +0.037 C 
ATOM     18  C   UNL     1      32.020 -12.667 -22.613  0.00  0.00    +0.081 C 
ATOM     19  C   UNL     1      31.989 -12.678 -20.414  0.00  0.00    +0.119 C 
ATOM     20  H   UNL     1      30.976 -10.877 -22.656  0.00  0.00    +0.174 HD
ENDBRANCH  12  17
ENDBRANCH   1   9
BRANCH   1  21
ATOM     21  C   UNL     1      36.860 -18.192 -21.738  0.00  0.00    -0.077 C 
BRANCH  21  22
ATOM     22  N   UNL     1      37.570 -18.719 -22.903  0.00  0.00    +0.381 N 
ATOM     23  H   UNL     1      37.454 -19.733 -22.942  0.00  0.00    -0.089 HD
ATOM     24  H   UNL     1      38.562 -18.494 -22.828  0.00  0.00    -0.089 HD
ATOM     25  H   UNL     1      37.190 -18.300 -23.752  0.00  0.00    -0.089 HD
ENDBRANCH  21  22
ENDBRANCH   1  21
TORSDOF 5
ENDMDL
MODEL 9
REMARK VINA RESULT:      -8.5      5.338      9.075
REMARK  Name = 15602983
REMARK  5 active torsions:
REMARK  status: ('A' for Active; 'I' for Inactive)
REMARK    1  A    between atoms: C_1  and  C_3
REMARK    2  A    between atoms: C_1  and  C_9
REMARK    3  A    between atoms: C_1  and  C_21
REMARK    4  A    between atoms: C_12  and  C_17
REMARK    5  A    between atoms: C_21  and  N_22
REMARK                            x       y       z     vdW  Elec       q    Type
REMARK                         _______ _______ _______ _____ _____    ______ ____
ROOT
ATOM      1  C   UNL     1      32.796 -14.092 -24.153  0.00  0.00    +0.023 C 
ENDROOT
BRANCH   1   3
ATOM      2 CL   UNL     1      36.005 -18.130 -21.083  0.00  0.00    -0.082 Cl
ATOM      3  C   UNL     1      33.618 -15.127 -23.366  0.00  0.00    -0.020 C 
ATOM      4  C   UNL     1      33.692 -14.998 -22.002  0.00  0.00    -0.003 C 
ATOM      5  C   UNL     1      34.239 -16.132 -24.064  0.00  0.00    -0.003 C 
ATOM      6  C   UNL     1      34.439 -15.937 -21.288  0.00  0.00    +0.011 C 
ATOM      7  C   UNL     1      34.985 -17.070 -23.351  0.00  0.00    +0.011 C 
ATOM      8  C   UNL     1      35.085 -16.973 -21.963  0.00  0.00    +0.058 C 
ENDBRANCH   1   3
BRANCH   1   9
ATOM      9  C   UNL     1      32.658 -12.800 -23.420  0.00  0.00    -0.021 C 
ATOM     10  C   UNL     1      31.806 -12.709 -22.320  0.00  0.00    -0.004 C 
ATOM     11  C   UNL     1      33.381 -11.682 -23.838  0.00  0.00    -0.004 C 
ATOM     12  C   UNL     1      32.399 -10.382 -22.053  0.00  0.00    +0.003 C 
ATOM     13  C   UNL     1      31.676 -11.500 -21.637  0.00  0.00    -0.000 C 
ATOM     14  C   UNL     1      33.252 -10.474 -23.153  0.00  0.00    -0.000 C 
BRANCH  12  17
ATOM     15  N   UNL     1      32.108  -7.694 -19.726  0.00  0.00    -0.235 N 
ATOM     16  N   UNL     1      32.032  -6.931 -20.829  0.00  0.00    -0.180 NA
ATOM     17  C   UNL     1      32.266  -9.138 -21.351  0.00  0.00    +0.037 C 
ATOM     18  C   UNL     1      32.249  -9.026 -19.985  0.00  0.00    +0.081 C 
ATOM     19  C   UNL     1      32.129  -7.822 -21.821  0.00  0.00    +0.119 C 
ATOM     20  H   UNL     1      32.066  -7.326 -18.814  0.00  0.00    +0.174 HD
ENDBRANCH  12  17
ENDBRANCH   1   9
BRANCH   1  21
ATOM     21  C   UNL     1      33.300 -13.960 -25.625  0.00  0.00    -0.077 C 
BRANCH  21  22
ATOM     22  N   UNL     1      32.245 -14.322 -26.572  0.00  0.00    +0.381 N 
ATOM     23  H   UNL     1      31.373 -13.866 -26.300  0.00  0.00    -0.089 HD
ATOM     24  H   UNL     1      32.116 -15.333 -26.568  0.00  0.00    -0.089 HD
ATOM     25  H   UNL     1      32.510 -14.018 -27.510  0.00  0.00    -0.089 HD
ENDBRANCH  21  22
ENDBRANCH   1  21
TORSDOF 5
ENDMDL
