MODEL 1
REMARK VINA RESULT:      -5.3      0.000      0.000
REMARK  Name = 136449
REMARK  5 active torsions:
REMARK  status: ('A' for Active; 'I' for Inactive)
REMARK    1  A    between atoms: C_1  and  C_4
REMARK    2  A    between atoms: C_1  and  C_7
REMARK    3  A    between atoms: C_7  and  C_8
REMARK    4  A    between atoms: C_8  and  C_9
REMARK    5  A    between atoms: C_9  and  C_10
REMARK                            x       y       z     vdW  Elec       q    Type
REMARK                         _______ _______ _______ _____ _____    ______ ____
ROOT
ATOM      1  C   UNL     1      34.849 -18.786 -23.614  0.00  0.00    +0.085 C 
ENDROOT
BRANCH   1   4
ATOM      2  O   UNL     1      34.542 -17.569 -25.691  0.00  0.00    -0.275 OA
ATOM      3  N   UNL     1      35.416 -16.463 -23.874  0.00  0.00    -0.329 N 
ATOM      4  C   UNL     1      34.906 -17.570 -24.517  0.00  0.00    +0.219 C 
ATOM      5  H   UNL     1      35.503 -15.610 -24.357  0.00  0.00    +0.145 HD
ATOM      6  H   UNL     1      35.693 -16.526 -22.932  0.00  0.00    +0.145 HD
ENDBRANCH   1   4
BRANCH   1   7
ATOM      7  C   UNL     1      35.761 -18.650 -22.397  0.00  0.00    +0.010 C 
BRANCH   7   8
ATOM      8  C   UNL     1      35.169 -19.354 -21.175  0.00  0.00    +0.001 C 
BRANCH   8   9
ATOM      9  C   UNL     1      33.678 -19.041 -21.024  0.00  0.00    +0.000 C 
BRANCH   9  10
ATOM     10  C   UNL     1      32.866 -20.215 -20.473  0.00  0.00    +0.000 C 
ATOM     11  C   UNL     1      33.702 -21.223 -19.700  0.00  0.00    +0.000 C 
ENDBRANCH   9  10
ENDBRANCH   8   9
ENDBRANCH   7   8
ENDBRANCH   1   7
TORSDOF 5
ENDMDL
MODEL 2
REMARK VINA RESULT:      -5.3      4.117      5.602
REMARK  Name = 136449
REMARK  5 active torsions:
REMARK  status: ('A' for Active; 'I' for Inactive)
REMARK    1  A    between atoms: C_1  and  C_4
REMARK    2  A    between atoms: C_1  and  C_7
REMARK    3  A    between atoms: C_7  and  C_8
REMARK    4  A    between atoms: C_8  and  C_9
REMARK    5  A    between atoms: C_9  and  C_10
REMARK                            x       y       z     vdW  Elec       q    Type
REMARK                         _______ _______ _______ _____ _____    ______ ____
ROOT
ATOM      1  C   UNL     1      34.170 -21.232 -19.711  0.00  0.00    +0.085 C 
ENDROOT
BRANCH   1   4
ATOM      2  O   UNL     1      34.103 -23.649 -19.516  0.00  0.00    -0.275 OA
ATOM      3  N   UNL     1      32.623 -22.394 -18.283  0.00  0.00    -0.329 N 
ATOM      4  C   UNL     1      33.655 -22.556 -19.182  0.00  0.00    +0.219 C 
ATOM      5  H   UNL     1      32.203 -23.182 -17.868  0.00  0.00    +0.145 HD
ATOM      6  H   UNL     1      32.306 -21.490 -18.055  0.00  0.00    +0.145 HD
ENDBRANCH   1   4
BRANCH   1   7
ATOM      7  C   UNL     1      33.058 -20.368 -20.299  0.00  0.00    +0.010 C 
BRANCH   7   8
ATOM      8  C   UNL     1      33.627 -19.210 -21.122  0.00  0.00    +0.001 C 
BRANCH   8   9
ATOM      9  C   UNL     1      35.156 -19.196 -21.074  0.00  0.00    +0.000 C 
BRANCH   9  10
ATOM     10  C   UNL     1      35.796 -18.596 -22.328  0.00  0.00    +0.000 C 
ATOM     11  C   UNL     1      35.026 -18.895 -23.605  0.00  0.00    +0.000 C 
ENDBRANCH   9  10
ENDBRANCH   8   9
ENDBRANCH   7   8
ENDBRANCH   1   7
TORSDOF 5
ENDMDL
MODEL 3
REMARK VINA RESULT:      -5.2      4.021      5.579
REMARK  Name = 136449
REMARK  5 active torsions:
REMARK  status: ('A' for Active; 'I' for Inactive)
REMARK    1  A    between atoms: C_1  and  C_4
REMARK    2  A    between atoms: C_1  and  C_7
REMARK    3  A    between atoms: C_7  and  C_8
REMARK    4  A    between atoms: C_8  and  C_9
REMARK    5  A    between atoms: C_9  and  C_10
REMARK                            x       y       z     vdW  Elec       q    Type
REMARK                         _______ _______ _______ _____ _____    ______ ____
ROOT
ATOM      1  C   UNL     1      33.377 -20.840 -19.950  0.00  0.00    +0.085 C 
ENDROOT
BRANCH   1   4
ATOM      2  O   UNL     1      34.801 -22.705 -19.334  0.00  0.00    -0.275 OA
ATOM      3  N   UNL     1      32.735 -22.509 -18.342  0.00  0.00    -0.329 N 
ATOM      4  C   UNL     1      33.739 -22.105 -19.197  0.00  0.00    +0.219 C 
ATOM      5  H   UNL     1      32.852 -23.321 -17.796  0.00  0.00    +0.145 HD
ATOM      6  H   UNL     1      31.904 -21.987 -18.277  0.00  0.00    +0.145 HD
ENDBRANCH   1   4
BRANCH   1   7
ATOM      7  C   UNL     1      34.594 -20.178 -20.592  0.00  0.00    +0.010 C 
BRANCH   7   8
ATOM      8  C   UNL     1      34.179 -19.051 -21.541  0.00  0.00    +0.001 C 
BRANCH   8   9
ATOM      9  C   UNL     1      35.254 -18.795 -22.600  0.00  0.00    +0.000 C 
BRANCH   9  10
ATOM     10  C   UNL     1      34.817 -19.189 -24.013  0.00  0.00    +0.000 C 
ATOM     11  C   UNL     1      34.547 -17.998 -24.919  0.00  0.00    +0.000 C 
ENDBRANCH   9  10
ENDBRANCH   8   9
ENDBRANCH   7   8
ENDBRANCH   1   7
TORSDOF 5
ENDMDL
MODEL 4
REMARK VINA RESULT:      -5.1      1.423      2.059
REMARK  Name = 136449
REMARK  5 active torsions:
REMARK  status: ('A' for Active; 'I' for Inactive)
REMARK    1  A    between atoms: C_1  and  C_4
REMARK    2  A    between atoms: C_1  and  C_7
REMARK    3  A    between atoms: C_7  and  C_8
REMARK    4  A    between atoms: C_8  and  C_9
REMARK    5  A    between atoms: C_9  and  C_10
REMARK                            x       y       z     vdW  Elec       q    Type
REMARK                         _______ _______ _______ _____ _____    ______ ____
ROOT
ATOM      1  C   UNL     1      34.732 -16.869 -24.160  0.00  0.00    +0.085 C 
ENDROOT
BRANCH   1   4
ATOM      2  O   UNL     1      33.816 -15.985 -26.225  0.00  0.00    -0.275 OA
ATOM      3  N   UNL     1      33.385 -14.879 -24.255  0.00  0.00    -0.329 N 
ATOM      4  C   UNL     1      33.943 -15.891 -25.007  0.00  0.00    +0.219 C 
ATOM      5  H   UNL     1      32.847 -14.180 -24.693  0.00  0.00    +0.145 HD
ATOM      6  H   UNL     1      33.523 -14.856 -23.281  0.00  0.00    +0.145 HD
ENDBRANCH   1   4
BRANCH   1   7
ATOM      7  C   UNL     1      34.584 -18.310 -24.643  0.00  0.00    +0.010 C 
BRANCH   7   8
ATOM      8  C   UNL     1      34.863 -19.307 -23.517  0.00  0.00    +0.001 C 
BRANCH   8   9
ATOM      9  C   UNL     1      34.527 -18.707 -22.149  0.00  0.00    +0.000 C 
BRANCH   9  10
ATOM     10  C   UNL     1      34.340 -19.760 -21.055  0.00  0.00    +0.000 C 
ATOM     11  C   UNL     1      32.887 -19.986 -20.671  0.00  0.00    +0.000 C 
ENDBRANCH   9  10
ENDBRANCH   8   9
ENDBRANCH   7   8
ENDBRANCH   1   7
TORSDOF 5
ENDMDL
MODEL 5
REMARK VINA RESULT:      -5.0      2.334      3.028
REMARK  Name = 136449
REMARK  5 active torsions:
REMARK  status: ('A' for Active; 'I' for Inactive)
REMARK    1  A    between atoms: C_1  and  C_4
REMARK    2  A    between atoms: C_1  and  C_7
REMARK    3  A    between atoms: C_7  and  C_8
REMARK    4  A    between atoms: C_8  and  C_9
REMARK    5  A    between atoms: C_9  and  C_10
REMARK                            x       y       z     vdW  Elec       q    Type
REMARK                         _______ _______ _______ _____ _____    ______ ____
ROOT
ATOM      1  C   UNL     1      34.765 -19.227 -21.915  0.00  0.00    +0.085 C 
ENDROOT
BRANCH   1   4
ATOM      2  O   UNL     1      35.249 -17.204 -20.667  0.00  0.00    -0.275 OA
ATOM      3  N   UNL     1      35.700 -17.254 -22.922  0.00  0.00    -0.329 N 
ATOM      4  C   UNL     1      35.253 -17.803 -21.739  0.00  0.00    +0.219 C 
ATOM      5  H   UNL     1      36.043 -16.331 -22.937  0.00  0.00    +0.145 HD
ATOM      6  H   UNL     1      35.676 -17.784 -23.750  0.00  0.00    +0.145 HD
ENDBRANCH   1   4
BRANCH   1   7
ATOM      7  C   UNL     1      33.487 -19.506 -21.127  0.00  0.00    +0.010 C 
BRANCH   7   8
ATOM      8  C   UNL     1      33.685 -20.651 -20.131  0.00  0.00    +0.001 C 
BRANCH   8   9
ATOM      9  C   UNL     1      35.169 -20.973 -19.945  0.00  0.00    +0.000 C 
BRANCH   9  10
ATOM     10  C   UNL     1      35.437 -21.963 -18.809  0.00  0.00    +0.000 C 
ATOM     11  C   UNL     1      36.694 -21.650 -18.014  0.00  0.00    +0.000 C 
ENDBRANCH   9  10
ENDBRANCH   8   9
ENDBRANCH   7   8
ENDBRANCH   1   7
TORSDOF 5
ENDMDL
MODEL 6
REMARK VINA RESULT:      -4.9      1.856      2.178
REMARK  Name = 136449
REMARK  5 active torsions:
REMARK  status: ('A' for Active; 'I' for Inactive)
REMARK    1  A    between atoms: C_1  and  C_4
REMARK    2  A    between atoms: C_1  and  C_7
REMARK    3  A    between atoms: C_7  and  C_8
REMARK    4  A    between atoms: C_8  and  C_9
REMARK    5  A    between atoms: C_9  and  C_10
REMARK                            x       y       z     vdW  Elec       q    Type
REMARK                         _______ _______ _______ _____ _____    ______ ____
ROOT
ATOM      1  C   UNL     1      35.356 -16.907 -22.916  0.00  0.00    +0.085 C 
ENDROOT
BRANCH   1   4
ATOM      2  O   UNL     1      34.736 -14.561 -22.913  0.00  0.00    -0.275 OA
ATOM      3  N   UNL     1      33.970 -15.911 -24.611  0.00  0.00    -0.329 N 
ATOM      4  C   UNL     1      34.674 -15.664 -23.451  0.00  0.00    +0.219 C 
ATOM      5  H   UNL     1      33.483 -15.180 -25.056  0.00  0.00    +0.145 HD
ATOM      6  H   UNL     1      33.956 -16.817 -24.994  0.00  0.00    +0.145 HD
ENDBRANCH   1   4
BRANCH   1   7
ATOM      7  C   UNL     1      35.147 -18.120 -23.819  0.00  0.00    +0.010 C 
BRANCH   7   8
ATOM      8  C   UNL     1      34.709 -19.345 -23.014  0.00  0.00    +0.001 C 
BRANCH   8   9
ATOM      9  C   UNL     1      35.060 -19.188 -21.533  0.00  0.00    +0.000 C 
BRANCH   9  10
ATOM     10  C   UNL     1      34.307 -20.164 -20.625  0.00  0.00    +0.000 C 
ATOM     11  C   UNL     1      32.805 -19.930 -20.596  0.00  0.00    +0.000 C 
ENDBRANCH   9  10
ENDBRANCH   8   9
ENDBRANCH   7   8
ENDBRANCH   1   7
TORSDOF 5
ENDMDL
MODEL 7
REMARK VINA RESULT:      -4.8      4.693      5.964
REMARK  Name = 136449
REMARK  5 active torsions:
REMARK  status: ('A' for Active; 'I' for Inactive)
REMARK    1  A    between atoms: C_1  and  C_4
REMARK    2  A    between atoms: C_1  and  C_7
REMARK    3  A    between atoms: C_7  and  C_8
REMARK    4  A    between atoms: C_8  and  C_9
REMARK    5  A    between atoms: C_9  and  C_10
REMARK                            x       y       z     vdW  Elec       q    Type
REMARK                         _______ _______ _______ _____ _____    ______ ____
ROOT
ATOM      1  C   UNL     1      36.408 -21.311 -19.170  0.00  0.00    +0.085 C 
ENDROOT
BRANCH   1   4
ATOM      2  O   UNL     1      35.919 -22.666 -17.218  0.00  0.00    -0.275 OA
ATOM      3  N   UNL     1      37.289 -20.834 -16.984  0.00  0.00    -0.329 N 
ATOM      4  C   UNL     1      36.494 -21.697 -17.707  0.00  0.00    +0.219 C 
ATOM      5  H   UNL     1      37.423 -20.980 -16.019  0.00  0.00    +0.145 HD
ATOM      6  H   UNL     1      37.723 -20.073 -17.431  0.00  0.00    +0.145 HD
ENDBRANCH   1   4
BRANCH   1   7
ATOM      7  C   UNL     1      34.973 -21.311 -19.689  0.00  0.00    +0.010 C 
BRANCH   7   8
ATOM      8  C   UNL     1      34.716 -20.123 -20.619  0.00  0.00    +0.001 C 
BRANCH   8   9
ATOM      9  C   UNL     1      36.020 -19.405 -20.973  0.00  0.00    +0.000 C 
BRANCH   9  10
ATOM     10  C   UNL     1      35.804 -18.104 -21.751  0.00  0.00    +0.000 C 
ATOM     11  C   UNL     1      34.771 -17.184 -21.120  0.00  0.00    +0.000 C 
ENDBRANCH   9  10
ENDBRANCH   8   9
ENDBRANCH   7   8
ENDBRANCH   1   7
TORSDOF 5
ENDMDL
MODEL 8
REMARK VINA RESULT:      -4.8      1.572      1.996
REMARK  Name = 136449
REMARK  5 active torsions:
REMARK  status: ('A' for Active; 'I' for Inactive)
REMARK    1  A    between atoms: C_1  and  C_4
REMARK    2  A    between atoms: C_1  and  C_7
REMARK    3  A    between atoms: C_7  and  C_8
REMARK    4  A    between atoms: C_8  and  C_9
REMARK    5  A    between atoms: C_9  and  C_10
REMARK                            x       y       z     vdW  Elec       q    Type
REMARK                         _______ _______ _______ _____ _____    ______ ____
ROOT
ATOM      1  C   UNL     1      35.261 -16.817 -23.503  0.00  0.00    +0.085 C 
ENDROOT
BRANCH   1   4
ATOM      2  O   UNL     1      34.671 -16.885 -25.855  0.00  0.00    -0.275 OA
ATOM      3  N   UNL     1      33.631 -15.352 -24.493  0.00  0.00    -0.329 N 
ATOM      4  C   UNL     1      34.512 -16.382 -24.746  0.00  0.00    +0.219 C 
ATOM      5  H   UNL     1      33.084 -14.982 -25.223  0.00  0.00    +0.145 HD
ATOM      6  H   UNL     1      33.547 -14.989 -23.582  0.00  0.00    +0.145 HD
ENDBRANCH   1   4
BRANCH   1   7
ATOM      7  C   UNL     1      34.713 -16.167 -22.235  0.00  0.00    +0.010 C 
BRANCH   7   8
ATOM      8  C   UNL     1      34.674 -17.159 -21.071  0.00  0.00    +0.001 C 
BRANCH   8   9
ATOM      9  C   UNL     1      35.526 -18.395 -21.368  0.00  0.00    +0.000 C 
BRANCH   9  10
ATOM     10  C   UNL     1      34.852 -19.708 -20.964  0.00  0.00    +0.000 C 
ATOM     11  C   UNL     1      33.337 -19.611 -20.877  0.00  0.00    +0.000 C 
ENDBRANCH   9  10
ENDBRANCH   8   9
ENDBRANCH   7   8
ENDBRANCH   1   7
TORSDOF 5
ENDMDL
MODEL 9
REMARK VINA RESULT:      -4.8      2.907      3.628
REMARK  Name = 136449
REMARK  5 active torsions:
REMARK  status: ('A' for Active; 'I' for Inactive)
REMARK    1  A    between atoms: C_1  and  C_4
REMARK    2  A    between atoms: C_1  and  C_7
REMARK    3  A    between atoms: C_7  and  C_8
REMARK    4  A    between atoms: C_8  and  C_9
REMARK    5  A    between atoms: C_9  and  C_10
REMARK                            x       y       z     vdW  Elec       q    Type
REMARK                         _______ _______ _______ _____ _____    ______ ____
ROOT
ATOM      1  C   UNL     1      34.942 -16.607 -23.473  0.00  0.00    +0.085 C 
ENDROOT
BRANCH   1   4
ATOM      2  O   UNL     1      34.780 -16.666 -25.894  0.00  0.00    -0.275 OA
ATOM      3  N   UNL     1      34.439 -18.608 -24.709  0.00  0.00    -0.329 N 
ATOM      4  C   UNL     1      34.720 -17.263 -24.822  0.00  0.00    +0.219 C 
ATOM      5  H   UNL     1      34.276 -19.146 -25.518  0.00  0.00    +0.145 HD
ATOM      6  H   UNL     1      34.404 -19.031 -23.821  0.00  0.00    +0.145 HD
ENDBRANCH   1   4
BRANCH   1   7
ATOM      7  C   UNL     1      34.717 -17.572 -22.312  0.00  0.00    +0.010 C 
BRANCH   7   8
ATOM      8  C   UNL     1      34.924 -16.880 -20.964  0.00  0.00    +0.001 C 
BRANCH   8   9
ATOM      9  C   UNL     1      34.515 -15.407 -21.029  0.00  0.00    +0.000 C 
BRANCH   9  10
ATOM     10  C   UNL     1      33.076 -15.157 -20.573  0.00  0.00    +0.000 C 
ATOM     11  C   UNL     1      32.549 -13.782 -20.951  0.00  0.00    +0.000 C 
ENDBRANCH   9  10
ENDBRANCH   8   9
ENDBRANCH   7   8
ENDBRANCH   1   7
TORSDOF 5
ENDMDL
