MODEL 1
REMARK VINA RESULT:      -7.8      0.000      0.000
REMARK  Name = 60809
REMARK  7 active torsions:
REMARK  status: ('A' for Active; 'I' for Inactive)
REMARK    1  A    between atoms: C_4  and  C_10
REMARK    2  A    between atoms: C_5  and  O_14
REMARK    3  A    between atoms: O_14  and  C_15
REMARK    4  A    between atoms: C_15  and  C_16
REMARK    5  A    between atoms: C_16  and  C_17
REMARK    6  A    between atoms: C_17  and  C_18
REMARK    7  A    between atoms: C_18  and  C_19
REMARK                            x       y       z     vdW  Elec       q    Type
REMARK                         _______ _______ _______ _____ _____    ______ ____
ROOT
ATOM      1  S   UNL     1      37.630 -25.148 -14.747  0.00  0.00    +0.119 S 
ATOM      2  N   UNL     1      35.962 -25.287 -14.872  0.00  0.00    -0.187 NA
ATOM      3  N   UNL     1      37.839 -23.562 -15.252  0.00  0.00    -0.154 NA
ATOM      4  C   UNL     1      35.564 -24.090 -15.309  0.00  0.00    +0.138 A 
ATOM      5  C   UNL     1      36.605 -23.156 -15.513  0.00  0.00    +0.251 A 
ENDROOT
BRANCH   4  10
ATOM      6  N   UNL     1      31.830 -24.130 -14.742  0.00  0.00    +0.388 N 
ATOM      7  C   UNL     1      31.436 -23.033 -15.633  0.00  0.00    -0.072 C 
ATOM      8  C   UNL     1      33.252 -24.003 -14.364  0.00  0.00    -0.049 C 
ATOM      9  C   UNL     1      32.228 -23.103 -16.943  0.00  0.00    +0.003 C 
ATOM     10  C   UNL     1      34.174 -23.794 -15.549  0.00  0.00    -0.025 C 
ATOM     11  C   UNL     1      33.686 -23.396 -16.738  0.00  0.00    -0.033 C 
ATOM     12  C   UNL     1      30.982 -24.166 -13.551  0.00  0.00    -0.100 C 
ATOM     13  H   UNL     1      31.706 -25.009 -15.245  0.00  0.00    -0.079 HD
ENDBRANCH   4  10
BRANCH   5  14
ATOM     14  O   UNL     1      36.471 -21.870 -15.951  0.00  0.00    -0.459 OA
BRANCH  14  15
ATOM     15  C   UNL     1      37.111 -21.556 -17.181  0.00  0.00    +0.207 C 
BRANCH  15  16
ATOM     16  C   UNL     1      36.133 -21.808 -18.322  0.00  0.00    +0.047 C 
BRANCH  16  17
ATOM     17  C   UNL     1      36.538 -21.049 -19.585  0.00  0.00    +0.004 C 
BRANCH  17  18
ATOM     18  C   UNL     1      35.352 -20.436 -20.333  0.00  0.00    +0.000 C 
BRANCH  18  19
ATOM     19  C   UNL     1      33.999 -21.005 -19.900  0.00  0.00    +0.000 C 
ATOM     20  C   UNL     1      32.848 -20.187 -20.462  0.00  0.00    +0.000 C 
ENDBRANCH  18  19
ENDBRANCH  17  18
ENDBRANCH  16  17
ENDBRANCH  15  16
ENDBRANCH  14  15
ENDBRANCH   5  14
TORSDOF 7
ENDMDL
MODEL 2
REMARK VINA RESULT:      -7.8      8.911     11.394
REMARK  Name = 60809
REMARK  7 active torsions:
REMARK  status: ('A' for Active; 'I' for Inactive)
REMARK    1  A    between atoms: C_4  and  C_10
REMARK    2  A    between atoms: C_5  and  O_14
REMARK    3  A    between atoms: O_14  and  C_15
REMARK    4  A    between atoms: C_15  and  C_16
REMARK    5  A    between atoms: C_16  and  C_17
REMARK    6  A    between atoms: C_17  and  C_18
REMARK    7  A    between atoms: C_18  and  C_19
REMARK                            x       y       z     vdW  Elec       q    Type
REMARK                         _______ _______ _______ _____ _____    ______ ____
ROOT
ATOM      1  S   UNL     1      33.421 -13.282 -27.054  0.00  0.00    +0.119 S 
ATOM      2  N   UNL     1      33.388 -12.898 -25.421  0.00  0.00    -0.187 NA
ATOM      3  N   UNL     1      33.454 -14.958 -26.968  0.00  0.00    -0.154 NA
ATOM      4  C   UNL     1      33.403 -14.081 -24.803  0.00  0.00    +0.138 A 
ATOM      5  C   UNL     1      33.439 -15.200 -25.665  0.00  0.00    +0.251 A 
ENDROOT
BRANCH   4  10
ATOM      6  N   UNL     1      32.629 -13.116 -21.234  0.00  0.00    +0.388 N 
ATOM      7  C   UNL     1      32.918 -14.391 -20.568  0.00  0.00    -0.072 C 
ATOM      8  C   UNL     1      32.342 -13.334 -22.667  0.00  0.00    -0.049 C 
ATOM      9  C   UNL     1      34.183 -15.024 -21.160  0.00  0.00    +0.003 C 
ATOM     10  C   UNL     1      33.383 -14.187 -23.366  0.00  0.00    -0.025 C 
ATOM     11  C   UNL     1      34.237 -14.947 -22.657  0.00  0.00    -0.033 C 
ATOM     12  C   UNL     1      31.514 -12.428 -20.586  0.00  0.00    -0.100 C 
ATOM     13  H   UNL     1      33.455 -12.522 -21.157  0.00  0.00    -0.079 HD
ENDBRANCH   4  10
BRANCH   5  14
ATOM     14  O   UNL     1      33.459 -16.514 -25.294  0.00  0.00    -0.459 OA
BRANCH  14  15
ATOM     15  C   UNL     1      34.736 -17.136 -25.253  0.00  0.00    +0.207 C 
BRANCH  15  16
ATOM     16  C   UNL     1      34.620 -18.448 -24.488  0.00  0.00    +0.047 C 
BRANCH  16  17
ATOM     17  C   UNL     1      35.487 -18.442 -23.230  0.00  0.00    +0.004 C 
BRANCH  17  18
ATOM     18  C   UNL     1      35.009 -19.424 -22.157  0.00  0.00    +0.000 C 
BRANCH  18  19
ATOM     19  C   UNL     1      33.987 -18.820 -21.191  0.00  0.00    +0.000 C 
ATOM     20  C   UNL     1      32.968 -19.855 -20.743  0.00  0.00    +0.000 C 
ENDBRANCH  18  19
ENDBRANCH  17  18
ENDBRANCH  16  17
ENDBRANCH  15  16
ENDBRANCH  14  15
ENDBRANCH   5  14
TORSDOF 7
ENDMDL
MODEL 3
REMARK VINA RESULT:      -7.8      7.057      9.127
REMARK  Name = 60809
REMARK  7 active torsions:
REMARK  status: ('A' for Active; 'I' for Inactive)
REMARK    1  A    between atoms: C_4  and  C_10
REMARK    2  A    between atoms: C_5  and  O_14
REMARK    3  A    between atoms: O_14  and  C_15
REMARK    4  A    between atoms: C_15  and  C_16
REMARK    5  A    between atoms: C_16  and  C_17
REMARK    6  A    between atoms: C_17  and  C_18
REMARK    7  A    between atoms: C_18  and  C_19
REMARK                            x       y       z     vdW  Elec       q    Type
REMARK                         _______ _______ _______ _____ _____    ______ ____
ROOT
ATOM      1  S   UNL     1      34.578 -16.960 -25.102  0.00  0.00    +0.119 S 
ATOM      2  N   UNL     1      34.930 -18.357 -24.241  0.00  0.00    -0.187 NA
ATOM      3  N   UNL     1      34.587 -15.831 -23.861  0.00  0.00    -0.154 NA
ATOM      4  C   UNL     1      35.056 -17.942 -22.978  0.00  0.00    +0.138 A 
ATOM      5  C   UNL     1      34.865 -16.555 -22.787  0.00  0.00    +0.251 A 
ENDROOT
BRANCH   4  10
ATOM      6  N   UNL     1      34.419 -20.251 -20.057  0.00  0.00    +0.388 N 
ATOM      7  C   UNL     1      35.717 -20.932 -19.996  0.00  0.00    -0.072 C 
ATOM      8  C   UNL     1      34.197 -19.681 -21.402  0.00  0.00    -0.049 C 
ATOM      9  C   UNL     1      36.854 -19.928 -20.222  0.00  0.00    +0.003 C 
ATOM     10  C   UNL     1      35.365 -18.856 -21.906  0.00  0.00    -0.025 C 
ATOM     11  C   UNL     1      36.580 -18.966 -21.341  0.00  0.00    -0.033 C 
ATOM     12  C   UNL     1      33.333 -21.162 -19.699  0.00  0.00    -0.100 C 
ATOM     13  H   UNL     1      34.428 -19.488 -19.380  0.00  0.00    -0.079 HD
ENDBRANCH   4  10
BRANCH   5  14
ATOM     14  O   UNL     1      34.939 -15.878 -21.604  0.00  0.00    -0.459 OA
BRANCH  14  15
ATOM     15  C   UNL     1      34.257 -14.632 -21.550  0.00  0.00    +0.207 C 
BRANCH  15  16
ATOM     16  C   UNL     1      32.948 -14.819 -20.792  0.00  0.00    +0.047 C 
BRANCH  16  17
ATOM     17  C   UNL     1      32.304 -13.478 -20.446  0.00  0.00    +0.004 C 
BRANCH  17  18
ATOM     18  C   UNL     1      31.981 -12.624 -21.674  0.00  0.00    +0.000 C 
BRANCH  18  19
ATOM     19  C   UNL     1      31.063 -11.439 -21.367  0.00  0.00    +0.000 C 
ATOM     20  C   UNL     1      31.208 -10.986 -19.923  0.00  0.00    +0.000 C 
ENDBRANCH  18  19
ENDBRANCH  17  18
ENDBRANCH  16  17
ENDBRANCH  15  16
ENDBRANCH  14  15
ENDBRANCH   5  14
TORSDOF 7
ENDMDL
MODEL 4
REMARK VINA RESULT:      -7.6      2.334      4.131
REMARK  Name = 60809
REMARK  7 active torsions:
REMARK  status: ('A' for Active; 'I' for Inactive)
REMARK    1  A    between atoms: C_4  and  C_10
REMARK    2  A    between atoms: C_5  and  O_14
REMARK    3  A    between atoms: O_14  and  C_15
REMARK    4  A    between atoms: C_15  and  C_16
REMARK    5  A    between atoms: C_16  and  C_17
REMARK    6  A    between atoms: C_17  and  C_18
REMARK    7  A    between atoms: C_18  and  C_19
REMARK                            x       y       z     vdW  Elec       q    Type
REMARK                         _______ _______ _______ _____ _____    ______ ____
ROOT
ATOM      1  S   UNL     1      31.443 -23.178 -16.003  0.00  0.00    +0.119 S 
ATOM      2  N   UNL     1      32.837 -23.392 -15.093  0.00  0.00    -0.187 NA
ATOM      3  N   UNL     1      32.098 -23.119 -17.546  0.00  0.00    -0.154 NA
ATOM      4  C   UNL     1      33.819 -23.419 -15.996  0.00  0.00    +0.138 A 
ATOM      5  C   UNL     1      33.397 -23.268 -17.336  0.00  0.00    +0.251 A 
ENDROOT
BRANCH   4  10
ATOM      6  N   UNL     1      36.791 -24.889 -14.187  0.00  0.00    +0.388 N 
ATOM      7  C   UNL     1      37.875 -24.327 -15.001  0.00  0.00    -0.072 C 
ATOM      8  C   UNL     1      35.529 -24.915 -14.955  0.00  0.00    -0.049 C 
ATOM      9  C   UNL     1      37.569 -22.867 -15.356  0.00  0.00    +0.003 C 
ATOM     10  C   UNL     1      35.198 -23.589 -15.613  0.00  0.00    -0.025 C 
ATOM     11  C   UNL     1      36.144 -22.648 -15.776  0.00  0.00    -0.033 C 
ATOM     12  C   UNL     1      37.133 -26.230 -13.716  0.00  0.00    -0.100 C 
ATOM     13  H   UNL     1      36.661 -24.291 -13.371  0.00  0.00    -0.079 HD
ENDBRANCH   4  10
BRANCH   5  14
ATOM     14  O   UNL     1      34.194 -23.261 -18.446  0.00  0.00    -0.459 OA
BRANCH  14  15
ATOM     15  C   UNL     1      34.269 -22.033 -19.157  0.00  0.00    +0.207 C 
BRANCH  15  16
ATOM     16  C   UNL     1      35.735 -21.661 -19.344  0.00  0.00    +0.047 C 
BRANCH  16  17
ATOM     17  C   UNL     1      35.899 -20.513 -20.337  0.00  0.00    +0.004 C 
BRANCH  17  18
ATOM     18  C   UNL     1      34.568 -19.918 -20.806  0.00  0.00    +0.000 C 
BRANCH  18  19
ATOM     19  C   UNL     1      34.671 -19.169 -22.136  0.00  0.00    +0.000 C 
ATOM     20  C   UNL     1      35.909 -18.288 -22.181  0.00  0.00    +0.000 C 
ENDBRANCH  18  19
ENDBRANCH  17  18
ENDBRANCH  16  17
ENDBRANCH  15  16
ENDBRANCH  14  15
ENDBRANCH   5  14
TORSDOF 7
ENDMDL
MODEL 5
REMARK VINA RESULT:      -7.5      8.025     10.831
REMARK  Name = 60809
REMARK  7 active torsions:
REMARK  status: ('A' for Active; 'I' for Inactive)
REMARK    1  A    between atoms: C_4  and  C_10
REMARK    2  A    between atoms: C_5  and  O_14
REMARK    3  A    between atoms: O_14  and  C_15
REMARK    4  A    between atoms: C_15  and  C_16
REMARK    5  A    between atoms: C_16  and  C_17
REMARK    6  A    between atoms: C_17  and  C_18
REMARK    7  A    between atoms: C_18  and  C_19
REMARK                            x       y       z     vdW  Elec       q    Type
REMARK                         _______ _______ _______ _____ _____    ______ ____
ROOT
ATOM      1  S   UNL     1      34.523 -17.395 -25.440  0.00  0.00    +0.119 S 
ATOM      2  N   UNL     1      33.718 -15.934 -25.260  0.00  0.00    -0.187 NA
ATOM      3  N   UNL     1      35.176 -17.570 -23.905  0.00  0.00    -0.154 NA
ATOM      4  C   UNL     1      33.958 -15.579 -23.996  0.00  0.00    +0.138 A 
ATOM      5  C   UNL     1      34.759 -16.486 -23.266  0.00  0.00    +0.251 A 
ENDROOT
BRANCH   4  10
ATOM      6  N   UNL     1      33.672 -11.871 -23.333  0.00  0.00    +0.388 N 
ATOM      7  C   UNL     1      32.332 -11.832 -22.737  0.00  0.00    -0.072 C 
ATOM      8  C   UNL     1      33.836 -13.088 -24.155  0.00  0.00    -0.049 C 
ATOM      9  C   UNL     1      32.142 -13.016 -21.781  0.00  0.00    +0.003 C 
ATOM     10  C   UNL     1      33.431 -14.359 -23.436  0.00  0.00    -0.025 C 
ATOM     11  C   UNL     1      32.664 -14.310 -22.332  0.00  0.00    -0.033 C 
ATOM     12  C   UNL     1      33.923 -10.673 -24.132  0.00  0.00    -0.100 C 
ATOM     13  H   UNL     1      34.356 -11.897 -22.577  0.00  0.00    -0.079 HD
ENDBRANCH   4  10
BRANCH   5  14
ATOM     14  O   UNL     1      35.150 -16.364 -21.963  0.00  0.00    -0.459 OA
BRANCH  14  15
ATOM     15  C   UNL     1      35.303 -17.576 -21.238  0.00  0.00    +0.207 C 
BRANCH  15  16
ATOM     16  C   UNL     1      33.926 -18.178 -20.986  0.00  0.00    +0.047 C 
BRANCH  16  17
ATOM     17  C   UNL     1      33.942 -19.698 -21.137  0.00  0.00    +0.004 C 
BRANCH  17  18
ATOM     18  C   UNL     1      32.972 -20.413 -20.193  0.00  0.00    +0.000 C 
BRANCH  18  19
ATOM     19  C   UNL     1      33.586 -21.630 -19.497  0.00  0.00    +0.000 C 
ATOM     20  C   UNL     1      35.097 -21.499 -19.385  0.00  0.00    +0.000 C 
ENDBRANCH  18  19
ENDBRANCH  17  18
ENDBRANCH  16  17
ENDBRANCH  15  16
ENDBRANCH  14  15
ENDBRANCH   5  14
TORSDOF 7
ENDMDL
MODEL 6
REMARK VINA RESULT:      -7.5     11.259     13.473
REMARK  Name = 60809
REMARK  7 active torsions:
REMARK  status: ('A' for Active; 'I' for Inactive)
REMARK    1  A    between atoms: C_4  and  C_10
REMARK    2  A    between atoms: C_5  and  O_14
REMARK    3  A    between atoms: O_14  and  C_15
REMARK    4  A    between atoms: C_15  and  C_16
REMARK    5  A    between atoms: C_16  and  C_17
REMARK    6  A    between atoms: C_17  and  C_18
REMARK    7  A    between atoms: C_18  and  C_19
REMARK                            x       y       z     vdW  Elec       q    Type
REMARK                         _______ _______ _______ _____ _____    ______ ____
ROOT
ATOM      1  S   UNL     1      33.144 -13.431 -26.884  0.00  0.00    +0.119 S 
ATOM      2  N   UNL     1      33.007 -14.498 -25.595  0.00  0.00    -0.187 NA
ATOM      3  N   UNL     1      33.674 -12.056 -26.082  0.00  0.00    -0.154 NA
ATOM      4  C   UNL     1      33.377 -13.780 -24.533  0.00  0.00    +0.138 A 
ATOM      5  C   UNL     1      33.740 -12.443 -24.816  0.00  0.00    +0.251 A 
ENDROOT
BRANCH   4  10
ATOM      6  N   UNL     1      34.128 -16.286 -21.808  0.00  0.00    +0.388 N 
ATOM      7  C   UNL     1      33.868 -15.451 -20.630  0.00  0.00    -0.072 C 
ATOM      8  C   UNL     1      34.420 -15.442 -22.985  0.00  0.00    -0.049 C 
ATOM      9  C   UNL     1      32.618 -14.592 -20.854  0.00  0.00    +0.003 C 
ATOM     10  C   UNL     1      33.399 -14.343 -23.206  0.00  0.00    -0.025 C 
ATOM     11  C   UNL     1      32.562 -13.974 -22.220  0.00  0.00    -0.033 C 
ATOM     12  C   UNL     1      35.227 -17.216 -21.557  0.00  0.00    -0.100 C 
ATOM     13  H   UNL     1      33.289 -16.832 -22.002  0.00  0.00    -0.079 HD
ENDBRANCH   4  10
BRANCH   5  14
ATOM     14  O   UNL     1      34.155 -11.503 -23.917  0.00  0.00    -0.459 OA
BRANCH  14  15
ATOM     15  C   UNL     1      33.732 -10.169 -24.163  0.00  0.00    +0.207 C 
BRANCH  15  16
ATOM     16  C   UNL     1      34.957  -9.266 -24.218  0.00  0.00    +0.047 C 
BRANCH  16  17
ATOM     17  C   UNL     1      34.671  -7.896 -23.606  0.00  0.00    +0.004 C 
BRANCH  17  18
ATOM     18  C   UNL     1      34.429  -6.802 -24.649  0.00  0.00    +0.000 C 
BRANCH  18  19
ATOM     19  C   UNL     1      33.038  -6.171 -24.558  0.00  0.00    +0.000 C 
ATOM     20  C   UNL     1      32.254  -6.727 -23.379  0.00  0.00    +0.000 C 
ENDBRANCH  18  19
ENDBRANCH  17  18
ENDBRANCH  16  17
ENDBRANCH  15  16
ENDBRANCH  14  15
ENDBRANCH   5  14
TORSDOF 7
ENDMDL
MODEL 7
REMARK VINA RESULT:      -7.5     10.172     12.617
REMARK  Name = 60809
REMARK  7 active torsions:
REMARK  status: ('A' for Active; 'I' for Inactive)
REMARK    1  A    between atoms: C_4  and  C_10
REMARK    2  A    between atoms: C_5  and  O_14
REMARK    3  A    between atoms: O_14  and  C_15
REMARK    4  A    between atoms: C_15  and  C_16
REMARK    5  A    between atoms: C_16  and  C_17
REMARK    6  A    between atoms: C_17  and  C_18
REMARK    7  A    between atoms: C_18  and  C_19
REMARK                            x       y       z     vdW  Elec       q    Type
REMARK                         _______ _______ _______ _____ _____    ______ ____
ROOT
ATOM      1  S   UNL     1      31.971 -12.863 -21.577  0.00  0.00    +0.119 S 
ATOM      2  N   UNL     1      32.492 -14.441 -21.814  0.00  0.00    -0.187 NA
ATOM      3  N   UNL     1      32.728 -12.099 -22.865  0.00  0.00    -0.154 NA
ATOM      4  C   UNL     1      33.260 -14.374 -22.904  0.00  0.00    +0.138 A 
ATOM      5  C   UNL     1      33.379 -13.083 -23.467  0.00  0.00    +0.251 A 
ENDROOT
BRANCH   4  10
ATOM      6  N   UNL     1      35.655 -17.290 -23.061  0.00  0.00    +0.388 N 
ATOM      7  C   UNL     1      35.054 -18.040 -24.169  0.00  0.00    -0.072 C 
ATOM      8  C   UNL     1      34.656 -16.394 -22.442  0.00  0.00    -0.049 C 
ATOM      9  C   UNL     1      34.605 -17.081 -25.277  0.00  0.00    +0.003 C 
ATOM     10  C   UNL     1      33.910 -15.540 -23.448  0.00  0.00    -0.025 C 
ATOM     11  C   UNL     1      33.909 -15.858 -24.754  0.00  0.00    -0.033 C 
ATOM     12  C   UNL     1      36.221 -18.196 -22.063  0.00  0.00    -0.100 C 
ATOM     13  H   UNL     1      36.413 -16.720 -23.436  0.00  0.00    -0.079 HD
ENDBRANCH   4  10
BRANCH   5  14
ATOM     14  O   UNL     1      34.099 -12.741 -24.576  0.00  0.00    -0.459 OA
BRANCH  14  15
ATOM     15  C   UNL     1      33.696 -11.554 -25.246  0.00  0.00    +0.207 C 
BRANCH  15  16
ATOM     16  C   UNL     1      34.934 -10.846 -25.782  0.00  0.00    +0.047 C 
BRANCH  16  17
ATOM     17  C   UNL     1      35.458  -9.808 -24.792  0.00  0.00    +0.004 C 
BRANCH  17  18
ATOM     18  C   UNL     1      34.355  -9.158 -23.951  0.00  0.00    +0.000 C 
BRANCH  18  19
ATOM     19  C   UNL     1      34.683  -7.727 -23.519  0.00  0.00    +0.000 C 
ATOM     20  C   UNL     1      34.444  -6.739 -24.649  0.00  0.00    +0.000 C 
ENDBRANCH  18  19
ENDBRANCH  17  18
ENDBRANCH  16  17
ENDBRANCH  15  16
ENDBRANCH  14  15
ENDBRANCH   5  14
TORSDOF 7
ENDMDL
MODEL 8
REMARK VINA RESULT:      -7.4      8.480     11.532
REMARK  Name = 60809
REMARK  7 active torsions:
REMARK  status: ('A' for Active; 'I' for Inactive)
REMARK    1  A    between atoms: C_4  and  C_10
REMARK    2  A    between atoms: C_5  and  O_14
REMARK    3  A    between atoms: O_14  and  C_15
REMARK    4  A    between atoms: C_15  and  C_16
REMARK    5  A    between atoms: C_16  and  C_17
REMARK    6  A    between atoms: C_17  and  C_18
REMARK    7  A    between atoms: C_18  and  C_19
REMARK                            x       y       z     vdW  Elec       q    Type
REMARK                         _______ _______ _______ _____ _____    ______ ____
ROOT
ATOM      1  S   UNL     1      32.693 -14.956 -20.553  0.00  0.00    +0.119 S 
ATOM      2  N   UNL     1      32.372 -14.030 -21.915  0.00  0.00    -0.187 NA
ATOM      3  N   UNL     1      34.029 -15.820 -21.084  0.00  0.00    -0.154 NA
ATOM      4  C   UNL     1      33.312 -14.394 -22.790  0.00  0.00    +0.138 A 
ATOM      5  C   UNL     1      34.212 -15.377 -22.319  0.00  0.00    +0.251 A 
ENDROOT
BRANCH   4  10
ATOM      6  N   UNL     1      33.773 -11.723 -25.420  0.00  0.00    +0.388 N 
ATOM      7  C   UNL     1      33.931 -12.572 -26.606  0.00  0.00    -0.072 C 
ATOM      8  C   UNL     1      34.096 -12.482 -24.194  0.00  0.00    -0.049 C 
ATOM      9  C   UNL     1      32.939 -13.739 -26.559  0.00  0.00    +0.003 C 
ATOM     10  C   UNL     1      33.386 -13.818 -24.109  0.00  0.00    -0.025 C 
ATOM     11  C   UNL     1      32.841 -14.378 -25.204  0.00  0.00    -0.033 C 
ATOM     12  C   UNL     1      34.607 -10.526 -25.518  0.00  0.00    -0.100 C 
ATOM     13  H   UNL     1      32.799 -11.425 -25.368  0.00  0.00    -0.079 HD
ENDBRANCH   4  10
BRANCH   5  14
ATOM     14  O   UNL     1      35.259 -15.920 -23.007  0.00  0.00    -0.459 OA
BRANCH  14  15
ATOM     15  C   UNL     1      34.982 -17.106 -23.739  0.00  0.00    +0.207 C 
BRANCH  15  16
ATOM     16  C   UNL     1      35.614 -18.289 -23.018  0.00  0.00    +0.047 C 
BRANCH  16  17
ATOM     17  C   UNL     1      34.561 -19.303 -22.575  0.00  0.00    +0.004 C 
BRANCH  17  18
ATOM     18  C   UNL     1      34.344 -19.331 -21.059  0.00  0.00    +0.000 C 
BRANCH  18  19
ATOM     19  C   UNL     1      33.071 -20.069 -20.640  0.00  0.00    +0.000 C 
ATOM     20  C   UNL     1      33.374 -21.178 -19.646  0.00  0.00    +0.000 C 
ENDBRANCH  18  19
ENDBRANCH  17  18
ENDBRANCH  16  17
ENDBRANCH  15  16
ENDBRANCH  14  15
ENDBRANCH   5  14
TORSDOF 7
ENDMDL
MODEL 9
REMARK VINA RESULT:      -7.3     10.475     13.258
REMARK  Name = 60809
REMARK  7 active torsions:
REMARK  status: ('A' for Active; 'I' for Inactive)
REMARK    1  A    between atoms: C_4  and  C_10
REMARK    2  A    between atoms: C_5  and  O_14
REMARK    3  A    between atoms: O_14  and  C_15
REMARK    4  A    between atoms: C_15  and  C_16
REMARK    5  A    between atoms: C_16  and  C_17
REMARK    6  A    between atoms: C_17  and  C_18
REMARK    7  A    between atoms: C_18  and  C_19
REMARK                            x       y       z     vdW  Elec       q    Type
REMARK                         _______ _______ _______ _____ _____    ______ ____
ROOT
ATOM      1  S   UNL     1      33.183 -14.708 -26.059  0.00  0.00    +0.119 S 
ATOM      2  N   UNL     1      33.372 -13.041 -26.101  0.00  0.00    -0.187 NA
ATOM      3  N   UNL     1      33.341 -14.988 -24.412  0.00  0.00    -0.154 NA
ATOM      4  C   UNL     1      33.559 -12.699 -24.824  0.00  0.00    +0.138 A 
ATOM      5  C   UNL     1      33.539 -13.777 -23.911  0.00  0.00    +0.251 A 
ENDROOT
BRANCH   4  10
ATOM      6  N   UNL     1      32.683  -9.275 -23.491  0.00  0.00    +0.388 N 
ATOM      7  C   UNL     1      34.034  -8.750 -23.261  0.00  0.00    -0.072 C 
ATOM      8  C   UNL     1      32.700 -10.752 -23.513  0.00  0.00    -0.049 C 
ATOM      9  C   UNL     1      34.960  -9.143 -24.417  0.00  0.00    +0.003 C 
ATOM     10  C   UNL     1      33.763 -11.328 -24.428  0.00  0.00    -0.025 C 
ATOM     11  C   UNL     1      34.790 -10.569 -24.852  0.00  0.00    -0.033 C 
ATOM     12  C   UNL     1      31.752  -8.787 -22.474  0.00  0.00    -0.100 C 
ATOM     13  H   UNL     1      32.362  -8.942 -24.400  0.00  0.00    -0.079 HD
ENDBRANCH   4  10
BRANCH   5  14
ATOM     14  O   UNL     1      33.701 -13.702 -22.557  0.00  0.00    -0.459 OA
BRANCH  14  15
ATOM     15  C   UNL     1      32.584 -14.087 -21.768  0.00  0.00    +0.207 C 
BRANCH  15  16
ATOM     16  C   UNL     1      33.064 -14.999 -20.646  0.00  0.00    +0.047 C 
BRANCH  16  17
ATOM     17  C   UNL     1      34.551 -15.320 -20.783  0.00  0.00    +0.004 C 
BRANCH  17  18
ATOM     18  C   UNL     1      34.837 -16.813 -20.966  0.00  0.00    +0.000 C 
BRANCH  18  19
ATOM     19  C   UNL     1      35.284 -17.178 -22.383  0.00  0.00    +0.000 C 
ATOM     20  C   UNL     1      34.880 -18.598 -22.743  0.00  0.00    +0.000 C 
ENDBRANCH  18  19
ENDBRANCH  17  18
ENDBRANCH  16  17
ENDBRANCH  15  16
ENDBRANCH  14  15
ENDBRANCH   5  14
TORSDOF 7
ENDMDL
