MODEL 1
REMARK VINA RESULT:      -9.5      0.000      0.000
REMARK  Name = 432824
REMARK  3 active torsions:
REMARK  status: ('A' for Active; 'I' for Inactive)
REMARK    1  A    between atoms: N_2  and  C_18
REMARK    2  A    between atoms: C_4  and  C_8
REMARK    3  A    between atoms: C_11  and  C_17
REMARK                            x       y       z     vdW  Elec       q    Type
REMARK                         _______ _______ _______ _____ _____    ______ ____
ROOT
ATOM      1  O   UNL     1      34.453 -18.123 -23.840  0.00  0.00    -0.356 OA
ATOM      2  N   UNL     1      34.570 -15.385 -23.059  0.00  0.00    +0.392 N 
ATOM      3  C   UNL     1      34.237 -16.442 -22.091  0.00  0.00    -0.042 C 
ATOM      4  C   UNL     1      34.890 -17.765 -22.521  0.00  0.00    +0.117 C 
ATOM      5  C   UNL     1      34.137 -15.784 -24.405  0.00  0.00    -0.045 C 
ATOM      6  C   UNL     1      34.791 -17.109 -24.787  0.00  0.00    +0.120 C 
ATOM      7  H   UNL     1      35.582 -15.254 -23.065  0.00  0.00    -0.079 HD
ENDROOT
BRANCH   4   8
ATOM      8  C   UNL     1      34.541 -18.889 -21.569  0.00  0.00    +0.002 C 
ATOM      9  C   UNL     1      35.555 -19.579 -20.904  0.00  0.00    +0.002 C 
ATOM     10  C   UNL     1      33.207 -19.232 -21.355  0.00  0.00    -0.002 C 
ATOM     11  C   UNL     1      35.232 -20.614 -20.026  0.00  0.00    +0.071 C 
ATOM     12  C   UNL     1      32.885 -20.266 -20.476  0.00  0.00    -0.000 C 
ATOM     13  C   UNL     1      33.898 -20.958 -19.812  0.00  0.00    +0.004 C 
BRANCH  11  17
ATOM     14  F   UNL     1      37.292 -21.825 -20.144  0.00  0.00    -0.166 F 
ATOM     15  F   UNL     1      36.973 -20.597 -18.385  0.00  0.00    -0.166 F 
ATOM     16  F   UNL     1      35.851 -22.442 -18.637  0.00  0.00    -0.166 F 
ATOM     17  C   UNL     1      36.316 -21.353 -19.314  0.00  0.00    +0.419 C 
ENDBRANCH  11  17
ENDBRANCH   4   8
BRANCH   2  18
ATOM     18  C   UNL     1      33.956 -14.116 -22.673  0.00  0.00    -0.058 C 
ATOM     19  C   UNL     1      32.638 -14.367 -21.944  0.00  0.00    -0.023 C 
ATOM     20  C   UNL     1      33.740 -13.257 -23.915  0.00  0.00    -0.023 C 
ENDBRANCH   2  18
TORSDOF 3
ENDMDL
MODEL 2
REMARK VINA RESULT:      -9.2      1.588      2.300
REMARK  Name = 432824
REMARK  3 active torsions:
REMARK  status: ('A' for Active; 'I' for Inactive)
REMARK    1  A    between atoms: N_2  and  C_18
REMARK    2  A    between atoms: C_4  and  C_8
REMARK    3  A    between atoms: C_11  and  C_17
REMARK                            x       y       z     vdW  Elec       q    Type
REMARK                         _______ _______ _______ _____ _____    ______ ____
ROOT
ATOM      1  O   UNL     1      34.711 -18.010 -23.919  0.00  0.00    -0.356 OA
ATOM      2  N   UNL     1      34.690 -15.239 -23.260  0.00  0.00    +0.392 N 
ATOM      3  C   UNL     1      34.813 -16.271 -22.218  0.00  0.00    -0.042 C 
ATOM      4  C   UNL     1      35.476 -17.526 -22.807  0.00  0.00    +0.117 C 
ATOM      5  C   UNL     1      33.927 -15.764 -24.399  0.00  0.00    -0.045 C 
ATOM      6  C   UNL     1      34.605 -17.019 -24.942  0.00  0.00    +0.120 C 
ATOM      7  H   UNL     1      35.625 -14.985 -23.580  0.00  0.00    -0.079 HD
ENDROOT
BRANCH   4   8
ATOM      8  C   UNL     1      35.588 -18.628 -21.774  0.00  0.00    +0.002 C 
ATOM      9  C   UNL     1      34.438 -19.258 -21.299  0.00  0.00    +0.002 C 
ATOM     10  C   UNL     1      36.841 -19.014 -21.299  0.00  0.00    -0.002 C 
ATOM     11  C   UNL     1      34.541 -20.273 -20.348  0.00  0.00    +0.071 C 
ATOM     12  C   UNL     1      36.944 -20.029 -20.349  0.00  0.00    -0.000 C 
ATOM     13  C   UNL     1      35.794 -20.659 -19.873  0.00  0.00    +0.004 C 
BRANCH  11  17
ATOM     14  F   UNL     1      32.788 -21.860 -20.713  0.00  0.00    -0.166 F 
ATOM     15  F   UNL     1      33.507 -21.640 -18.679  0.00  0.00    -0.166 F 
ATOM     16  F   UNL     1      32.301 -20.070 -19.578  0.00  0.00    -0.166 F 
ATOM     17  C   UNL     1      33.311 -20.948 -19.841  0.00  0.00    +0.419 C 
ENDBRANCH  11  17
ENDBRANCH   4   8
BRANCH   2  18
ATOM     18  C   UNL     1      34.058 -14.035 -22.724  0.00  0.00    -0.058 C 
ATOM     19  C   UNL     1      32.800 -14.401 -21.941  0.00  0.00    -0.023 C 
ATOM     20  C   UNL     1      33.732 -13.079 -23.868  0.00  0.00    -0.023 C 
ENDBRANCH   2  18
TORSDOF 3
ENDMDL
MODEL 3
REMARK VINA RESULT:      -9.2      5.054      8.145
REMARK  Name = 432824
REMARK  3 active torsions:
REMARK  status: ('A' for Active; 'I' for Inactive)
REMARK    1  A    between atoms: N_2  and  C_18
REMARK    2  A    between atoms: C_4  and  C_8
REMARK    3  A    between atoms: C_11  and  C_17
REMARK                            x       y       z     vdW  Elec       q    Type
REMARK                         _______ _______ _______ _____ _____    ______ ____
ROOT
ATOM      1  O   UNL     1      34.587 -23.033 -16.280  0.00  0.00    -0.356 OA
ATOM      2  N   UNL     1      31.814 -23.687 -16.275  0.00  0.00    +0.392 N 
ATOM      3  C   UNL     1      32.377 -22.758 -17.266  0.00  0.00    -0.042 C 
ATOM      4  C   UNL     1      33.856 -23.095 -17.512  0.00  0.00    +0.117 C 
ATOM      5  C   UNL     1      32.592 -23.626 -15.031  0.00  0.00    -0.045 C 
ATOM      6  C   UNL     1      34.055 -23.947 -15.320  0.00  0.00    +0.120 C 
ATOM      7  H   UNL     1      31.867 -24.635 -16.648  0.00  0.00    -0.079 HD
ENDROOT
BRANCH   4   8
ATOM      8  C   UNL     1      34.484 -22.136 -18.501  0.00  0.00    +0.002 C 
ATOM      9  C   UNL     1      33.677 -21.398 -19.367  0.00  0.00    +0.002 C 
ATOM     10  C   UNL     1      35.870 -21.989 -18.546  0.00  0.00    -0.002 C 
ATOM     11  C   UNL     1      34.256 -20.515 -20.277  0.00  0.00    +0.071 C 
ATOM     12  C   UNL     1      36.449 -21.105 -19.456  0.00  0.00    -0.000 C 
ATOM     13  C   UNL     1      35.642 -20.367 -20.322  0.00  0.00    +0.004 C 
BRANCH  11  17
ATOM     14  F   UNL     1      32.143 -20.251 -21.367  0.00  0.00    -0.166 F 
ATOM     15  F   UNL     1      33.185 -18.438 -20.792  0.00  0.00    -0.166 F 
ATOM     16  F   UNL     1      33.918 -19.628 -22.458  0.00  0.00    -0.166 F 
ATOM     17  C   UNL     1      33.392 -19.724 -21.203  0.00  0.00    +0.419 C 
ENDBRANCH  11  17
ENDBRANCH   4   8
BRANCH   2  18
ATOM     18  C   UNL     1      30.406 -23.384 -16.021  0.00  0.00    -0.058 C 
ATOM     19  C   UNL     1      30.256 -22.646 -14.693  0.00  0.00    -0.023 C 
ATOM     20  C   UNL     1      29.599 -24.678 -16.023  0.00  0.00    -0.023 C 
ENDBRANCH   2  18
TORSDOF 3
ENDMDL
MODEL 4
REMARK VINA RESULT:      -9.1      4.243      7.477
REMARK  Name = 432824
REMARK  3 active torsions:
REMARK  status: ('A' for Active; 'I' for Inactive)
REMARK    1  A    between atoms: N_2  and  C_18
REMARK    2  A    between atoms: C_4  and  C_8
REMARK    3  A    between atoms: C_11  and  C_17
REMARK                            x       y       z     vdW  Elec       q    Type
REMARK                         _______ _______ _______ _____ _____    ______ ____
ROOT
ATOM      1  O   UNL     1      36.581 -21.211 -17.754  0.00  0.00    -0.356 OA
ATOM      2  N   UNL     1      35.270 -23.393 -16.474  0.00  0.00    +0.392 N 
ATOM      3  C   UNL     1      34.584 -22.580 -17.491  0.00  0.00    -0.042 C 
ATOM      4  C   UNL     1      35.615 -21.994 -18.469  0.00  0.00    +0.117 C 
ATOM      5  C   UNL     1      36.272 -22.580 -15.773  0.00  0.00    -0.045 C 
ATOM      6  C   UNL     1      37.263 -22.000 -16.778  0.00  0.00    +0.120 C 
ATOM      7  H   UNL     1      35.744 -24.168 -16.940  0.00  0.00    -0.079 HD
ENDROOT
BRANCH   4   8
ATOM      8  C   UNL     1      34.952 -21.119 -19.511  0.00  0.00    +0.002 C 
ATOM      9  C   UNL     1      35.724 -20.264 -20.298  0.00  0.00    +0.002 C 
ATOM     10  C   UNL     1      33.569 -21.170 -19.688  0.00  0.00    -0.002 C 
ATOM     11  C   UNL     1      35.112 -19.458 -21.258  0.00  0.00    +0.071 C 
ATOM     12  C   UNL     1      32.958 -20.366 -20.649  0.00  0.00    -0.000 C 
ATOM     13  C   UNL     1      33.730 -19.509 -21.434  0.00  0.00    +0.004 C 
BRANCH  11  17
ATOM     14  F   UNL     1      35.846 -18.800 -23.438  0.00  0.00    -0.166 F 
ATOM     15  F   UNL     1      35.601 -17.226 -21.966  0.00  0.00    -0.166 F 
ATOM     16  F   UNL     1      37.267 -18.614 -21.803  0.00  0.00    -0.166 F 
ATOM     17  C   UNL     1      35.938 -18.543 -22.100  0.00  0.00    +0.419 C 
ENDBRANCH  11  17
ENDBRANCH   4   8
BRANCH   2  18
ATOM     18  C   UNL     1      34.310 -23.960 -15.529  0.00  0.00    -0.058 C 
ATOM     19  C   UNL     1      32.939 -23.316 -15.719  0.00  0.00    -0.023 C 
ATOM     20  C   UNL     1      34.818 -23.757 -14.105  0.00  0.00    -0.023 C 
ENDBRANCH   2  18
TORSDOF 3
ENDMDL
MODEL 5
REMARK VINA RESULT:      -9.0      1.891      2.951
REMARK  Name = 432824
REMARK  3 active torsions:
REMARK  status: ('A' for Active; 'I' for Inactive)
REMARK    1  A    between atoms: N_2  and  C_18
REMARK    2  A    between atoms: C_4  and  C_8
REMARK    3  A    between atoms: C_11  and  C_17
REMARK                            x       y       z     vdW  Elec       q    Type
REMARK                         _______ _______ _______ _____ _____    ______ ____
ROOT
ATOM      1  O   UNL     1      34.979 -16.779 -20.621  0.00  0.00    -0.356 OA
ATOM      2  N   UNL     1      34.221 -16.538 -23.357  0.00  0.00    +0.392 N 
ATOM      3  C   UNL     1      34.821 -17.777 -22.837  0.00  0.00    -0.042 C 
ATOM      4  C   UNL     1      34.498 -17.922 -21.341  0.00  0.00    +0.117 C 
ATOM      5  C   UNL     1      34.707 -15.385 -22.589  0.00  0.00    -0.045 C 
ATOM      6  C   UNL     1      34.385 -15.576 -21.109  0.00  0.00    +0.120 C 
ATOM      7  H   UNL     1      33.208 -16.598 -23.254  0.00  0.00    -0.079 HD
ENDROOT
BRANCH   4   8
ATOM      8  C   UNL     1      35.129 -19.169 -20.758  0.00  0.00    +0.002 C 
ATOM      9  C   UNL     1      34.327 -20.152 -20.180  0.00  0.00    +0.002 C 
ATOM     10  C   UNL     1      36.513 -19.335 -20.801  0.00  0.00    -0.002 C 
ATOM     11  C   UNL     1      34.909 -21.301 -19.643  0.00  0.00    +0.071 C 
ATOM     12  C   UNL     1      37.095 -20.483 -20.265  0.00  0.00    -0.000 C 
ATOM     13  C   UNL     1      36.293 -21.467 -19.686  0.00  0.00    +0.004 C 
BRANCH  11  17
ATOM     14  F   UNL     1      33.954 -23.490 -19.776  0.00  0.00    -0.166 F 
ATOM     15  F   UNL     1      34.495 -22.771 -17.803  0.00  0.00    -0.166 F 
ATOM     16  F   UNL     1      32.768 -21.934 -18.826  0.00  0.00    -0.166 F 
ATOM     17  C   UNL     1      34.051 -22.353 -19.025  0.00  0.00    +0.419 C 
ENDBRANCH  11  17
ENDBRANCH   4   8
BRANCH   2  18
ATOM     18  C   UNL     1      34.518 -16.376 -24.779  0.00  0.00    -0.058 C 
ATOM     19  C   UNL     1      33.518 -15.420 -25.422  0.00  0.00    -0.023 C 
ATOM     20  C   UNL     1      34.491 -17.739 -25.462  0.00  0.00    -0.023 C 
ENDBRANCH   2  18
TORSDOF 3
ENDMDL
MODEL 6
REMARK VINA RESULT:      -8.7      6.657      9.217
REMARK  Name = 432824
REMARK  3 active torsions:
REMARK  status: ('A' for Active; 'I' for Inactive)
REMARK    1  A    between atoms: N_2  and  C_18
REMARK    2  A    between atoms: C_4  and  C_8
REMARK    3  A    between atoms: C_11  and  C_17
REMARK                            x       y       z     vdW  Elec       q    Type
REMARK                         _______ _______ _______ _____ _____    ______ ____
ROOT
ATOM      1  O   UNL     1      32.931 -12.364 -23.427  0.00  0.00    -0.356 OA
ATOM      2  N   UNL     1      33.219 -15.059 -22.550  0.00  0.00    +0.392 N 
ATOM      3  C   UNL     1      32.992 -13.965 -21.593  0.00  0.00    -0.042 C 
ATOM      4  C   UNL     1      32.212 -12.831 -22.278  0.00  0.00    +0.117 C 
ATOM      5  C   UNL     1      33.933 -14.554 -23.729  0.00  0.00    -0.045 C 
ATOM      6  C   UNL     1      33.139 -13.418 -24.368  0.00  0.00    +0.120 C 
ATOM      7  H   UNL     1      32.315 -15.427 -22.847  0.00  0.00    -0.079 HD
ENDROOT
BRANCH   4   8
ATOM      8  C   UNL     1      31.988 -11.667 -21.335  0.00  0.00    +0.002 C 
ATOM      9  C   UNL     1      32.105 -10.358 -21.803  0.00  0.00    +0.002 C 
ATOM     10  C   UNL     1      31.662 -11.904 -20.000  0.00  0.00    -0.002 C 
ATOM     11  C   UNL     1      31.898  -9.286 -20.934  0.00  0.00    +0.071 C 
ATOM     12  C   UNL     1      31.455 -10.832 -19.132  0.00  0.00    -0.000 C 
ATOM     13  C   UNL     1      31.573  -9.523 -19.599  0.00  0.00    +0.004 C 
BRANCH  11  17
ATOM     14  F   UNL     1      31.784  -6.941 -20.478  0.00  0.00    -0.166 F 
ATOM     15  F   UNL     1      33.263  -7.590 -21.926  0.00  0.00    -0.166 F 
ATOM     16  F   UNL     1      31.152  -7.611 -22.448  0.00  0.00    -0.166 F 
ATOM     17  C   UNL     1      32.023  -7.886 -21.435  0.00  0.00    +0.419 C 
ENDBRANCH  11  17
ENDBRANCH   4   8
BRANCH   2  18
ATOM     18  C   UNL     1      33.963 -16.150 -21.922  0.00  0.00    -0.058 C 
ATOM     19  C   UNL     1      34.554 -15.689 -20.592  0.00  0.00    -0.023 C 
ATOM     20  C   UNL     1      35.057 -16.630 -22.870  0.00  0.00    -0.023 C 
ENDBRANCH   2  18
TORSDOF 3
ENDMDL
MODEL 7
REMARK VINA RESULT:      -8.7      4.986      7.839
REMARK  Name = 432824
REMARK  3 active torsions:
REMARK  status: ('A' for Active; 'I' for Inactive)
REMARK    1  A    between atoms: N_2  and  C_18
REMARK    2  A    between atoms: C_4  and  C_8
REMARK    3  A    between atoms: C_11  and  C_17
REMARK                            x       y       z     vdW  Elec       q    Type
REMARK                         _______ _______ _______ _____ _____    ______ ____
ROOT
ATOM      1  O   UNL     1      33.625 -14.712 -25.259  0.00  0.00    -0.356 OA
ATOM      2  N   UNL     1      34.361 -16.728 -23.386  0.00  0.00    +0.392 N 
ATOM      3  C   UNL     1      34.187 -15.327 -22.971  0.00  0.00    -0.042 C 
ATOM      4  C   UNL     1      33.177 -14.633 -23.899  0.00  0.00    +0.117 C 
ATOM      5  C   UNL     1      34.794 -16.786 -24.788  0.00  0.00    -0.045 C 
ATOM      6  C   UNL     1      33.778 -16.070 -25.673  0.00  0.00    +0.120 C 
ATOM      7  H   UNL     1      33.465 -17.208 -23.299  0.00  0.00    -0.079 HD
ENDROOT
BRANCH   4   8
ATOM      8  C   UNL     1      32.997 -13.176 -23.528  0.00  0.00    +0.002 C 
ATOM      9  C   UNL     1      32.232 -12.830 -22.414  0.00  0.00    +0.002 C 
ATOM     10  C   UNL     1      33.596 -12.181 -24.299  0.00  0.00    -0.002 C 
ATOM     11  C   UNL     1      32.067 -11.488 -22.072  0.00  0.00    +0.071 C 
ATOM     12  C   UNL     1      33.430 -10.839 -23.957  0.00  0.00    -0.000 C 
ATOM     13  C   UNL     1      32.666 -10.492 -22.843  0.00  0.00    +0.004 C 
BRANCH  11  17
ATOM     14  F   UNL     1      29.923 -11.409 -21.014  0.00  0.00    -0.166 F 
ATOM     15  F   UNL     1      31.640 -11.749 -19.733  0.00  0.00    -0.166 F 
ATOM     16  F   UNL     1      31.305  -9.783 -20.600  0.00  0.00    -0.166 F 
ATOM     17  C   UNL     1      31.250 -11.117 -20.880  0.00  0.00    +0.419 C 
ENDBRANCH  11  17
ENDBRANCH   4   8
BRANCH   2  18
ATOM     18  C   UNL     1      35.321 -17.409 -22.518  0.00  0.00    -0.058 C 
ATOM     19  C   UNL     1      35.240 -18.919 -22.723  0.00  0.00    -0.023 C 
ATOM     20  C   UNL     1      35.044 -17.037 -21.064  0.00  0.00    -0.023 C 
ENDBRANCH   2  18
TORSDOF 3
ENDMDL
MODEL 8
REMARK VINA RESULT:      -8.6      6.348      9.344
REMARK  Name = 432824
REMARK  3 active torsions:
REMARK  status: ('A' for Active; 'I' for Inactive)
REMARK    1  A    between atoms: N_2  and  C_18
REMARK    2  A    between atoms: C_4  and  C_8
REMARK    3  A    between atoms: C_11  and  C_17
REMARK                            x       y       z     vdW  Elec       q    Type
REMARK                         _______ _______ _______ _____ _____    ______ ____
ROOT
ATOM      1  O   UNL     1      33.463 -13.210 -25.428  0.00  0.00    -0.356 OA
ATOM      2  N   UNL     1      33.399 -15.022 -23.231  0.00  0.00    +0.392 N 
ATOM      3  C   UNL     1      33.797 -13.617 -23.051  0.00  0.00    -0.042 C 
ATOM      4  C   UNL     1      33.117 -12.744 -24.117  0.00  0.00    +0.117 C 
ATOM      5  C   UNL     1      33.739 -15.470 -24.587  0.00  0.00    -0.045 C 
ATOM      6  C   UNL     1      33.062 -14.568 -25.615  0.00  0.00    +0.120 C 
ATOM      7  H   UNL     1      32.389 -15.094 -23.105  0.00  0.00    -0.079 HD
ENDROOT
BRANCH   4   8
ATOM      8  C   UNL     1      33.530 -11.293 -23.988  0.00  0.00    +0.002 C 
ATOM      9  C   UNL     1      32.805 -10.431 -23.166  0.00  0.00    +0.002 C 
ATOM     10  C   UNL     1      34.638 -10.819 -24.691  0.00  0.00    -0.002 C 
ATOM     11  C   UNL     1      33.186  -9.094 -23.048  0.00  0.00    +0.071 C 
ATOM     12  C   UNL     1      35.020  -9.483 -24.572  0.00  0.00    -0.000 C 
ATOM     13  C   UNL     1      34.294  -8.620 -23.750  0.00  0.00    +0.004 C 
BRANCH  11  17
ATOM     14  F   UNL     1      33.133  -7.099 -21.730  0.00  0.00    -0.166 F 
ATOM     15  F   UNL     1      31.310  -7.636 -22.775  0.00  0.00    -0.166 F 
ATOM     16  F   UNL     1      31.946  -8.787 -21.043  0.00  0.00    -0.166 F 
ATOM     17  C   UNL     1      32.411  -8.172 -22.169  0.00  0.00    +0.419 C 
ENDBRANCH  11  17
ENDBRANCH   4   8
BRANCH   2  18
ATOM     18  C   UNL     1      34.037 -15.874 -22.228  0.00  0.00    -0.058 C 
ATOM     19  C   UNL     1      34.468 -15.041 -21.024  0.00  0.00    -0.023 C 
ATOM     20  C   UNL     1      35.230 -16.589 -22.855  0.00  0.00    -0.023 C 
ENDBRANCH   2  18
TORSDOF 3
ENDMDL
MODEL 9
REMARK VINA RESULT:      -8.6      8.702     11.138
REMARK  Name = 432824
REMARK  3 active torsions:
REMARK  status: ('A' for Active; 'I' for Inactive)
REMARK    1  A    between atoms: N_2  and  C_18
REMARK    2  A    between atoms: C_4  and  C_8
REMARK    3  A    between atoms: C_11  and  C_17
REMARK                            x       y       z     vdW  Elec       q    Type
REMARK                         _______ _______ _______ _____ _____    ______ ____
ROOT
ATOM      1  O   UNL     1      34.559 -23.889 -12.614  0.00  0.00    -0.356 OA
ATOM      2  N   UNL     1      37.096 -24.942 -13.368  0.00  0.00    +0.392 N 
ATOM      3  C   UNL     1      36.005 -24.804 -14.346  0.00  0.00    -0.042 C 
ATOM      4  C   UNL     1      35.078 -23.651 -13.929  0.00  0.00    +0.117 C 
ATOM      5  C   UNL     1      36.542 -25.159 -12.026  0.00  0.00    -0.045 C 
ATOM      6  C   UNL     1      35.613 -24.006 -11.658  0.00  0.00    +0.120 C 
ATOM      7  H   UNL     1      37.641 -24.080 -13.363  0.00  0.00    -0.079 HD
ENDROOT
BRANCH   4   8
ATOM      8  C   UNL     1      33.919 -23.498 -14.892  0.00  0.00    +0.002 C 
ATOM      9  C   UNL     1      32.608 -23.544 -14.418  0.00  0.00    +0.002 C 
ATOM     10  C   UNL     1      34.163 -23.309 -16.252  0.00  0.00    -0.002 C 
ATOM     11  C   UNL     1      31.541 -23.403 -15.305  0.00  0.00    +0.071 C 
ATOM     12  C   UNL     1      33.096 -23.167 -17.139  0.00  0.00    -0.000 C 
ATOM     13  C   UNL     1      31.785 -23.214 -16.666  0.00  0.00    +0.004 C 
BRANCH  11  17
ATOM     14  F   UNL     1      29.315 -24.247 -15.544  0.00  0.00    -0.166 F 
ATOM     15  F   UNL     1      30.035 -23.930 -13.523  0.00  0.00    -0.166 F 
ATOM     16  F   UNL     1      29.544 -22.224 -14.780  0.00  0.00    -0.166 F 
ATOM     17  C   UNL     1      30.138 -23.452 -14.799  0.00  0.00    +0.419 C 
ENDBRANCH  11  17
ENDBRANCH   4   8
BRANCH   2  18
ATOM     18  C   UNL     1      37.991 -26.036 -13.743  0.00  0.00    -0.058 C 
ATOM     19  C   UNL     1      39.370 -25.492 -14.102  0.00  0.00    -0.023 C 
ATOM     20  C   UNL     1      37.386 -26.810 -14.910  0.00  0.00    -0.023 C 
ENDBRANCH   2  18
TORSDOF 3
ENDMDL
