MODEL 1
REMARK VINA RESULT:     -12.9      0.000      0.000
REMARK  Name = 10200813
REMARK  4 active torsions:
REMARK  status: ('A' for Active; 'I' for Inactive)
REMARK    1  A    between atoms: C_3  and  C_24
REMARK    2  A    between atoms: C_8  and  C_11
REMARK    3  A    between atoms: N_10  and  C_16
REMARK    4  A    between atoms: C_24  and  C_26
REMARK                            x       y       z     vdW  Elec       q    Type
REMARK                         _______ _______ _______ _____ _____    ______ ____
ROOT
ATOM      1  O   UNL     1      34.570 -17.356 -24.705  0.00  0.00    -0.265 OA
ATOM      2  N   UNL     1      34.479 -15.722 -23.018  0.00  0.00    -0.272 N 
ATOM      3  C   UNL     1      32.919 -13.569 -21.867  0.00  0.00    +0.008 C 
ATOM      4  C   UNL     1      32.722 -14.024 -23.322  0.00  0.00    +0.022 C 
ATOM      5  C   UNL     1      33.441 -14.735 -21.013  0.00  0.00    +0.022 C 
ATOM      6  C   UNL     1      33.998 -14.647 -23.883  0.00  0.00    +0.094 C 
ATOM      7  C   UNL     1      34.702 -15.346 -21.618  0.00  0.00    +0.094 C 
ATOM      8  C   UNL     1      34.733 -16.977 -23.552  0.00  0.00    +0.303 C 
ENDROOT
BRANCH   8  11
ATOM      9  O   UNL     1      36.484 -18.083 -22.537  0.00  0.00    -0.265 OA
ATOM     10  N   UNL     1      34.270 -18.688 -21.961  0.00  0.00    -0.277 N 
ATOM     11  C   UNL     1      35.266 -17.992 -22.615  0.00  0.00    +0.303 C 
ATOM     12  H   UNL     1      33.344 -18.439 -22.184  0.00  0.00    +0.155 HD
BRANCH  10  16
ATOM     13  O   UNL     1      32.535 -21.945 -18.779  0.00  0.00    -0.407 OA
ATOM     14  O   UNL     1      32.777 -23.634 -17.217  0.00  0.00    -0.223 OA
ATOM     15  N   UNL     1      34.643 -22.688 -18.242  0.00  0.00    -0.287 N 
ATOM     16  C   UNL     1      34.432 -19.718 -21.006  0.00  0.00    +0.054 C 
ATOM     17  C   UNL     1      33.302 -20.265 -20.409  0.00  0.00    +0.054 C 
ATOM     18  C   UNL     1      35.727 -20.155 -20.695  0.00  0.00    +0.016 C 
ATOM     19  C   UNL     1      33.515 -21.267 -19.487  0.00  0.00    +0.167 A 
ATOM     20  C   UNL     1      34.786 -21.699 -19.178  0.00  0.00    +0.096 A 
ATOM     21  C   UNL     1      35.919 -21.172 -19.757  0.00  0.00    +0.022 C 
ATOM     22  C   UNL     1      33.288 -22.841 -17.997  0.00  0.00    +0.419 A 
ATOM     23  H   UNL     1      35.372 -23.199 -17.818  0.00  0.00    +0.172 HD
ENDBRANCH  10  16
ENDBRANCH   8  11
BRANCH   3  24
ATOM     24  C   UNL     1      31.619 -13.013 -21.291  0.00  0.00    +0.026 C 
BRANCH  24  26
ATOM     25  F   UNL     1      32.105  -7.575 -19.955  0.00  0.00    -0.204 F 
ATOM     26  C   UNL     1      31.750 -11.558 -20.933  0.00  0.00    -0.022 C 
ATOM     27  C   UNL     1      31.694 -11.173 -19.601  0.00  0.00    -0.002 C 
ATOM     28  C   UNL     1      31.924 -10.618 -21.941  0.00  0.00    -0.002 C 
ATOM     29  C   UNL     1      31.815  -9.823 -19.269  0.00  0.00    +0.029 C 
ATOM     30  C   UNL     1      32.045  -9.269 -21.610  0.00  0.00    +0.029 C 
ATOM     31  C   UNL     1      31.991  -8.871 -20.274  0.00  0.00    +0.140 C 
ENDBRANCH  24  26
ENDBRANCH   3  24
TORSDOF 4
ENDMDL
MODEL 2
REMARK VINA RESULT:     -12.4      4.685      7.274
REMARK  Name = 10200813
REMARK  4 active torsions:
REMARK  status: ('A' for Active; 'I' for Inactive)
REMARK    1  A    between atoms: C_3  and  C_24
REMARK    2  A    between atoms: C_8  and  C_11
REMARK    3  A    between atoms: N_10  and  C_16
REMARK    4  A    between atoms: C_24  and  C_26
REMARK                            x       y       z     vdW  Elec       q    Type
REMARK                         _______ _______ _______ _____ _____    ______ ____
ROOT
ATOM      1  O   UNL     1      31.928 -21.969 -17.998  0.00  0.00    -0.265 OA
ATOM      2  N   UNL     1      33.581 -21.635 -19.636  0.00  0.00    -0.272 N 
ATOM      3  C   UNL     1      34.931 -19.682 -21.296  0.00  0.00    +0.008 C 
ATOM      4  C   UNL     1      33.534 -19.420 -20.712  0.00  0.00    +0.022 C 
ATOM      5  C   UNL     1      35.710 -20.653 -20.394  0.00  0.00    +0.022 C 
ATOM      6  C   UNL     1      32.786 -20.729 -20.462  0.00  0.00    +0.094 C 
ATOM      7  C   UNL     1      34.921 -21.937 -20.148  0.00  0.00    +0.094 C 
ATOM      8  C   UNL     1      33.034 -22.176 -18.482  0.00  0.00    +0.303 C 
ENDROOT
BRANCH   8  11
ATOM      9  O   UNL     1      33.743 -24.314 -17.981  0.00  0.00    -0.265 OA
ATOM     10  N   UNL     1      34.742 -22.490 -16.852  0.00  0.00    -0.277 N 
ATOM     11  C   UNL     1      33.890 -23.124 -17.733  0.00  0.00    +0.303 C 
ATOM     12  H   UNL     1      34.687 -21.507 -16.820  0.00  0.00    +0.155 HD
BRANCH  10  16
ATOM     13  O   UNL     1      35.965 -25.405 -13.143  0.00  0.00    -0.407 OA
ATOM     14  O   UNL     1      37.491 -26.407 -11.723  0.00  0.00    -0.223 OA
ATOM     15  N   UNL     1      38.204 -24.949 -13.396  0.00  0.00    -0.287 N 
ATOM     16  C   UNL     1      35.686 -23.094 -15.989  0.00  0.00    +0.054 C 
ATOM     17  C   UNL     1      35.235 -23.959 -14.999  0.00  0.00    +0.054 C 
ATOM     18  C   UNL     1      37.045 -22.801 -16.162  0.00  0.00    +0.016 C 
ATOM     19  C   UNL     1      36.195 -24.521 -14.186  0.00  0.00    +0.167 A 
ATOM     20  C   UNL     1      37.532 -24.236 -14.352  0.00  0.00    +0.096 A 
ATOM     21  C   UNL     1      38.001 -23.383 -15.326  0.00  0.00    +0.022 C 
ATOM     22  C   UNL     1      37.264 -25.656 -12.664  0.00  0.00    +0.419 A 
ATOM     23  H   UNL     1      39.178 -24.959 -13.253  0.00  0.00    +0.172 HD
ENDBRANCH  10  16
ENDBRANCH   8  11
BRANCH   3  24
ATOM     24  C   UNL     1      35.697 -18.373 -21.476  0.00  0.00    +0.026 C 
BRANCH  24  26
ATOM     25  F   UNL     1      33.946 -15.560 -26.015  0.00  0.00    -0.204 F 
ATOM     26  C   UNL     1      35.229 -17.620 -22.690  0.00  0.00    -0.022 C 
ATOM     27  C   UNL     1      34.938 -16.267 -22.587  0.00  0.00    -0.002 C 
ATOM     28  C   UNL     1      35.094 -18.289 -23.900  0.00  0.00    -0.002 C 
ATOM     29  C   UNL     1      34.504 -15.569 -23.714  0.00  0.00    +0.029 C 
ATOM     30  C   UNL     1      34.659 -17.591 -25.027  0.00  0.00    +0.029 C 
ATOM     31  C   UNL     1      34.365 -16.231 -24.934  0.00  0.00    +0.140 C 
ENDBRANCH  24  26
ENDBRANCH   3  24
TORSDOF 4
ENDMDL
MODEL 3
REMARK VINA RESULT:     -12.4      4.810      7.605
REMARK  Name = 10200813
REMARK  4 active torsions:
REMARK  status: ('A' for Active; 'I' for Inactive)
REMARK    1  A    between atoms: C_3  and  C_24
REMARK    2  A    between atoms: C_8  and  C_11
REMARK    3  A    between atoms: N_10  and  C_16
REMARK    4  A    between atoms: C_24  and  C_26
REMARK                            x       y       z     vdW  Elec       q    Type
REMARK                         _______ _______ _______ _____ _____    ______ ____
ROOT
ATOM      1  O   UNL     1      31.905 -22.066 -17.827  0.00  0.00    -0.265 OA
ATOM      2  N   UNL     1      33.598 -21.802 -19.436  0.00  0.00    -0.272 N 
ATOM      3  C   UNL     1      35.010 -19.915 -21.121  0.00  0.00    +0.008 C 
ATOM      4  C   UNL     1      33.605 -19.619 -20.576  0.00  0.00    +0.022 C 
ATOM      5  C   UNL     1      35.756 -20.870 -20.176  0.00  0.00    +0.022 C 
ATOM      6  C   UNL     1      32.834 -20.909 -20.305  0.00  0.00    +0.094 C 
ATOM      7  C   UNL     1      34.944 -22.136 -19.911  0.00  0.00    +0.094 C 
ATOM      8  C   UNL     1      33.018 -22.302 -18.280  0.00  0.00    +0.303 C 
ENDROOT
BRANCH   8  11
ATOM      9  O   UNL     1      33.779 -24.424 -17.788  0.00  0.00    -0.265 OA
ATOM     10  N   UNL     1      34.580 -22.603 -16.506  0.00  0.00    -0.277 N 
ATOM     11  C   UNL     1      33.845 -23.240 -17.485  0.00  0.00    +0.303 C 
ATOM     12  H   UNL     1      34.474 -21.625 -16.446  0.00  0.00    +0.155 HD
BRANCH  10  16
ATOM     13  O   UNL     1      38.987 -24.147 -15.115  0.00  0.00    -0.407 OA
ATOM     14  O   UNL     1      40.454 -25.114 -13.611  0.00  0.00    -0.223 OA
ATOM     15  N   UNL     1      38.199 -24.868 -13.080  0.00  0.00    -0.287 N 
ATOM     16  C   UNL     1      35.466 -23.197 -15.578  0.00  0.00    +0.054 C 
ATOM     17  C   UNL     1      36.806 -23.333 -15.920  0.00  0.00    +0.054 C 
ATOM     18  C   UNL     1      34.962 -23.629 -14.343  0.00  0.00    +0.016 C 
ATOM     19  C   UNL     1      37.627 -23.917 -14.980  0.00  0.00    +0.167 A 
ATOM     20  C   UNL     1      37.136 -24.344 -13.765  0.00  0.00    +0.096 A 
ATOM     21  C   UNL     1      35.813 -24.219 -13.406  0.00  0.00    +0.022 C 
ATOM     22  C   UNL     1      39.318 -24.753 -13.889  0.00  0.00    +0.419 A 
ATOM     23  H   UNL     1      38.174 -25.257 -12.175  0.00  0.00    +0.172 HD
ENDBRANCH  10  16
ENDBRANCH   8  11
BRANCH   3  24
ATOM     24  C   UNL     1      35.799 -18.623 -21.321  0.00  0.00    +0.026 C 
BRANCH  24  26
ATOM     25  F   UNL     1      34.047 -15.809 -25.860  0.00  0.00    -0.204 F 
ATOM     26  C   UNL     1      35.329 -17.870 -22.536  0.00  0.00    -0.022 C 
ATOM     27  C   UNL     1      35.159 -18.546 -23.736  0.00  0.00    -0.002 C 
ATOM     28  C   UNL     1      35.074 -16.509 -22.441  0.00  0.00    -0.002 C 
ATOM     29  C   UNL     1      34.723 -17.848 -24.863  0.00  0.00    +0.029 C 
ATOM     30  C   UNL     1      34.638 -15.810 -23.567  0.00  0.00    +0.029 C 
ATOM     31  C   UNL     1      34.463 -16.480 -24.778  0.00  0.00    +0.140 C 
ENDBRANCH  24  26
ENDBRANCH   3  24
TORSDOF 4
ENDMDL
MODEL 4
REMARK VINA RESULT:     -12.1      4.914     10.347
REMARK  Name = 10200813
REMARK  4 active torsions:
REMARK  status: ('A' for Active; 'I' for Inactive)
REMARK    1  A    between atoms: C_3  and  C_24
REMARK    2  A    between atoms: C_8  and  C_11
REMARK    3  A    between atoms: N_10  and  C_16
REMARK    4  A    between atoms: C_24  and  C_26
REMARK                            x       y       z     vdW  Elec       q    Type
REMARK                         _______ _______ _______ _____ _____    ______ ____
ROOT
ATOM      1  O   UNL     1      33.808 -14.299 -26.035  0.00  0.00    -0.265 OA
ATOM      2  N   UNL     1      33.668 -15.578 -24.068  0.00  0.00    -0.272 N 
ATOM      3  C   UNL     1      34.904 -17.674 -22.496  0.00  0.00    +0.008 C 
ATOM      4  C   UNL     1      35.157 -17.538 -24.005  0.00  0.00    +0.022 C 
ATOM      5  C   UNL     1      34.562 -16.304 -21.889  0.00  0.00    +0.022 C 
ATOM      6  C   UNL     1      33.982 -16.856 -24.703  0.00  0.00    +0.094 C 
ATOM      7  C   UNL     1      33.400 -15.644 -22.628  0.00  0.00    +0.094 C 
ATOM      8  C   UNL     1      33.597 -14.425 -24.835  0.00  0.00    +0.303 C 
ENDROOT
BRANCH   8  11
ATOM      9  O   UNL     1      32.331 -13.276 -23.286  0.00  0.00    -0.265 OA
ATOM     10  N   UNL     1      33.967 -12.092 -24.520  0.00  0.00    -0.277 N 
ATOM     11  C   UNL     1      33.223 -13.183 -24.119  0.00  0.00    +0.303 C 
ATOM     12  H   UNL     1      34.643 -12.256 -25.217  0.00  0.00    +0.155 HD
BRANCH  10  16
ATOM     13  O   UNL     1      31.754  -8.565 -21.989  0.00  0.00    -0.407 OA
ATOM     14  O   UNL     1      31.570  -6.401 -21.194  0.00  0.00    -0.223 OA
ATOM     15  N   UNL     1      33.363  -7.021 -22.548  0.00  0.00    -0.287 N 
ATOM     16  C   UNL     1      33.866 -10.765 -24.042  0.00  0.00    +0.054 C 
ATOM     17  C   UNL     1      32.787 -10.421 -23.236  0.00  0.00    +0.054 C 
ATOM     18  C   UNL     1      34.859  -9.842 -24.395  0.00  0.00    +0.016 C 
ATOM     19  C   UNL     1      32.736  -9.116 -22.796  0.00  0.00    +0.167 A 
ATOM     20  C   UNL     1      33.710  -8.205 -23.142  0.00  0.00    +0.096 A 
ATOM     21  C   UNL     1      34.787  -8.524 -23.938  0.00  0.00    +0.022 C 
ATOM     22  C   UNL     1      32.184  -7.232 -21.851  0.00  0.00    +0.419 A 
ATOM     23  H   UNL     1      33.860  -6.173 -22.604  0.00  0.00    +0.172 HD
ENDBRANCH  10  16
ENDBRANCH   8  11
BRANCH   3  24
ATOM     24  C   UNL     1      36.112 -18.293 -21.796  0.00  0.00    +0.026 C 
BRANCH  24  26
ATOM     25  F   UNL     1      34.626 -22.628 -18.542  0.00  0.00    -0.204 F 
ATOM     26  C   UNL     1      35.714 -19.453 -20.926  0.00  0.00    -0.022 C 
ATOM     27  C   UNL     1      34.374 -19.795 -20.811  0.00  0.00    -0.002 C 
ATOM     28  C   UNL     1      36.693 -20.166 -20.247  0.00  0.00    -0.002 C 
ATOM     29  C   UNL     1      34.005 -20.871 -20.004  0.00  0.00    +0.029 C 
ATOM     30  C   UNL     1      36.325 -21.243 -19.440  0.00  0.00    +0.029 C 
ATOM     31  C   UNL     1      34.981 -21.595 -19.319  0.00  0.00    +0.140 C 
ENDBRANCH  24  26
ENDBRANCH   3  24
TORSDOF 4
ENDMDL
MODEL 5
REMARK VINA RESULT:     -12.0      5.154     10.777
REMARK  Name = 10200813
REMARK  4 active torsions:
REMARK  status: ('A' for Active; 'I' for Inactive)
REMARK    1  A    between atoms: C_3  and  C_24
REMARK    2  A    between atoms: C_8  and  C_11
REMARK    3  A    between atoms: N_10  and  C_16
REMARK    4  A    between atoms: C_24  and  C_26
REMARK                            x       y       z     vdW  Elec       q    Type
REMARK                         _______ _______ _______ _____ _____    ______ ____
ROOT
ATOM      1  O   UNL     1      33.830 -13.043 -25.698  0.00  0.00    -0.265 OA
ATOM      2  N   UNL     1      33.443 -14.507 -23.900  0.00  0.00    -0.272 N 
ATOM      3  C   UNL     1      34.408 -16.836 -22.474  0.00  0.00    +0.008 C 
ATOM      4  C   UNL     1      34.799 -16.562 -23.934  0.00  0.00    +0.022 C 
ATOM      5  C   UNL     1      34.099 -15.516 -21.750  0.00  0.00    +0.022 C 
ATOM      6  C   UNL     1      33.732 -15.731 -24.645  0.00  0.00    +0.094 C 
ATOM      7  C   UNL     1      33.048 -14.703 -22.502  0.00  0.00    +0.094 C 
ATOM      8  C   UNL     1      33.509 -13.278 -24.540  0.00  0.00    +0.303 C 
ENDROOT
BRANCH   8  11
ATOM      9  O   UNL     1      32.631 -12.312 -22.638  0.00  0.00    -0.265 OA
ATOM     10  N   UNL     1      33.473 -10.904 -24.344  0.00  0.00    -0.277 N 
ATOM     11  C   UNL     1      33.150 -12.095 -23.725  0.00  0.00    +0.303 C 
ATOM     12  H   UNL     1      33.892 -10.973 -25.232  0.00  0.00    +0.155 HD
BRANCH  10  16
ATOM     13  O   UNL     1      30.620  -7.221 -22.914  0.00  0.00    -0.407 OA
ATOM     14  O   UNL     1      30.260  -5.088 -22.096  0.00  0.00    -0.223 OA
ATOM     15  N   UNL     1      32.425  -5.886 -22.422  0.00  0.00    -0.287 N 
ATOM     16  C   UNL     1      33.267  -9.597 -23.845  0.00  0.00    +0.054 C 
ATOM     17  C   UNL     1      31.966  -9.145 -23.660  0.00  0.00    +0.054 C 
ATOM     18  C   UNL     1      34.383  -8.802 -23.551  0.00  0.00    +0.016 C 
ATOM     19  C   UNL     1      31.820  -7.865 -23.171  0.00  0.00    +0.167 A 
ATOM     20  C   UNL     1      32.914  -7.079 -22.882  0.00  0.00    +0.096 A 
ATOM     21  C   UNL     1      34.212  -7.507 -23.056  0.00  0.00    +0.022 C 
ATOM     22  C   UNL     1      31.042  -5.966 -22.439  0.00  0.00    +0.419 A 
ATOM     23  H   UNL     1      32.959  -5.111 -22.131  0.00  0.00    +0.172 HD
ENDBRANCH  10  16
ENDBRANCH   8  11
BRANCH   3  24
ATOM     24  C   UNL     1      35.511 -17.607 -21.752  0.00  0.00    +0.026 C 
BRANCH  24  26
ATOM     25  F   UNL     1      33.528 -22.275 -19.329  0.00  0.00    -0.204 F 
ATOM     26  C   UNL     1      34.980 -18.856 -21.103  0.00  0.00    -0.022 C 
ATOM     27  C   UNL     1      35.869 -19.794 -20.597  0.00  0.00    -0.002 C 
ATOM     28  C   UNL     1      33.608 -19.054 -21.020  0.00  0.00    -0.002 C 
ATOM     29  C   UNL     1      35.376 -20.952 -19.995  0.00  0.00    +0.029 C 
ATOM     30  C   UNL     1      33.116 -20.212 -20.418  0.00  0.00    +0.029 C 
ATOM     31  C   UNL     1      34.000 -21.161 -19.906  0.00  0.00    +0.140 C 
ENDBRANCH  24  26
ENDBRANCH   3  24
TORSDOF 4
ENDMDL
MODEL 6
REMARK VINA RESULT:     -11.5      2.125      2.747
REMARK  Name = 10200813
REMARK  4 active torsions:
REMARK  status: ('A' for Active; 'I' for Inactive)
REMARK    1  A    between atoms: C_3  and  C_24
REMARK    2  A    between atoms: C_8  and  C_11
REMARK    3  A    between atoms: N_10  and  C_16
REMARK    4  A    between atoms: C_24  and  C_26
REMARK                            x       y       z     vdW  Elec       q    Type
REMARK                         _______ _______ _______ _____ _____    ______ ____
ROOT
ATOM      1  O   UNL     1      34.692 -19.493 -23.759  0.00  0.00    -0.265 OA
ATOM      2  N   UNL     1      34.669 -17.303 -22.903  0.00  0.00    -0.272 N 
ATOM      3  C   UNL     1      33.765 -14.585 -23.335  0.00  0.00    +0.008 C 
ATOM      4  C   UNL     1      33.915 -15.583 -24.495  0.00  0.00    +0.022 C 
ATOM      5  C   UNL     1      33.476 -15.334 -22.025  0.00  0.00    +0.022 C 
ATOM      6  C   UNL     1      34.962 -16.647 -24.175  0.00  0.00    +0.094 C 
ATOM      7  C   UNL     1      34.530 -16.405 -21.753  0.00  0.00    +0.094 C 
ATOM      8  C   UNL     1      34.586 -18.687 -22.843  0.00  0.00    +0.303 C 
ENDROOT
BRANCH   8  11
ATOM      9  O   UNL     1      33.321 -18.908 -20.926  0.00  0.00    -0.265 OA
ATOM     10  N   UNL     1      35.321 -20.157 -21.119  0.00  0.00    -0.277 N 
ATOM     11  C   UNL     1      34.337 -19.270 -21.504  0.00  0.00    +0.303 C 
ATOM     12  H   UNL     1      36.058 -20.298 -21.758  0.00  0.00    +0.155 HD
BRANCH  10  16
ATOM     13  O   UNL     1      33.360 -22.916 -17.613  0.00  0.00    -0.407 OA
ATOM     14  O   UNL     1      33.452 -24.115 -15.638  0.00  0.00    -0.223 OA
ATOM     15  N   UNL     1      35.346 -23.036 -16.462  0.00  0.00    -0.287 N 
ATOM     16  C   UNL     1      35.391 -20.886 -19.909  0.00  0.00    +0.054 C 
ATOM     17  C   UNL     1      34.247 -21.519 -19.438  0.00  0.00    +0.054 C 
ATOM     18  C   UNL     1      36.613 -20.945 -19.225  0.00  0.00    +0.016 C 
ATOM     19  C   UNL     1      34.369 -22.216 -18.256  0.00  0.00    +0.167 A 
ATOM     20  C   UNL     1      35.568 -22.277 -17.580  0.00  0.00    +0.096 A 
ATOM     21  C   UNL     1      36.713 -21.658 -18.028  0.00  0.00    +0.022 C 
ATOM     22  C   UNL     1      34.016 -23.424 -16.477  0.00  0.00    +0.419 A 
ATOM     23  H   UNL     1      36.011 -23.266 -15.773  0.00  0.00    +0.172 HD
ENDBRANCH  10  16
ENDBRANCH   8  11
BRANCH   3  24
ATOM     24  C   UNL     1      32.667 -13.567 -23.633  0.00  0.00    +0.026 C 
BRANCH  24  26
ATOM     25  F   UNL     1      34.778  -8.423 -24.454  0.00  0.00    -0.204 F 
ATOM     26  C   UNL     1      33.232 -12.191 -23.852  0.00  0.00    -0.022 C 
ATOM     27  C   UNL     1      32.810 -11.142 -23.047  0.00  0.00    -0.002 C 
ATOM     28  C   UNL     1      34.168 -11.988 -24.858  0.00  0.00    -0.002 C 
ATOM     29  C   UNL     1      33.335  -9.865 -23.251  0.00  0.00    +0.029 C 
ATOM     30  C   UNL     1      34.693 -10.711 -25.062  0.00  0.00    +0.029 C 
ATOM     31  C   UNL     1      34.276  -9.650 -24.258  0.00  0.00    +0.140 C 
ENDBRANCH  24  26
ENDBRANCH   3  24
TORSDOF 4
ENDMDL
MODEL 7
REMARK VINA RESULT:     -11.1      4.231      6.680
REMARK  Name = 10200813
REMARK  4 active torsions:
REMARK  status: ('A' for Active; 'I' for Inactive)
REMARK    1  A    between atoms: C_3  and  C_24
REMARK    2  A    between atoms: C_8  and  C_11
REMARK    3  A    between atoms: N_10  and  C_16
REMARK    4  A    between atoms: C_24  and  C_26
REMARK                            x       y       z     vdW  Elec       q    Type
REMARK                         _______ _______ _______ _____ _____    ______ ____
ROOT
ATOM      1  O   UNL     1      36.864 -22.271 -18.479  0.00  0.00    -0.265 OA
ATOM      2  N   UNL     1      35.413 -20.757 -19.540  0.00  0.00    -0.272 N 
ATOM      3  C   UNL     1      34.939 -19.182 -21.925  0.00  0.00    +0.008 C 
ATOM      4  C   UNL     1      36.347 -19.659 -21.536  0.00  0.00    +0.022 C 
ATOM      5  C   UNL     1      33.880 -20.147 -21.371  0.00  0.00    +0.022 C 
ATOM      6  C   UNL     1      36.463 -19.865 -20.027  0.00  0.00    +0.094 C 
ATOM      7  C   UNL     1      34.043 -20.347 -19.866  0.00  0.00    +0.094 C 
ATOM      8  C   UNL     1      35.748 -21.872 -18.787  0.00  0.00    +0.303 C 
ENDROOT
BRANCH   8  11
ATOM      9  O   UNL     1      33.966 -23.296 -19.131  0.00  0.00    -0.265 OA
ATOM     10  N   UNL     1      34.485 -22.638 -16.918  0.00  0.00    -0.277 N 
ATOM     11  C   UNL     1      34.618 -22.691 -18.291  0.00  0.00    +0.303 C 
ATOM     12  H   UNL     1      35.137 -22.077 -16.437  0.00  0.00    +0.155 HD
BRANCH  10  16
ATOM     13  O   UNL     1      29.931 -24.093 -15.976  0.00  0.00    -0.407 OA
ATOM     14  O   UNL     1      28.332 -25.169 -14.698  0.00  0.00    -0.223 OA
ATOM     15  N   UNL     1      30.562 -25.128 -14.023  0.00  0.00    -0.287 N 
ATOM     16  C   UNL     1      33.517 -23.297 -16.126  0.00  0.00    +0.054 C 
ATOM     17  C   UNL     1      32.194 -23.306 -16.550  0.00  0.00    +0.054 C 
ATOM     18  C   UNL     1      33.926 -23.922 -14.939  0.00  0.00    +0.016 C 
ATOM     19  C   UNL     1      31.291 -23.964 -15.743  0.00  0.00    +0.167 A 
ATOM     20  C   UNL     1      31.688 -24.578 -14.575  0.00  0.00    +0.096 A 
ATOM     21  C   UNL     1      32.993 -24.582 -14.136  0.00  0.00    +0.022 C 
ATOM     22  C   UNL     1      29.499 -24.839 -14.864  0.00  0.00    +0.419 A 
ATOM     23  H   UNL     1      30.515 -25.638 -13.182  0.00  0.00    +0.172 HD
ENDBRANCH  10  16
ENDBRANCH   8  11
BRANCH   3  24
ATOM     24  C   UNL     1      34.811 -19.046 -23.440  0.00  0.00    +0.026 C 
BRANCH  24  26
ATOM     25  F   UNL     1      33.669 -13.755 -24.954  0.00  0.00    -0.204 F 
ATOM     26  C   UNL     1      34.505 -17.630 -23.846  0.00  0.00    -0.022 C 
ATOM     27  C   UNL     1      34.172 -17.353 -25.164  0.00  0.00    -0.002 C 
ATOM     28  C   UNL     1      34.561 -16.619 -22.895  0.00  0.00    -0.002 C 
ATOM     29  C   UNL     1      33.888 -16.039 -25.540  0.00  0.00    +0.029 C 
ATOM     30  C   UNL     1      34.278 -15.306 -23.271  0.00  0.00    +0.029 C 
ATOM     31  C   UNL     1      33.941 -15.016 -24.593  0.00  0.00    +0.140 C 
ENDBRANCH  24  26
ENDBRANCH   3  24
TORSDOF 4
ENDMDL
MODEL 8
REMARK VINA RESULT:     -10.9      4.435      9.950
REMARK  Name = 10200813
REMARK  4 active torsions:
REMARK  status: ('A' for Active; 'I' for Inactive)
REMARK    1  A    between atoms: C_3  and  C_24
REMARK    2  A    between atoms: C_8  and  C_11
REMARK    3  A    between atoms: N_10  and  C_16
REMARK    4  A    between atoms: C_24  and  C_26
REMARK                            x       y       z     vdW  Elec       q    Type
REMARK                         _______ _______ _______ _____ _____    ______ ____
ROOT
ATOM      1  O   UNL     1      34.344 -17.328 -25.232  0.00  0.00    -0.265 OA
ATOM      2  N   UNL     1      34.297 -17.899 -22.952  0.00  0.00    -0.272 N 
ATOM      3  C   UNL     1      35.199 -19.789 -20.950  0.00  0.00    +0.008 C 
ATOM      4  C   UNL     1      35.125 -20.161 -22.439  0.00  0.00    +0.022 C 
ATOM      5  C   UNL     1      35.420 -18.277 -20.791  0.00  0.00    +0.022 C 
ATOM      6  C   UNL     1      34.071 -19.327 -23.165  0.00  0.00    +0.094 C 
ATOM      7  C   UNL     1      34.362 -17.478 -21.549  0.00  0.00    +0.094 C 
ATOM      8  C   UNL     1      34.390 -17.045 -24.041  0.00  0.00    +0.303 C 
ENDROOT
BRANCH   8  11
ATOM      9  O   UNL     1      35.611 -15.289 -23.178  0.00  0.00    -0.265 OA
ATOM     10  N   UNL     1      33.495 -14.840 -24.138  0.00  0.00    -0.277 N 
ATOM     11  C   UNL     1      34.568 -15.608 -23.733  0.00  0.00    +0.303 C 
ATOM     12  H   UNL     1      32.753 -15.320 -24.573  0.00  0.00    +0.155 HD
BRANCH  10  16
ATOM     13  O   UNL     1      31.829 -10.882 -21.834  0.00  0.00    -0.407 OA
ATOM     14  O   UNL     1      31.570  -8.598 -21.582  0.00  0.00    -0.223 OA
ATOM     15  N   UNL     1      32.773  -9.466 -23.379  0.00  0.00    -0.287 N 
ATOM     16  C   UNL     1      33.343 -13.441 -23.997  0.00  0.00    +0.054 C 
ATOM     17  C   UNL     1      32.620 -12.949 -22.917  0.00  0.00    +0.054 C 
ATOM     18  C   UNL     1      33.927 -12.597 -24.952  0.00  0.00    +0.016 C 
ATOM     19  C   UNL     1      32.502 -11.579 -22.825  0.00  0.00    +0.167 A 
ATOM     20  C   UNL     1      33.075 -10.746 -23.761  0.00  0.00    +0.096 A 
ATOM     21  C   UNL     1      33.795 -11.212 -24.839  0.00  0.00    +0.022 C 
ATOM     22  C   UNL     1      32.021  -9.542 -22.218  0.00  0.00    +0.419 A 
ATOM     23  H   UNL     1      33.040  -8.641 -23.845  0.00  0.00    +0.172 HD
ENDBRANCH  10  16
ENDBRANCH   8  11
BRANCH   3  24
ATOM     24  C   UNL     1      36.303 -20.577 -20.248  0.00  0.00    +0.026 C 
BRANCH  24  26
ATOM     25  F   UNL     1      34.264 -23.702 -16.045  0.00  0.00    -0.204 F 
ATOM     26  C   UNL     1      35.757 -21.412 -19.123  0.00  0.00    -0.022 C 
ATOM     27  C   UNL     1      36.536 -21.634 -17.995  0.00  0.00    -0.002 C 
ATOM     28  C   UNL     1      34.482 -21.952 -19.228  0.00  0.00    -0.002 C 
ATOM     29  C   UNL     1      36.029 -22.409 -16.952  0.00  0.00    +0.029 C 
ATOM     30  C   UNL     1      33.975 -22.728 -18.184  0.00  0.00    +0.029 C 
ATOM     31  C   UNL     1      34.749 -22.956 -17.046  0.00  0.00    +0.140 C 
ENDBRANCH  24  26
ENDBRANCH   3  24
TORSDOF 4
ENDMDL
MODEL 9
REMARK VINA RESULT:     -10.8      3.904      6.233
REMARK  Name = 10200813
REMARK  4 active torsions:
REMARK  status: ('A' for Active; 'I' for Inactive)
REMARK    1  A    between atoms: C_3  and  C_24
REMARK    2  A    between atoms: C_8  and  C_11
REMARK    3  A    between atoms: N_10  and  C_16
REMARK    4  A    between atoms: C_24  and  C_26
REMARK                            x       y       z     vdW  Elec       q    Type
REMARK                         _______ _______ _______ _____ _____    ______ ____
ROOT
ATOM      1  O   UNL     1      31.783 -12.052 -19.895  0.00  0.00    -0.265 OA
ATOM      2  N   UNL     1      32.024 -10.836 -21.892  0.00  0.00    -0.272 N 
ATOM      3  C   UNL     1      33.021  -8.394 -23.090  0.00  0.00    +0.008 C 
ATOM      4  C   UNL     1      32.685  -8.483 -21.593  0.00  0.00    +0.022 C 
ATOM      5  C   UNL     1      33.416  -9.778 -23.628  0.00  0.00    +0.022 C 
ATOM      6  C   UNL     1      31.624  -9.549 -21.327  0.00  0.00    +0.094 C 
ATOM      7  C   UNL     1      32.343 -10.820 -23.323  0.00  0.00    +0.094 C 
ATOM      8  C   UNL     1      32.037 -11.968 -21.090  0.00  0.00    +0.303 C 
ENDROOT
BRANCH   8  11
ATOM      9  O   UNL     1      31.640 -13.649 -22.619  0.00  0.00    -0.265 OA
ATOM     10  N   UNL     1      33.588 -13.765 -21.280  0.00  0.00    -0.277 N 
ATOM     11  C   UNL     1      32.405 -13.238 -21.756  0.00  0.00    +0.303 C 
ATOM     12  H   UNL     1      34.042 -13.253 -20.571  0.00  0.00    +0.155 HD
BRANCH  10  16
ATOM     13  O   UNL     1      35.558 -18.139 -20.424  0.00  0.00    -0.407 OA
ATOM     14  O   UNL     1      36.592 -20.101 -21.082  0.00  0.00    -0.223 OA
ATOM     15  N   UNL     1      36.039 -18.466 -22.648  0.00  0.00    -0.287 N 
ATOM     16  C   UNL     1      34.222 -14.959 -21.696  0.00  0.00    +0.054 C 
ATOM     17  C   UNL     1      34.541 -15.918 -20.742  0.00  0.00    +0.054 C 
ATOM     18  C   UNL     1      34.505 -15.136 -23.057  0.00  0.00    +0.016 C 
ATOM     19  C   UNL     1      35.156 -17.063 -21.199  0.00  0.00    +0.167 A 
ATOM     20  C   UNL     1      35.437 -17.241 -22.536  0.00  0.00    +0.096 A 
ATOM     21  C   UNL     1      35.128 -16.305 -23.498  0.00  0.00    +0.022 C 
ATOM     22  C   UNL     1      36.115 -19.012 -21.377  0.00  0.00    +0.419 A 
ATOM     23  H   UNL     1      36.360 -18.884 -23.480  0.00  0.00    +0.172 HD
ENDBRANCH  10  16
ENDBRANCH   8  11
BRANCH   3  24
ATOM     24  C   UNL     1      34.132  -7.377 -23.337  0.00  0.00    +0.026 C 
BRANCH  24  26
ATOM     25  F   UNL     1      32.876  -3.932 -27.597  0.00  0.00    -0.204 F 
ATOM     26  C   UNL     1      33.796  -6.455 -24.477  0.00  0.00    -0.022 C 
ATOM     27  C   UNL     1      34.720  -6.260 -25.495  0.00  0.00    -0.002 C 
ATOM     28  C   UNL     1      32.566  -5.811 -24.497  0.00  0.00    -0.002 C 
ATOM     29  C   UNL     1      34.408  -5.405 -26.552  0.00  0.00    +0.029 C 
ATOM     30  C   UNL     1      32.254  -4.957 -25.554  0.00  0.00    +0.029 C 
ATOM     31  C   UNL     1      33.175  -4.754 -26.582  0.00  0.00    +0.140 C 
ENDBRANCH  24  26
ENDBRANCH   3  24
TORSDOF 4
ENDMDL
