MODEL 1
REMARK VINA RESULT:     -10.4      0.000      0.000
REMARK  Name = 160254
REMARK  0 active torsions:
REMARK  status: ('A' for Active; 'I' for Inactive)
REMARK                            x       y       z     vdW  Elec       q    Type
REMARK                         _______ _______ _______ _____ _____    ______ ____
ROOT
ATOM      1  O   UNL     1      37.060 -20.254 -19.723  0.00  0.00    -0.475 OA
ATOM      2  O   UNL     1      32.561 -22.584 -17.809  0.00  0.00    -0.283 OA
ATOM      3  O   UNL     1      32.682 -21.714 -20.314  0.00  0.00    -0.283 OA
ATOM      4  C   UNL     1      36.433 -23.954 -14.250  0.00  0.00    +0.019 C 
ATOM      5  C   UNL     1      35.076 -24.423 -13.675  0.00  0.00    +0.004 C 
ATOM      6  C   UNL     1      36.257 -23.177 -15.565  0.00  0.00    -0.027 C 
ATOM      7  C   UNL     1      35.038 -23.175 -16.291  0.00  0.00    -0.023 C 
ATOM      8  C   UNL     1      34.192 -25.030 -14.747  0.00  0.00    +0.005 C 
ATOM      9  C   UNL     1      33.855 -23.978 -15.793  0.00  0.00    +0.026 C 
ATOM     10  C   UNL     1      34.941 -22.395 -17.478  0.00  0.00    +0.041 C 
ATOM     11  C   UNL     1      37.095 -23.083 -13.156  0.00  0.00    +0.004 C 
ATOM     12  C   UNL     1      37.339 -25.178 -14.511  0.00  0.00    +0.004 C 
ATOM     13  C   UNL     1      36.060 -21.697 -17.980  0.00  0.00    +0.037 C 
ATOM     14  C   UNL     1      37.356 -22.470 -16.090  0.00  0.00    -0.004 C 
ATOM     15  C   UNL     1      35.959 -20.934 -19.221  0.00  0.00    +0.138 C 
ATOM     16  C   UNL     1      34.871 -20.887 -19.979  0.00  0.00    +0.057 C 
ATOM     17  C   UNL     1      35.139 -20.102 -21.201  0.00  0.00    +0.072 C 
ATOM     18  C   UNL     1      37.263 -21.748 -17.277  0.00  0.00    +0.003 C 
ATOM     19  C   UNL     1      33.655 -22.249 -18.235  0.00  0.00    +0.234 C 
ATOM     20  C   UNL     1      36.510 -19.507 -20.832  0.00  0.00    +0.210 C 
ATOM     21  C   UNL     1      33.666 -21.610 -19.600  0.00  0.00    +0.233 C 
ATOM     22  C   UNL     1      34.118 -19.020 -21.520  0.00  0.00    +0.009 C 
ENDROOT
TORSDOF 0
ENDMDL
MODEL 2
REMARK VINA RESULT:     -10.3      6.613      9.819
REMARK  Name = 160254
REMARK  0 active torsions:
REMARK  status: ('A' for Active; 'I' for Inactive)
REMARK                            x       y       z     vdW  Elec       q    Type
REMARK                         _______ _______ _______ _____ _____    ______ ____
ROOT
ATOM      1  O   UNL     1      31.939 -12.513 -20.090  0.00  0.00    -0.475 OA
ATOM      2  O   UNL     1      33.548 -14.157 -24.993  0.00  0.00    -0.283 OA
ATOM      3  O   UNL     1      33.209 -11.577 -24.467  0.00  0.00    -0.283 OA
ATOM      4  C   UNL     1      34.418 -18.438 -21.761  0.00  0.00    +0.019 C 
ATOM      5  C   UNL     1      34.675 -18.887 -23.218  0.00  0.00    +0.004 C 
ATOM      6  C   UNL     1      33.911 -16.988 -21.692  0.00  0.00    -0.027 C 
ATOM      7  C   UNL     1      33.977 -16.104 -22.800  0.00  0.00    -0.023 C 
ATOM      8  C   UNL     1      35.428 -17.833 -24.006  0.00  0.00    +0.005 C 
ATOM      9  C   UNL     1      34.588 -16.568 -24.106  0.00  0.00    +0.026 C 
ATOM     10  C   UNL     1      33.448 -14.791 -22.670  0.00  0.00    +0.041 C 
ATOM     11  C   UNL     1      33.388 -19.432 -21.172  0.00  0.00    +0.004 C 
ATOM     12  C   UNL     1      35.724 -18.550 -20.943  0.00  0.00    +0.004 C 
ATOM     13  C   UNL     1      32.936 -14.334 -21.436  0.00  0.00    +0.037 C 
ATOM     14  C   UNL     1      33.395 -16.505 -20.474  0.00  0.00    -0.004 C 
ATOM     15  C   UNL     1      32.434 -12.969 -21.304  0.00  0.00    +0.138 C 
ATOM     16  C   UNL     1      32.471 -12.065 -22.275  0.00  0.00    +0.057 C 
ATOM     17  C   UNL     1      31.967 -10.769 -21.779  0.00  0.00    +0.072 C 
ATOM     18  C   UNL     1      32.922 -15.202 -20.345  0.00  0.00    +0.003 C 
ATOM     19  C   UNL     1      33.376 -13.840 -23.827  0.00  0.00    +0.234 C 
ATOM     20  C   UNL     1      31.397 -11.214 -20.421  0.00  0.00    +0.210 C 
ATOM     21  C   UNL     1      33.026 -12.394 -23.580  0.00  0.00    +0.233 C 
ATOM     22  C   UNL     1      30.908 -10.104 -22.648  0.00  0.00    +0.009 C 
ENDROOT
TORSDOF 0
ENDMDL
MODEL 3
REMARK VINA RESULT:     -10.1      1.831      6.933
REMARK  Name = 160254
REMARK  0 active torsions:
REMARK  status: ('A' for Active; 'I' for Inactive)
REMARK                            x       y       z     vdW  Elec       q    Type
REMARK                         _______ _______ _______ _____ _____    ______ ____
ROOT
ATOM      1  O   UNL     1      32.015 -22.660 -18.066  0.00  0.00    -0.475 OA
ATOM      2  O   UNL     1      37.179 -21.028 -18.074  0.00  0.00    -0.283 OA
ATOM      3  O   UNL     1      36.418 -23.128 -16.639  0.00  0.00    -0.283 OA
ATOM      4  C   UNL     1      34.967 -18.594 -22.401  0.00  0.00    +0.019 C 
ATOM      5  C   UNL     1      36.396 -18.031 -22.222  0.00  0.00    +0.004 C 
ATOM      6  C   UNL     1      34.591 -19.565 -21.270  0.00  0.00    -0.027 C 
ATOM      7  C   UNL     1      35.552 -20.095 -20.370  0.00  0.00    -0.023 C 
ATOM      8  C   UNL     1      37.388 -19.119 -21.860  0.00  0.00    +0.005 C 
ATOM      9  C   UNL     1      37.014 -19.731 -20.518  0.00  0.00    +0.026 C 
ATOM     10  C   UNL     1      35.118 -20.955 -19.322  0.00  0.00    +0.041 C 
ATOM     11  C   UNL     1      34.017 -17.373 -22.444  0.00  0.00    +0.004 C 
ATOM     12  C   UNL     1      34.866 -19.337 -23.752  0.00  0.00    +0.004 C 
ATOM     13  C   UNL     1      33.766 -21.348 -19.219  0.00  0.00    +0.037 C 
ATOM     14  C   UNL     1      33.250 -19.974 -21.143  0.00  0.00    -0.004 C 
ATOM     15  C   UNL     1      33.341 -22.263 -18.165  0.00  0.00    +0.138 C 
ATOM     16  C   UNL     1      34.166 -22.826 -17.290  0.00  0.00    +0.057 C 
ATOM     17  C   UNL     1      33.423 -23.763 -16.424  0.00  0.00    +0.072 C 
ATOM     18  C   UNL     1      32.844 -20.852 -20.141  0.00  0.00    +0.003 C 
ATOM     19  C   UNL     1      36.054 -21.460 -18.265  0.00  0.00    +0.234 C 
ATOM     20  C   UNL     1      31.982 -23.400 -16.824  0.00  0.00    +0.210 C 
ATOM     21  C   UNL     1      35.594 -22.546 -17.325  0.00  0.00    +0.233 C 
ATOM     22  C   UNL     1      33.656 -23.595 -14.929  0.00  0.00    +0.009 C 
ENDROOT
TORSDOF 0
ENDMDL
MODEL 4
REMARK VINA RESULT:     -10.1      1.482      2.306
REMARK  Name = 160254
REMARK  0 active torsions:
REMARK  status: ('A' for Active; 'I' for Inactive)
REMARK                            x       y       z     vdW  Elec       q    Type
REMARK                         _______ _______ _______ _____ _____    ______ ____
ROOT
ATOM      1  O   UNL     1      36.401 -21.881 -18.697  0.00  0.00    -0.475 OA
ATOM      2  O   UNL     1      32.546 -23.189 -15.125  0.00  0.00    -0.283 OA
ATOM      3  O   UNL     1      32.009 -23.066 -17.722  0.00  0.00    -0.283 OA
ATOM      4  C   UNL     1      37.208 -23.840 -12.409  0.00  0.00    +0.019 C 
ATOM      5  C   UNL     1      36.047 -24.012 -11.402  0.00  0.00    +0.004 C 
ATOM      6  C   UNL     1      36.698 -23.448 -13.805  0.00  0.00    -0.027 C 
ATOM      7  C   UNL     1      35.331 -23.544 -14.172  0.00  0.00    -0.023 C 
ATOM      8  C   UNL     1      34.905 -24.815 -11.993  0.00  0.00    +0.005 C 
ATOM      9  C   UNL     1      34.314 -24.072 -13.181  0.00  0.00    +0.026 C 
ATOM     10  C   UNL     1      34.931 -23.121 -15.470  0.00  0.00    +0.041 C 
ATOM     11  C   UNL     1      38.144 -22.758 -11.818  0.00  0.00    +0.004 C 
ATOM     12  C   UNL     1      38.001 -25.161 -12.519  0.00  0.00    +0.004 C 
ATOM     13  C   UNL     1      35.884 -22.689 -16.417  0.00  0.00    +0.037 C 
ATOM     14  C   UNL     1      37.626 -23.013 -14.771  0.00  0.00    -0.004 C 
ATOM     15  C   UNL     1      35.466 -22.297 -17.760  0.00  0.00    +0.138 C 
ATOM     16  C   UNL     1      34.217 -22.370 -18.202  0.00  0.00    +0.057 C 
ATOM     17  C   UNL     1      34.159 -21.983 -19.626  0.00  0.00    +0.072 C 
ATOM     18  C   UNL     1      37.230 -22.646 -16.054  0.00  0.00    +0.003 C 
ATOM     19  C   UNL     1      33.492 -23.082 -15.890  0.00  0.00    +0.234 C 
ATOM     20  C   UNL     1      35.584 -21.428 -19.801  0.00  0.00    +0.210 C 
ATOM     21  C   UNL     1      33.147 -22.852 -17.339  0.00  0.00    +0.233 C 
ATOM     22  C   UNL     1      33.100 -20.949 -19.980  0.00  0.00    +0.009 C 
ENDROOT
TORSDOF 0
ENDMDL
MODEL 5
REMARK VINA RESULT:     -10.0      2.996      5.469
REMARK  Name = 160254
REMARK  0 active torsions:
REMARK  status: ('A' for Active; 'I' for Inactive)
REMARK                            x       y       z     vdW  Elec       q    Type
REMARK                         _______ _______ _______ _____ _____    ______ ____
ROOT
ATOM      1  O   UNL     1      30.590 -24.630 -13.591  0.00  0.00    -0.475 OA
ATOM      2  O   UNL     1      33.557 -22.711 -17.696  0.00  0.00    -0.283 OA
ATOM      3  O   UNL     1      30.944 -22.256 -17.577  0.00  0.00    -0.283 OA
ATOM      4  C   UNL     1      37.192 -24.021 -13.873  0.00  0.00    +0.019 C 
ATOM      5  C   UNL     1      37.970 -23.640 -15.154  0.00  0.00    +0.004 C 
ATOM      6  C   UNL     1      35.672 -24.009 -14.105  0.00  0.00    -0.027 C 
ATOM      7  C   UNL     1      35.081 -23.423 -15.255  0.00  0.00    -0.023 C 
ATOM      8  C   UNL     1      37.365 -22.431 -15.841  0.00  0.00    +0.005 C 
ATOM      9  C   UNL     1      35.950 -22.754 -16.298  0.00  0.00    +0.026 C 
ATOM     10  C   UNL     1      33.669 -23.491 -15.418  0.00  0.00    +0.041 C 
ATOM     11  C   UNL     1      37.695 -25.423 -13.456  0.00  0.00    +0.004 C 
ATOM     12  C   UNL     1      37.532 -23.025 -12.742  0.00  0.00    +0.004 C 
ATOM     13  C   UNL     1      32.850 -24.057 -14.417  0.00  0.00    +0.037 C 
ATOM     14  C   UNL     1      34.830 -24.567 -13.124  0.00  0.00    -0.004 C 
ATOM     15  C   UNL     1      31.399 -24.083 -14.578  0.00  0.00    +0.138 C 
ATOM     16  C   UNL     1      30.754 -23.545 -15.604  0.00  0.00    +0.057 C 
ATOM     17  C   UNL     1      29.295 -23.670 -15.408  0.00  0.00    +0.072 C 
ATOM     18  C   UNL     1      33.446 -24.587 -13.273  0.00  0.00    +0.003 C 
ATOM     19  C   UNL     1      32.983 -22.999 -16.657  0.00  0.00    +0.234 C 
ATOM     20  C   UNL     1      29.277 -24.621 -14.198  0.00  0.00    +0.210 C 
ATOM     21  C   UNL     1      31.480 -22.882 -16.678  0.00  0.00    +0.233 C 
ATOM     22  C   UNL     1      28.524 -24.241 -16.590  0.00  0.00    +0.009 C 
ENDROOT
TORSDOF 0
ENDMDL
MODEL 6
REMARK VINA RESULT:      -9.9      1.496      6.154
REMARK  Name = 160254
REMARK  0 active torsions:
REMARK  status: ('A' for Active; 'I' for Inactive)
REMARK                            x       y       z     vdW  Elec       q    Type
REMARK                         _______ _______ _______ _____ _____    ______ ____
ROOT
ATOM      1  O   UNL     1      37.733 -22.520 -16.489  0.00  0.00    -0.475 OA
ATOM      2  O   UNL     1      32.694 -22.785 -18.456  0.00  0.00    -0.283 OA
ATOM      3  O   UNL     1      33.262 -23.725 -16.039  0.00  0.00    -0.283 OA
ATOM      4  C   UNL     1      35.212 -19.159 -21.626  0.00  0.00    +0.019 C 
ATOM      5  C   UNL     1      33.819 -19.435 -22.238  0.00  0.00    +0.004 C 
ATOM      6  C   UNL     1      35.483 -20.050 -20.402  0.00  0.00    -0.027 C 
ATOM      7  C   UNL     1      34.458 -20.789 -19.756  0.00  0.00    -0.023 C 
ATOM      8  C   UNL     1      32.744 -19.523 -21.172  0.00  0.00    +0.005 C 
ATOM      9  C   UNL     1      33.030 -20.700 -20.251  0.00  0.00    +0.026 C 
ATOM     10  C   UNL     1      34.797 -21.624 -18.655  0.00  0.00    +0.041 C 
ATOM     11  C   UNL     1      36.243 -19.409 -22.753  0.00  0.00    +0.004 C 
ATOM     12  C   UNL     1      35.309 -17.678 -21.197  0.00  0.00    +0.004 C 
ATOM     13  C   UNL     1      36.114 -21.660 -18.151  0.00  0.00    +0.037 C 
ATOM     14  C   UNL     1      36.788 -20.106 -19.877  0.00  0.00    -0.004 C 
ATOM     15  C   UNL     1      36.440 -22.490 -16.994  0.00  0.00    +0.138 C 
ATOM     16  C   UNL     1      35.551 -23.200 -16.312  0.00  0.00    +0.057 C 
ATOM     17  C   UNL     1      36.198 -23.846 -15.154  0.00  0.00    +0.072 C 
ATOM     18  C   UNL     1      37.099 -20.891 -18.770  0.00  0.00    +0.003 C 
ATOM     19  C   UNL     1      33.793 -22.523 -17.996  0.00  0.00    +0.234 C 
ATOM     20  C   UNL     1      37.673 -23.564 -15.490  0.00  0.00    +0.210 C 
ATOM     21  C   UNL     1      34.146 -23.203 -16.697  0.00  0.00    +0.233 C 
ATOM     22  C   UNL     1      35.926 -25.336 -15.000  0.00  0.00    +0.009 C 
ENDROOT
TORSDOF 0
ENDMDL
MODEL 7
REMARK VINA RESULT:      -9.2      3.278      5.818
REMARK  Name = 160254
REMARK  0 active torsions:
REMARK  status: ('A' for Active; 'I' for Inactive)
REMARK                            x       y       z     vdW  Elec       q    Type
REMARK                         _______ _______ _______ _____ _____    ______ ____
ROOT
ATOM      1  O   UNL     1      35.696 -22.280 -17.503  0.00  0.00    -0.475 OA
ATOM      2  O   UNL     1      34.179 -24.621 -12.861  0.00  0.00    -0.283 OA
ATOM      3  O   UNL     1      36.584 -23.525 -13.109  0.00  0.00    -0.283 OA
ATOM      4  C   UNL     1      29.541 -23.853 -15.587  0.00  0.00    +0.019 C 
ATOM      5  C   UNL     1      29.215 -24.691 -14.328  0.00  0.00    +0.004 C 
ATOM      6  C   UNL     1      31.050 -23.594 -15.725  0.00  0.00    -0.027 C 
ATOM      7  C   UNL     1      31.963 -23.831 -14.665  0.00  0.00    -0.023 C 
ATOM      8  C   UNL     1      29.964 -24.187 -13.109  0.00  0.00    +0.005 C 
ATOM      9  C   UNL     1      31.462 -24.335 -13.328  0.00  0.00    +0.026 C 
ATOM     10  C   UNL     1      33.351 -23.607 -14.884  0.00  0.00    +0.041 C 
ATOM     11  C   UNL     1      28.985 -24.646 -16.795  0.00  0.00    +0.004 C 
ATOM     12  C   UNL     1      28.805 -22.497 -15.515  0.00  0.00    +0.004 C 
ATOM     13  C   UNL     1      33.815 -23.076 -16.107  0.00  0.00    +0.037 C 
ATOM     14  C   UNL     1      31.541 -23.065 -16.933  0.00  0.00    -0.004 C 
ATOM     15  C   UNL     1      35.237 -22.811 -16.305  0.00  0.00    +0.138 C 
ATOM     16  C   UNL     1      36.164 -22.982 -15.371  0.00  0.00    +0.057 C 
ATOM     17  C   UNL     1      37.479 -22.536 -15.874  0.00  0.00    +0.072 C 
ATOM     18  C   UNL     1      32.896 -22.806 -17.121  0.00  0.00    +0.003 C 
ATOM     19  C   UNL     1      34.388 -23.944 -13.855  0.00  0.00    +0.234 C 
ATOM     20  C   UNL     1      37.134 -22.336 -17.360  0.00  0.00    +0.210 C 
ATOM     21  C   UNL     1      35.807 -23.472 -14.047  0.00  0.00    +0.233 C 
ATOM     22  C   UNL     1      38.620 -23.524 -15.683  0.00  0.00    +0.009 C 
ENDROOT
TORSDOF 0
ENDMDL
MODEL 8
REMARK VINA RESULT:      -9.0      6.473      9.579
REMARK  Name = 160254
REMARK  0 active torsions:
REMARK  status: ('A' for Active; 'I' for Inactive)
REMARK                            x       y       z     vdW  Elec       q    Type
REMARK                         _______ _______ _______ _____ _____    ______ ____
ROOT
ATOM      1  O   UNL     1      34.057 -12.227 -24.749  0.00  0.00    -0.475 OA
ATOM      2  O   UNL     1      32.340 -14.454 -20.120  0.00  0.00    -0.283 OA
ATOM      3  O   UNL     1      31.256 -12.209 -21.033  0.00  0.00    -0.283 OA
ATOM      4  C   UNL     1      35.119 -18.414 -22.597  0.00  0.00    +0.019 C 
ATOM      5  C   UNL     1      34.754 -18.909 -21.178  0.00  0.00    +0.004 C 
ATOM      6  C   UNL     1      34.683 -16.956 -22.821  0.00  0.00    -0.027 C 
ATOM      7  C   UNL     1      33.792 -16.284 -21.945  0.00  0.00    -0.023 C 
ATOM      8  C   UNL     1      33.338 -18.524 -20.796  0.00  0.00    +0.005 C 
ATOM      9  C   UNL     1      33.212 -17.009 -20.748  0.00  0.00    +0.026 C 
ATOM     10  C   UNL     1      33.471 -14.921 -22.197  0.00  0.00    +0.041 C 
ATOM     11  C   UNL     1      36.651 -18.579 -22.737  0.00  0.00    +0.004 C 
ATOM     12  C   UNL     1      34.435 -19.309 -23.653  0.00  0.00    +0.004 C 
ATOM     13  C   UNL     1      33.958 -14.262 -23.345  0.00  0.00    +0.037 C 
ATOM     14  C   UNL     1      35.154 -16.273 -23.958  0.00  0.00    -0.004 C 
ATOM     15  C   UNL     1      33.587 -12.876 -23.615  0.00  0.00    +0.138 C 
ATOM     16  C   UNL     1      32.747 -12.171 -22.868  0.00  0.00    +0.057 C 
ATOM     17  C   UNL     1      32.524 -10.842 -23.471  0.00  0.00    +0.072 C 
ATOM     18  C   UNL     1      34.796 -14.954 -24.220  0.00  0.00    +0.003 C 
ATOM     19  C   UNL     1      32.631 -14.111 -21.255  0.00  0.00    +0.234 C 
ATOM     20  C   UNL     1      33.617 -10.863 -24.555  0.00  0.00    +0.210 C 
ATOM     21  C   UNL     1      32.131 -12.755 -21.684  0.00  0.00    +0.233 C 
ATOM     22  C   UNL     1      32.685  -9.660 -22.526  0.00  0.00    +0.009 C 
ENDROOT
TORSDOF 0
ENDMDL
MODEL 9
REMARK VINA RESULT:      -9.0      7.807     11.123
REMARK  Name = 160254
REMARK  0 active torsions:
REMARK  status: ('A' for Active; 'I' for Inactive)
REMARK                            x       y       z     vdW  Elec       q    Type
REMARK                         _______ _______ _______ _____ _____    ______ ____
ROOT
ATOM      1  O   UNL     1      34.577 -15.423 -25.112  0.00  0.00    -0.475 OA
ATOM      2  O   UNL     1      32.534 -15.487 -20.097  0.00  0.00    -0.283 OA
ATOM      3  O   UNL     1      34.206 -17.382 -20.908  0.00  0.00    -0.283 OA
ATOM      4  C   UNL     1      31.637 -10.431 -21.877  0.00  0.00    +0.019 C 
ATOM      5  C   UNL     1      30.913 -10.588 -20.519  0.00  0.00    +0.004 C 
ATOM      6  C   UNL     1      32.281 -11.749 -22.336  0.00  0.00    -0.027 C 
ATOM      7  C   UNL     1      32.443 -12.860 -21.469  0.00  0.00    -0.023 C 
ATOM      8  C   UNL     1      31.757 -11.353 -19.518  0.00  0.00    +0.005 C 
ATOM      9  C   UNL     1      31.999 -12.768 -20.024  0.00  0.00    +0.026 C 
ATOM     10  C   UNL     1      33.009 -14.061 -21.981  0.00  0.00    +0.041 C 
ATOM     11  C   UNL     1      30.573  -9.934 -22.884  0.00  0.00    +0.004 C 
ATOM     12  C   UNL     1      32.736  -9.352 -21.758  0.00  0.00    +0.004 C 
ATOM     13  C   UNL     1      33.484 -14.130 -23.309  0.00  0.00    +0.037 C 
ATOM     14  C   UNL     1      32.762 -11.847 -23.655  0.00  0.00    -0.004 C 
ATOM     15  C   UNL     1      34.101 -15.354 -23.810  0.00  0.00    +0.138 C 
ATOM     16  C   UNL     1      34.314 -16.436 -23.072  0.00  0.00    +0.057 C 
ATOM     17  C   UNL     1      35.035 -17.455 -23.863  0.00  0.00    +0.072 C 
ATOM     18  C   UNL     1      33.357 -13.012 -24.133  0.00  0.00    +0.003 C 
ATOM     19  C   UNL     1      33.107 -15.312 -21.160  0.00  0.00    +0.234 C 
ATOM     20  C   UNL     1      34.937 -16.816 -25.259  0.00  0.00    +0.210 C 
ATOM     21  C   UNL     1      33.922 -16.473 -21.670  0.00  0.00    +0.233 C 
ATOM     22  C   UNL     1      34.432 -18.851 -23.834  0.00  0.00    +0.009 C 
ENDROOT
TORSDOF 0
ENDMDL
