MODEL 1
REMARK VINA RESULT:     -10.2      0.000      0.000
REMARK  Name = 23634441
REMARK  6 active torsions:
REMARK  status: ('A' for Active; 'I' for Inactive)
REMARK    1  A    between atoms: C_2  and  C_8
REMARK    2  A    between atoms: CA_4  and  C_16
REMARK    3  A    between atoms: C_5  and  O_23
REMARK    4  A    between atoms: N_15  and  CA_18
REMARK    5  A    between atoms: CA_18  and  C_20
REMARK    6  A    between atoms: C_20  and  O_21
REMARK                            x       y       z     vdW  Elec       q    Type
REMARK                         _______ _______ _______ _____ _____    ______ ____
ROOT
ATOM      1  N   UNL     1      32.591 -21.017 -19.738  0.00  0.00    -0.236 NA
ATOM      2  C   UNL     1      34.215 -19.738 -20.993  0.00  0.00    +0.022 C 
ATOM      3  C   UNL     1      35.249 -20.442 -20.385  0.00  0.00    +0.040 C 
ATOM      4  CA  UNL     1      33.623 -21.678 -19.167  0.00  0.00    +0.168 C 
ATOM      5  C   UNL     1      34.956 -21.431 -19.454  0.00  0.00    +0.156 C 
ATOM      6  C   UNL     1      32.914 -20.062 -20.638  0.00  0.00    +0.099 C 
ENDROOT
BRANCH   2   8
ATOM      7 CL   UNL     1      34.556 -14.705 -22.085  0.00  0.00    -0.082 Cl
ATOM      8  C   UNL     1      34.486 -18.703 -21.965  0.00  0.00    +0.002 C 
ATOM      9  C   UNL     1      34.400 -17.360 -21.598  0.00  0.00    +0.011 C 
ATOM     10  C   UNL     1      34.836 -19.047 -23.271  0.00  0.00    +0.000 C 
ATOM     11  C   UNL     1      34.663 -16.361 -22.537  0.00  0.00    +0.058 C 
ATOM     12  C   UNL     1      35.098 -18.049 -24.209  0.00  0.00    +0.001 C 
ATOM     13  C   UNL     1      35.012 -16.707 -23.843  0.00  0.00    +0.011 C 
ENDBRANCH   2   8
BRANCH   4  16
ATOM     14  O   UNL     1      33.950 -23.706 -18.036  0.00  0.00    -0.268 OA
ATOM     15  N   UNL     1      32.067 -22.476 -17.475  0.00  0.00    -0.290 N 
ATOM     16  C   ACE A   1      33.240 -22.700 -18.203  0.00  0.00    +0.267 C 
ATOM     17  H   UNL     1      31.553 -21.657 -17.659  0.00  0.00    +0.150 HD
BRANCH  15  18
ATOM     18  CA  UNL     1      31.569 -23.383 -16.466  0.00  0.00    +0.201 C 
BRANCH  18  20
ATOM     19  OXT UNL     1      29.644 -23.482 -15.025  0.00  0.00    -0.248 OA
ATOM     20  C   UNL     1      30.140 -23.102 -16.078  0.00  0.00    +0.334 C 
BRANCH  20  21
ATOM     21  O   UNL     1      29.458 -22.388 -17.004  0.00  0.00    -0.479 OA
ATOM     22  H   UNL     1      28.559 -22.167 -16.857  0.00  0.00    +0.295 HD
ENDBRANCH  20  21
ENDBRANCH  18  20
ENDBRANCH  15  18
ENDBRANCH   4  16
BRANCH   5  23
ATOM     23  O   UNL     1      35.960 -22.123 -18.854  0.00  0.00    -0.504 OA
ATOM     24  H   UNL     1      36.006 -22.164 -17.919  0.00  0.00    +0.292 HD
ENDBRANCH   5  23
TORSDOF 6
ENDMDL
MODEL 2
REMARK VINA RESULT:      -9.9      6.248      9.187
REMARK  Name = 23634441
REMARK  6 active torsions:
REMARK  status: ('A' for Active; 'I' for Inactive)
REMARK    1  A    between atoms: C_2  and  C_8
REMARK    2  A    between atoms: CA_4  and  C_16
REMARK    3  A    between atoms: C_5  and  O_23
REMARK    4  A    between atoms: N_15  and  CA_18
REMARK    5  A    between atoms: CA_18  and  C_20
REMARK    6  A    between atoms: C_20  and  O_21
REMARK                            x       y       z     vdW  Elec       q    Type
REMARK                         _______ _______ _______ _____ _____    ______ ____
ROOT
ATOM      1  N   UNL     1      33.796 -15.259 -22.509  0.00  0.00    -0.236 NA
ATOM      2  C   UNL     1      34.692 -17.498 -22.337  0.00  0.00    +0.022 C 
ATOM      3  C   UNL     1      34.832 -17.556 -23.720  0.00  0.00    +0.040 C 
ATOM      4  CA  UNL     1      33.946 -15.353 -23.849  0.00  0.00    +0.168 C 
ATOM      5  C   UNL     1      34.453 -16.468 -24.497  0.00  0.00    +0.156 C 
ATOM      6  C   UNL     1      34.174 -16.337 -21.786  0.00  0.00    +0.099 C 
ENDROOT
BRANCH   2   8
ATOM      7 CL   UNL     1      33.271 -21.600 -19.544  0.00  0.00    -0.082 Cl
ATOM      8  C   UNL     1      35.076 -18.614 -21.501  0.00  0.00    +0.002 C 
ATOM      9  C   UNL     1      34.101 -19.469 -20.986  0.00  0.00    +0.011 C 
ATOM     10  C   UNL     1      36.422 -18.836 -21.209  0.00  0.00    +0.000 C 
ATOM     11  C   UNL     1      34.472 -20.545 -20.179  0.00  0.00    +0.058 C 
ATOM     12  C   UNL     1      36.792 -19.911 -20.402  0.00  0.00    +0.001 C 
ATOM     13  C   UNL     1      35.818 -20.766 -19.888  0.00  0.00    +0.011 C 
ENDBRANCH   2   8
BRANCH   4  16
ATOM     14  O   UNL     1      32.685 -14.272 -25.506  0.00  0.00    -0.268 OA
ATOM     15  N   UNL     1      34.103 -12.954 -24.230  0.00  0.00    -0.290 N 
ATOM     16  C   ACE A   1      33.529 -14.176 -24.598  0.00  0.00    +0.267 C 
ATOM     17  H   UNL     1      34.766 -12.952 -23.501  0.00  0.00    +0.150 HD
BRANCH  15  18
ATOM     18  CA  UNL     1      33.776 -11.696 -24.860  0.00  0.00    +0.201 C 
BRANCH  18  20
ATOM     19  OXT UNL     1      33.207 -10.001 -23.249  0.00  0.00    -0.248 OA
ATOM     20  C   UNL     1      34.052 -10.507 -23.977  0.00  0.00    +0.334 C 
BRANCH  20  21
ATOM     21  O   UNL     1      35.324 -10.051 -24.065  0.00  0.00    -0.479 OA
ATOM     22  H   UNL     1      35.537  -9.195 -23.751  0.00  0.00    +0.295 HD
ENDBRANCH  20  21
ENDBRANCH  18  20
ENDBRANCH  15  18
ENDBRANCH   4  16
BRANCH   5  23
ATOM     23  O   UNL     1      34.585 -16.515 -25.848  0.00  0.00    -0.504 OA
ATOM     24  H   UNL     1      33.866 -16.274 -26.398  0.00  0.00    +0.292 HD
ENDBRANCH   5  23
TORSDOF 6
ENDMDL
MODEL 3
REMARK VINA RESULT:      -9.8      4.543      6.235
REMARK  Name = 23634441
REMARK  6 active torsions:
REMARK  status: ('A' for Active; 'I' for Inactive)
REMARK    1  A    between atoms: C_2  and  C_8
REMARK    2  A    between atoms: CA_4  and  C_16
REMARK    3  A    between atoms: C_5  and  O_23
REMARK    4  A    between atoms: N_15  and  CA_18
REMARK    5  A    between atoms: CA_18  and  C_20
REMARK    6  A    between atoms: C_20  and  O_21
REMARK                            x       y       z     vdW  Elec       q    Type
REMARK                         _______ _______ _______ _____ _____    ______ ____
ROOT
ATOM      1  N   UNL     1      37.341 -22.379 -16.764  0.00  0.00    -0.236 NA
ATOM      2  C   UNL     1      35.429 -21.856 -18.149  0.00  0.00    +0.022 C 
ATOM      3  C   UNL     1      34.629 -22.682 -17.368  0.00  0.00    +0.040 C 
ATOM      4  CA  UNL     1      36.532 -23.173 -16.029  0.00  0.00    +0.168 C 
ATOM      5  C   UNL     1      35.183 -23.357 -16.286  0.00  0.00    +0.156 C 
ATOM      6  C   UNL     1      36.768 -21.739 -17.808  0.00  0.00    +0.099 C 
ENDROOT
BRANCH   2   8
ATOM      7 CL   UNL     1      36.240 -18.836 -22.256  0.00  0.00    -0.082 Cl
ATOM      8  C   UNL     1      34.883 -21.141 -19.281  0.00  0.00    +0.002 C 
ATOM      9  C   UNL     1      35.727 -20.418 -20.124  0.00  0.00    +0.011 C 
ATOM     10  C   UNL     1      33.511 -21.174 -19.531  0.00  0.00    +0.000 C 
ATOM     11  C   UNL     1      35.199 -19.728 -21.216  0.00  0.00    +0.058 C 
ATOM     12  C   UNL     1      32.984 -20.485 -20.622  0.00  0.00    +0.001 C 
ATOM     13  C   UNL     1      33.827 -19.762 -21.465  0.00  0.00    +0.011 C 
ENDBRANCH   2   8
BRANCH   4  16
ATOM     14  O   UNL     1      36.705 -23.770 -13.767  0.00  0.00    -0.268 OA
ATOM     15  N   UNL     1      38.330 -24.590 -15.203  0.00  0.00    -0.290 N 
ATOM     16  C   ACE A   1      37.180 -23.847 -14.913  0.00  0.00    +0.267 C 
ATOM     17  H   UNL     1      38.651 -24.607 -16.134  0.00  0.00    +0.150 HD
BRANCH  15  18
ATOM     18  CA  UNL     1      39.072 -25.333 -14.210  0.00  0.00    +0.201 C 
BRANCH  18  20
ATOM     19  OXT UNL     1      41.175 -26.494 -14.062  0.00  0.00    -0.248 OA
ATOM     20  C   UNL     1      40.320 -25.971 -14.765  0.00  0.00    +0.334 C 
BRANCH  20  21
ATOM     21  O   UNL     1      40.404 -25.910 -16.114  0.00  0.00    -0.479 OA
ATOM     22  H   UNL     1      41.243 -25.856 -16.529  0.00  0.00    +0.295 HD
ENDBRANCH  20  21
ENDBRANCH  18  20
ENDBRANCH  15  18
ENDBRANCH   4  16
BRANCH   5  23
ATOM     23  O   UNL     1      34.409 -24.167 -15.518  0.00  0.00    -0.504 OA
ATOM     24  H   UNL     1      34.058 -24.958 -15.877  0.00  0.00    +0.292 HD
ENDBRANCH   5  23
TORSDOF 6
ENDMDL
MODEL 4
REMARK VINA RESULT:      -9.7      1.939      2.553
REMARK  Name = 23634441
REMARK  6 active torsions:
REMARK  status: ('A' for Active; 'I' for Inactive)
REMARK    1  A    between atoms: C_2  and  C_8
REMARK    2  A    between atoms: CA_4  and  C_16
REMARK    3  A    between atoms: C_5  and  O_23
REMARK    4  A    between atoms: N_15  and  CA_18
REMARK    5  A    between atoms: CA_18  and  C_20
REMARK    6  A    between atoms: C_20  and  O_21
REMARK                            x       y       z     vdW  Elec       q    Type
REMARK                         _______ _______ _______ _____ _____    ______ ____
ROOT
ATOM      1  N   UNL     1      33.017 -21.418 -19.716  0.00  0.00    -0.236 NA
ATOM      2  C   UNL     1      34.462 -19.872 -20.886  0.00  0.00    +0.022 C 
ATOM      3  C   UNL     1      35.573 -20.425 -20.258  0.00  0.00    +0.040 C 
ATOM      4  CA  UNL     1      34.120 -21.929 -19.125  0.00  0.00    +0.168 C 
ATOM      5  C   UNL     1      35.407 -21.473 -19.360  0.00  0.00    +0.156 C 
ATOM      6  C   UNL     1      33.216 -20.401 -20.583  0.00  0.00    +0.099 C 
ENDROOT
BRANCH   2   8
ATOM      7 CL   UNL     1      34.569 -14.782 -21.735  0.00  0.00    -0.082 Cl
ATOM      8  C   UNL     1      34.601 -18.781 -21.824  0.00  0.00    +0.002 C 
ATOM      9  C   UNL     1      34.527 -17.462 -21.378  0.00  0.00    +0.011 C 
ATOM     10  C   UNL     1      34.810 -19.049 -23.178  0.00  0.00    +0.000 C 
ATOM     11  C   UNL     1      34.661 -16.409 -22.285  0.00  0.00    +0.058 C 
ATOM     12  C   UNL     1      34.944 -17.997 -24.084  0.00  0.00    +0.001 C 
ATOM     13  C   UNL     1      34.870 -16.678 -23.638  0.00  0.00    +0.011 C 
ENDBRANCH   2   8
BRANCH   4  16
ATOM     14  O   UNL     1      33.444 -24.115 -18.611  0.00  0.00    -0.268 OA
ATOM     15  N   UNL     1      34.152 -22.787 -16.848  0.00  0.00    -0.290 N 
ATOM     16  C   ACE A   1      33.870 -23.023 -18.198  0.00  0.00    +0.267 C 
ATOM     17  H   UNL     1      34.487 -21.897 -16.591  0.00  0.00    +0.150 HD
BRANCH  15  18
ATOM     18  CA  UNL     1      33.979 -23.779 -15.811  0.00  0.00    +0.201 C 
BRANCH  18  20
ATOM     19  OXT UNL     1      36.375 -24.002 -15.751  0.00  0.00    -0.248 OA
ATOM     20  C   UNL     1      35.282 -24.391 -15.361  0.00  0.00    +0.334 C 
BRANCH  20  21
ATOM     21  O   UNL     1      35.125 -25.411 -14.485  0.00  0.00    -0.479 OA
ATOM     22  H   UNL     1      35.019 -25.231 -13.571  0.00  0.00    +0.295 HD
ENDBRANCH  20  21
ENDBRANCH  18  20
ENDBRANCH  15  18
ENDBRANCH   4  16
BRANCH   5  23
ATOM     23  O   UNL     1      36.487 -22.019 -18.741  0.00  0.00    -0.504 OA
ATOM     24  H   UNL     1      36.471 -22.918 -18.479  0.00  0.00    +0.292 HD
ENDBRANCH   5  23
TORSDOF 6
ENDMDL
MODEL 5
REMARK VINA RESULT:      -9.7      1.089      1.495
REMARK  Name = 23634441
REMARK  6 active torsions:
REMARK  status: ('A' for Active; 'I' for Inactive)
REMARK    1  A    between atoms: C_2  and  C_8
REMARK    2  A    between atoms: CA_4  and  C_16
REMARK    3  A    between atoms: C_5  and  O_23
REMARK    4  A    between atoms: N_15  and  CA_18
REMARK    5  A    between atoms: CA_18  and  C_20
REMARK    6  A    between atoms: C_20  and  O_21
REMARK                            x       y       z     vdW  Elec       q    Type
REMARK                         _______ _______ _______ _____ _____    ______ ____
ROOT
ATOM      1  N   UNL     1      32.585 -20.901 -19.706  0.00  0.00    -0.236 NA
ATOM      2  C   UNL     1      34.219 -19.536 -20.852  0.00  0.00    +0.022 C 
ATOM      3  C   UNL     1      35.245 -20.324 -20.341  0.00  0.00    +0.040 C 
ATOM      4  CA  UNL     1      33.609 -21.642 -19.227  0.00  0.00    +0.168 C 
ATOM      5  C   UNL     1      34.943 -21.398 -19.512  0.00  0.00    +0.156 C 
ATOM      6  C   UNL     1      32.917 -19.864 -20.507  0.00  0.00    +0.099 C 
ENDROOT
BRANCH   2   8
ATOM      7 CL   UNL     1      34.771 -17.694 -25.642  0.00  0.00    -0.082 Cl
ATOM      8  C   UNL     1      34.500 -18.411 -21.716  0.00  0.00    +0.002 C 
ATOM      9  C   UNL     1      34.500 -18.577 -23.102  0.00  0.00    +0.011 C 
ATOM     10  C   UNL     1      34.772 -17.160 -21.164  0.00  0.00    +0.000 C 
ATOM     11  C   UNL     1      34.772 -17.491 -23.934  0.00  0.00    +0.058 C 
ATOM     12  C   UNL     1      35.044 -16.074 -21.996  0.00  0.00    +0.001 C 
ATOM     13  C   UNL     1      35.043 -16.239 -23.381  0.00  0.00    +0.011 C 
ENDBRANCH   2   8
BRANCH   4  16
ATOM     14  O   UNL     1      33.774 -23.856 -18.471  0.00  0.00    -0.268 OA
ATOM     15  N   UNL     1      32.216 -22.496 -17.424  0.00  0.00    -0.290 N 
ATOM     16  C   ACE A   1      33.217 -22.749 -18.368  0.00  0.00    +0.267 C 
ATOM     17  H   UNL     1      31.818 -21.595 -17.397  0.00  0.00    +0.150 HD
BRANCH  15  18
ATOM     18  CA  UNL     1      31.736 -23.484 -16.485  0.00  0.00    +0.201 C 
BRANCH  18  20
ATOM     19  OXT UNL     1      29.705 -23.945 -15.278  0.00  0.00    -0.248 OA
ATOM     20  C   UNL     1      30.265 -23.342 -16.185  0.00  0.00    +0.334 C 
BRANCH  20  21
ATOM     21  O   UNL     1      29.624 -22.486 -17.014  0.00  0.00    -0.479 OA
ATOM     22  H   UNL     1      29.444 -22.737 -17.899  0.00  0.00    +0.295 HD
ENDBRANCH  20  21
ENDBRANCH  18  20
ENDBRANCH  15  18
ENDBRANCH   4  16
BRANCH   5  23
ATOM     23  O   UNL     1      35.939 -22.172 -19.008  0.00  0.00    -0.504 OA
ATOM     24  H   UNL     1      36.694 -21.772 -18.624  0.00  0.00    +0.292 HD
ENDBRANCH   5  23
TORSDOF 6
ENDMDL
MODEL 6
REMARK VINA RESULT:      -9.5      3.839      4.722
REMARK  Name = 23634441
REMARK  6 active torsions:
REMARK  status: ('A' for Active; 'I' for Inactive)
REMARK    1  A    between atoms: C_2  and  C_8
REMARK    2  A    between atoms: CA_4  and  C_16
REMARK    3  A    between atoms: C_5  and  O_23
REMARK    4  A    between atoms: N_15  and  CA_18
REMARK    5  A    between atoms: CA_18  and  C_20
REMARK    6  A    between atoms: C_20  and  O_21
REMARK                            x       y       z     vdW  Elec       q    Type
REMARK                         _______ _______ _______ _____ _____    ______ ____
ROOT
ATOM      1  N   UNL     1      34.607 -23.543 -16.758  0.00  0.00    -0.236 NA
ATOM      2  C   UNL     1      35.185 -21.833 -18.367  0.00  0.00    +0.022 C 
ATOM      3  C   UNL     1      36.449 -21.717 -17.799  0.00  0.00    +0.040 C 
ATOM      4  CA  UNL     1      35.844 -23.402 -16.233  0.00  0.00    +0.168 C 
ATOM      5  C   UNL     1      36.793 -22.512 -16.712  0.00  0.00    +0.156 C 
ATOM      6  C   UNL     1      34.308 -22.753 -17.813  0.00  0.00    +0.099 C 
ENDROOT
BRANCH   2   8
ATOM      7 CL   UNL     1      36.573 -18.636 -22.174  0.00  0.00    -0.082 Cl
ATOM      8  C   UNL     1      34.797 -21.020 -19.498  0.00  0.00    +0.002 C 
ATOM      9  C   UNL     1      35.761 -20.304 -20.208  0.00  0.00    +0.011 C 
ATOM     10  C   UNL     1      33.457 -20.952 -19.880  0.00  0.00    +0.000 C 
ATOM     11  C   UNL     1      35.385 -19.519 -21.299  0.00  0.00    +0.058 C 
ATOM     12  C   UNL     1      33.081 -20.168 -20.970  0.00  0.00    +0.001 C 
ATOM     13  C   UNL     1      34.045 -19.452 -21.680  0.00  0.00    +0.011 C 
ENDBRANCH   2   8
BRANCH   4  16
ATOM     14  O   UNL     1      36.267 -25.492 -15.258  0.00  0.00    -0.268 OA
ATOM     15  N   UNL     1      36.272 -23.649 -13.851  0.00  0.00    -0.290 N 
ATOM     16  C   ACE A   1      36.133 -24.266 -15.098  0.00  0.00    +0.267 C 
ATOM     17  H   UNL     1      36.152 -22.673 -13.797  0.00  0.00    +0.150 HD
BRANCH  15  18
ATOM     18  CA  UNL     1      36.581 -24.367 -12.635  0.00  0.00    +0.201 C 
BRANCH  18  20
ATOM     19  OXT UNL     1      35.414 -25.113 -10.667  0.00  0.00    -0.248 OA
ATOM     20  C   UNL     1      35.428 -24.405 -11.665  0.00  0.00    +0.334 C 
BRANCH  20  21
ATOM     21  O   UNL     1      34.409 -23.580 -12.004  0.00  0.00    -0.479 OA
ATOM     22  H   UNL     1      33.877 -23.776 -12.750  0.00  0.00    +0.295 HD
ENDBRANCH  20  21
ENDBRANCH  18  20
ENDBRANCH  15  18
ENDBRANCH   4  16
BRANCH   5  23
ATOM     23  O   UNL     1      38.025 -22.405 -16.151  0.00  0.00    -0.504 OA
ATOM     24  H   UNL     1      38.530 -23.176 -15.979  0.00  0.00    +0.292 HD
ENDBRANCH   5  23
TORSDOF 6
ENDMDL
MODEL 7
REMARK VINA RESULT:      -9.3      6.892      7.955
REMARK  Name = 23634441
REMARK  6 active torsions:
REMARK  status: ('A' for Active; 'I' for Inactive)
REMARK    1  A    between atoms: C_2  and  C_8
REMARK    2  A    between atoms: CA_4  and  C_16
REMARK    3  A    between atoms: C_5  and  O_23
REMARK    4  A    between atoms: N_15  and  CA_18
REMARK    5  A    between atoms: CA_18  and  C_20
REMARK    6  A    between atoms: C_20  and  O_21
REMARK                            x       y       z     vdW  Elec       q    Type
REMARK                         _______ _______ _______ _____ _____    ______ ____
ROOT
ATOM      1  N   UNL     1      31.669 -23.365 -16.114  0.00  0.00    -0.236 NA
ATOM      2  C   UNL     1      33.707 -23.946 -14.950  0.00  0.00    +0.022 C 
ATOM      3  C   UNL     1      32.965 -24.486 -13.905  0.00  0.00    +0.040 C 
ATOM      4  CA  UNL     1      30.982 -23.898 -15.080  0.00  0.00    +0.168 C 
ATOM      5  C   UNL     1      31.576 -24.464 -13.964  0.00  0.00    +0.156 C 
ATOM      6  C   UNL     1      33.017 -23.402 -16.023  0.00  0.00    +0.099 C 
ENDROOT
BRANCH   2   8
ATOM      7 CL   UNL     1      38.061 -25.875 -12.958  0.00  0.00    -0.082 Cl
ATOM      8  C   UNL     1      35.153 -23.952 -14.919  0.00  0.00    +0.002 C 
ATOM      9  C   UNL     1      35.830 -24.812 -14.054  0.00  0.00    +0.011 C 
ATOM     10  C   UNL     1      35.871 -23.098 -15.756  0.00  0.00    +0.000 C 
ATOM     11  C   UNL     1      37.225 -24.816 -14.025  0.00  0.00    +0.058 C 
ATOM     12  C   UNL     1      37.265 -23.102 -15.727  0.00  0.00    +0.001 C 
ATOM     13  C   UNL     1      37.942 -23.961 -14.863  0.00  0.00    +0.011 C 
ENDBRANCH   2   8
BRANCH   4  16
ATOM     14  O   UNL     1      28.838 -24.841 -14.960  0.00  0.00    -0.268 OA
ATOM     15  N   UNL     1      28.979 -22.617 -15.600  0.00  0.00    -0.290 N 
ATOM     16  C   ACE A   1      29.533 -23.841 -15.210  0.00  0.00    +0.267 C 
ATOM     17  H   UNL     1      29.590 -21.866 -15.783  0.00  0.00    +0.150 HD
BRANCH  15  18
ATOM     18  CA  UNL     1      27.559 -22.395 -15.751  0.00  0.00    +0.201 C 
BRANCH  18  20
ATOM     19  OXT UNL     1      26.565 -21.138 -17.546  0.00  0.00    -0.248 OA
ATOM     20  C   UNL     1      27.151 -22.149 -17.181  0.00  0.00    +0.334 C 
BRANCH  20  21
ATOM     21  O   UNL     1      27.495 -23.152 -18.021  0.00  0.00    -0.479 OA
ATOM     22  H   UNL     1      28.354 -23.175 -18.396  0.00  0.00    +0.295 HD
ENDBRANCH  20  21
ENDBRANCH  18  20
ENDBRANCH  15  18
ENDBRANCH   4  16
BRANCH   5  23
ATOM     23  O   UNL     1      30.842 -24.989 -12.947  0.00  0.00    -0.504 OA
ATOM     24  H   UNL     1      31.009 -25.862 -12.651  0.00  0.00    +0.292 HD
ENDBRANCH   5  23
TORSDOF 6
ENDMDL
MODEL 8
REMARK VINA RESULT:      -9.1      7.635     10.021
REMARK  Name = 23634441
REMARK  6 active torsions:
REMARK  status: ('A' for Active; 'I' for Inactive)
REMARK    1  A    between atoms: C_2  and  C_8
REMARK    2  A    between atoms: CA_4  and  C_16
REMARK    3  A    between atoms: C_5  and  O_23
REMARK    4  A    between atoms: N_15  and  CA_18
REMARK    5  A    between atoms: CA_18  and  C_20
REMARK    6  A    between atoms: C_20  and  O_21
REMARK                            x       y       z     vdW  Elec       q    Type
REMARK                         _______ _______ _______ _____ _____    ______ ____
ROOT
ATOM      1  N   UNL     1      32.103 -13.284 -21.770  0.00  0.00    -0.236 NA
ATOM      2  C   UNL     1      33.600 -14.615 -23.123  0.00  0.00    +0.022 C 
ATOM      3  C   UNL     1      33.901 -13.501 -23.899  0.00  0.00    +0.040 C 
ATOM      4  CA  UNL     1      32.419 -12.224 -22.547  0.00  0.00    +0.168 C 
ATOM      5  C   UNL     1      33.303 -12.280 -23.612  0.00  0.00    +0.156 C 
ATOM      6  C   UNL     1      32.702 -14.455 -22.079  0.00  0.00    +0.099 C 
ENDROOT
BRANCH   2   8
ATOM      7 CL   UNL     1      36.234 -18.701 -21.385  0.00  0.00    -0.082 Cl
ATOM      8  C   UNL     1      34.205 -15.900 -23.396  0.00  0.00    +0.002 C 
ATOM      9  C   UNL     1      34.852 -16.599 -22.377  0.00  0.00    +0.011 C 
ATOM     10  C   UNL     1      34.140 -16.442 -24.680  0.00  0.00    +0.000 C 
ATOM     11  C   UNL     1      35.435 -17.839 -22.641  0.00  0.00    +0.058 C 
ATOM     12  C   UNL     1      34.723 -17.681 -24.945  0.00  0.00    +0.001 C 
ATOM     13  C   UNL     1      35.370 -18.379 -23.926  0.00  0.00    +0.011 C 
ENDBRANCH   2   8
BRANCH   4  16
ATOM     14  O   UNL     1      30.519 -10.938 -22.058  0.00  0.00    -0.268 OA
ATOM     15  N   UNL     1      32.572  -9.863 -21.977  0.00  0.00    -0.290 N 
ATOM     16  C   ACE A   1      31.755 -10.979 -22.187  0.00  0.00    +0.267 C 
ATOM     17  H   UNL     1      33.544  -9.968 -22.097  0.00  0.00    +0.150 HD
BRANCH  15  18
ATOM     18  CA  UNL     1      32.067  -8.565 -21.592  0.00  0.00    +0.201 C 
BRANCH  18  20
ATOM     19  OXT UNL     1      32.629  -7.009 -19.844  0.00  0.00    -0.248 OA
ATOM     20  C   UNL     1      32.463  -8.171 -20.192  0.00  0.00    +0.334 C 
BRANCH  20  21
ATOM     21  O   UNL     1      32.618  -9.225 -19.358  0.00  0.00    -0.479 OA
ATOM     22  H   UNL     1      33.440  -9.675 -19.319  0.00  0.00    +0.295 HD
ENDBRANCH  20  21
ENDBRANCH  18  20
ENDBRANCH  15  18
ENDBRANCH   4  16
BRANCH   5  23
ATOM     23  O   UNL     1      33.590 -11.186 -24.365  0.00  0.00    -0.504 OA
ATOM     24  H   UNL     1      33.057 -10.418 -24.298  0.00  0.00    +0.292 HD
ENDBRANCH   5  23
TORSDOF 6
ENDMDL
MODEL 9
REMARK VINA RESULT:      -9.1      6.055      8.907
REMARK  Name = 23634441
REMARK  6 active torsions:
REMARK  status: ('A' for Active; 'I' for Inactive)
REMARK    1  A    between atoms: C_2  and  C_8
REMARK    2  A    between atoms: CA_4  and  C_16
REMARK    3  A    between atoms: C_5  and  O_23
REMARK    4  A    between atoms: N_15  and  CA_18
REMARK    5  A    between atoms: CA_18  and  C_20
REMARK    6  A    between atoms: C_20  and  O_21
REMARK                            x       y       z     vdW  Elec       q    Type
REMARK                         _______ _______ _______ _____ _____    ______ ____
ROOT
ATOM      1  N   UNL     1      33.503 -15.460 -22.410  0.00  0.00    -0.236 NA
ATOM      2  C   UNL     1      34.155 -17.777 -22.177  0.00  0.00    +0.022 C 
ATOM      3  C   UNL     1      34.579 -17.798 -23.502  0.00  0.00    +0.040 C 
ATOM      4  CA  UNL     1      33.924 -15.519 -23.692  0.00  0.00    +0.168 C 
ATOM      5  C   UNL     1      34.464 -16.652 -24.280  0.00  0.00    +0.156 C 
ATOM      6  C   UNL     1      33.629 -16.593 -21.683  0.00  0.00    +0.099 C 
ENDROOT
BRANCH   2   8
ATOM      7 CL   UNL     1      37.155 -21.305 -19.897  0.00  0.00    -0.082 Cl
ATOM      8  C   UNL     1      34.260 -18.952 -21.341  0.00  0.00    +0.002 C 
ATOM      9  C   UNL     1      35.512 -19.497 -21.056  0.00  0.00    +0.011 C 
ATOM     10  C   UNL     1      33.108 -19.541 -20.819  0.00  0.00    +0.000 C 
ATOM     11  C   UNL     1      35.612 -20.632 -20.249  0.00  0.00    +0.058 C 
ATOM     12  C   UNL     1      33.208 -20.675 -20.013  0.00  0.00    +0.001 C 
ATOM     13  C   UNL     1      34.459 -21.219 -19.728  0.00  0.00    +0.011 C 
ENDBRANCH   2   8
BRANCH   4  16
ATOM     14  O   UNL     1      33.332 -14.303 -25.608  0.00  0.00    -0.268 OA
ATOM     15  N   UNL     1      34.125 -13.096 -23.794  0.00  0.00    -0.290 N 
ATOM     16  C   ACE A   1      33.774 -14.283 -24.446  0.00  0.00    +0.267 C 
ATOM     17  H   UNL     1      34.469 -13.154 -22.873  0.00  0.00    +0.150 HD
BRANCH  15  18
ATOM     18  CA  UNL     1      34.010 -11.789 -24.399  0.00  0.00    +0.201 C 
BRANCH  18  20
ATOM     19  OXT UNL     1      33.306  -9.611 -23.653  0.00  0.00    -0.248 OA
ATOM     20  C   UNL     1      33.195 -10.828 -23.571  0.00  0.00    +0.334 C 
BRANCH  20  21
ATOM     21  O   UNL     1      32.329 -11.439 -22.730  0.00  0.00    -0.479 OA
ATOM     22  H   UNL     1      32.160 -11.073 -21.884  0.00  0.00    +0.295 HD
ENDBRANCH  20  21
ENDBRANCH  18  20
ENDBRANCH  15  18
ENDBRANCH   4  16
BRANCH   5  23
ATOM     23  O   UNL     1      34.875 -16.663 -25.575  0.00  0.00    -0.504 OA
ATOM     24  H   UNL     1      34.244 -16.722 -26.265  0.00  0.00    +0.292 HD
ENDBRANCH   5  23
TORSDOF 6
ENDMDL
