MODEL 1
REMARK VINA RESULT:      -9.7      0.000      0.000
REMARK  Name = 5282138
REMARK  12 active torsions:
REMARK  status: ('A' for Active; 'I' for Inactive)
REMARK    1  A    between atoms: C_2  and  C_10
REMARK    2  A    between atoms: C_3  and  C_20
REMARK    3  A    between atoms: C_4  and  C_27
REMARK    4  A    between atoms: C_13  and  N_18
REMARK    5  A    between atoms: C_20  and  O_21
REMARK    6  A    between atoms: O_21  and  C_22
REMARK    7  A    between atoms: C_22  and  C_23
REMARK    8  A    between atoms: C_23  and  O_24
REMARK    9  A    between atoms: C_27  and  O_28
REMARK   10  A    between atoms: O_28  and  C_29
REMARK   11  A    between atoms: C_29  and  C_30
REMARK   12  A    between atoms: C_31  and  C_32
REMARK                            x       y       z     vdW  Elec       q    Type
REMARK                         _______ _______ _______ _____ _____    ______ ____
ROOT
ATOM      1  N   UNL     1      31.504 -12.948 -21.206  0.00  0.00    -0.334 N 
ATOM      2  C   UNL     1      33.650 -12.679 -23.036  0.00  0.00    +0.011 C 
ATOM      3  C   UNL     1      32.638 -11.563 -22.755  0.00  0.00    +0.071 C 
ATOM      4  C   UNL     1      33.479 -13.888 -22.110  0.00  0.00    +0.085 C 
ATOM      5  C   UNL     1      31.621 -11.743 -21.882  0.00  0.00    +0.098 C 
ATOM      6  C   UNL     1      32.421 -13.984 -21.272  0.00  0.00    +0.028 C 
ATOM      7  C   UNL     1      30.555 -10.730 -21.563  0.00  0.00    +0.026 C 
ATOM      8  C   UNL     1      32.132 -15.147 -20.362  0.00  0.00    +0.047 C 
ATOM      9  H   UNL     1      30.710 -13.077 -20.637  0.00  0.00    +0.147 HD
ENDROOT
BRANCH   2  10
ATOM     10  C   UNL     1      33.547 -13.114 -24.470  0.00  0.00    +0.002 C 
ATOM     11  C   UNL     1      33.245 -14.438 -24.766  0.00  0.00    +0.024 C 
ATOM     12  C   UNL     1      33.751 -12.188 -25.485  0.00  0.00    +0.000 C 
ATOM     13  C   UNL     1      33.147 -14.842 -26.098  0.00  0.00    +0.143 C 
ATOM     14  C   UNL     1      33.654 -12.590 -26.816  0.00  0.00    +0.002 C 
ATOM     15  C   UNL     1      33.353 -13.918 -27.123  0.00  0.00    +0.024 C 
BRANCH  13  18
ATOM     16  O   UNL     1      33.580 -17.103 -25.969  0.00  0.00    -0.126 OA
ATOM     17  O   UNL     1      31.834 -16.437 -27.121  0.00  0.00    -0.126 OA
ATOM     18  N   UNL     1      32.839 -16.192 -26.411  0.00  0.00    +0.058 N 
ENDBRANCH  13  18
ENDBRANCH   2  10
BRANCH   3  20
ATOM     19  O   UNL     1      32.018  -9.695 -24.075  0.00  0.00    -0.245 OA
ATOM     20  C   UNL     1      32.871 -10.277 -23.430  0.00  0.00    +0.339 C 
BRANCH  20  21
ATOM     21  O   UNL     1      34.150  -9.896 -23.198  0.00  0.00    -0.443 OA
BRANCH  21  22
ATOM     22  C   UNL     1      34.666  -8.915 -24.103  0.00  0.00    +0.241 C 
BRANCH  22  23
ATOM     23  C   UNL     1      34.744  -7.577 -23.392  0.00  0.00    +0.190 C 
BRANCH  23  24
ATOM     24  O   UNL     1      33.562  -6.836 -23.666  0.00  0.00    -0.347 OA
ATOM     25  C   UNL     1      32.760  -6.686 -22.502  0.00  0.00    +0.174 C 
ENDBRANCH  23  24
ENDBRANCH  22  23
ENDBRANCH  21  22
ENDBRANCH  20  21
ENDBRANCH   3  20
BRANCH   4  27
ATOM     26  O   UNL     1      35.617 -14.768 -21.588  0.00  0.00    -0.245 OA
ATOM     27  C   UNL     1      34.544 -14.903 -22.147  0.00  0.00    +0.342 C 
BRANCH  27  28
ATOM     28  O   UNL     1      34.110 -15.952 -22.887  0.00  0.00    -0.440 OA
BRANCH  28  29
ATOM     29  C   UNL     1      34.998 -17.073 -22.930  0.00  0.00    +0.235 C 
BRANCH  29  30
ATOM     30  C   UNL     1      34.524 -18.099 -21.952  0.00  0.00    +0.021 C 
ATOM     31  C   UNL     1      35.244 -19.179 -21.611  0.00  0.00    -0.001 C 
BRANCH  31  32
ATOM     32  C   UNL     1      34.825 -20.207 -20.643  0.00  0.00    -0.000 C 
ATOM     33  C   UNL     1      35.785 -21.003 -20.037  0.00  0.00    -0.000 C 
ATOM     34  C   UNL     1      33.478 -20.361 -20.356  0.00  0.00    -0.000 C 
ATOM     35  C   UNL     1      35.388 -21.976 -19.121  0.00  0.00    -0.000 C 
ATOM     36  C   UNL     1      33.081 -21.335 -19.438  0.00  0.00    -0.000 C 
ATOM     37  C   UNL     1      34.036 -22.142 -18.822  0.00  0.00    -0.000 C 
ENDBRANCH  31  32
ENDBRANCH  29  30
ENDBRANCH  28  29
ENDBRANCH  27  28
ENDBRANCH   4  27
TORSDOF 12
ENDMDL
MODEL 2
REMARK VINA RESULT:      -9.6      2.266      4.256
REMARK  Name = 5282138
REMARK  12 active torsions:
REMARK  status: ('A' for Active; 'I' for Inactive)
REMARK    1  A    between atoms: C_2  and  C_10
REMARK    2  A    between atoms: C_3  and  C_20
REMARK    3  A    between atoms: C_4  and  C_27
REMARK    4  A    between atoms: C_13  and  N_18
REMARK    5  A    between atoms: C_20  and  O_21
REMARK    6  A    between atoms: O_21  and  C_22
REMARK    7  A    between atoms: C_22  and  C_23
REMARK    8  A    between atoms: C_23  and  O_24
REMARK    9  A    between atoms: C_27  and  O_28
REMARK   10  A    between atoms: O_28  and  C_29
REMARK   11  A    between atoms: C_29  and  C_30
REMARK   12  A    between atoms: C_31  and  C_32
REMARK                            x       y       z     vdW  Elec       q    Type
REMARK                         _______ _______ _______ _____ _____    ______ ____
ROOT
ATOM      1  N   UNL     1      34.004 -10.773 -24.790  0.00  0.00    -0.334 N 
ATOM      2  C   UNL     1      32.533 -12.930 -23.687  0.00  0.00    +0.011 C 
ATOM      3  C   UNL     1      32.505 -11.509 -23.112  0.00  0.00    +0.071 C 
ATOM      4  C   UNL     1      33.304 -13.024 -25.008  0.00  0.00    +0.085 C 
ATOM      5  C   UNL     1      33.236 -10.514 -23.666  0.00  0.00    +0.098 C 
ATOM      6  C   UNL     1      34.015 -11.975 -25.481  0.00  0.00    +0.028 C 
ATOM      7  C   UNL     1      33.309  -9.100 -23.159  0.00  0.00    +0.026 C 
ATOM      8  C   UNL     1      34.846 -11.978 -26.735  0.00  0.00    +0.047 C 
ATOM      9  H   UNL     1      34.585 -10.051 -25.123  0.00  0.00    +0.147 HD
ENDROOT
BRANCH   2  10
ATOM     10  C   UNL     1      33.122 -13.877 -22.682  0.00  0.00    +0.002 C 
ATOM     11  C   UNL     1      32.339 -14.899 -22.160  0.00  0.00    +0.024 C 
ATOM     12  C   UNL     1      34.446 -13.724 -22.286  0.00  0.00    +0.000 C 
ATOM     13  C   UNL     1      32.886 -15.780 -21.227  0.00  0.00    +0.143 C 
ATOM     14  C   UNL     1      34.993 -14.603 -21.354  0.00  0.00    +0.002 C 
ATOM     15  C   UNL     1      34.213 -15.631 -20.823  0.00  0.00    +0.024 C 
BRANCH  13  18
ATOM     16  O   UNL     1      30.923 -16.573 -20.312  0.00  0.00    -0.126 OA
ATOM     17  O   UNL     1      32.584 -17.979 -20.602  0.00  0.00    -0.126 OA
ATOM     18  N   UNL     1      32.093 -16.827 -20.687  0.00  0.00    +0.058 N 
ENDBRANCH  13  18
ENDBRANCH   2  10
BRANCH   3  20
ATOM     19  O   UNL     1      30.406 -11.059 -22.107  0.00  0.00    -0.245 OA
ATOM     20  C   UNL     1      31.598 -11.275 -21.978  0.00  0.00    +0.339 C 
BRANCH  20  21
ATOM     21  O   UNL     1      32.317 -11.346 -20.832  0.00  0.00    -0.443 OA
BRANCH  21  22
ATOM     22  C   UNL     1      31.542 -11.474 -19.636  0.00  0.00    +0.241 C 
BRANCH  22  23
ATOM     23  C   UNL     1      31.412 -10.110 -18.983  0.00  0.00    +0.190 C 
BRANCH  23  24
ATOM     24  O   UNL     1      32.529  -9.311 -19.352  0.00  0.00    -0.347 OA
ATOM     25  C   UNL     1      32.120  -8.073 -19.918  0.00  0.00    +0.174 C 
ENDBRANCH  23  24
ENDBRANCH  22  23
ENDBRANCH  21  22
ENDBRANCH  20  21
ENDBRANCH   3  20
BRANCH   4  27
ATOM     26  O   UNL     1      32.250 -14.554 -26.479  0.00  0.00    -0.245 OA
ATOM     27  C   UNL     1      33.188 -14.289 -25.750  0.00  0.00    +0.342 C 
BRANCH  27  28
ATOM     28  O   UNL     1      34.274 -15.050 -25.471  0.00  0.00    -0.440 OA
BRANCH  28  29
ATOM     29  C   UNL     1      34.029 -16.459 -25.408  0.00  0.00    +0.235 C 
BRANCH  29  30
ATOM     30  C   UNL     1      34.735 -17.016 -24.214  0.00  0.00    +0.021 C 
ATOM     31  C   UNL     1      34.521 -18.254 -23.743  0.00  0.00    -0.001 C 
BRANCH  31  32
ATOM     32  C   UNL     1      35.203 -18.850 -22.582  0.00  0.00    -0.000 C 
ATOM     33  C   UNL     1      36.474 -18.415 -22.242  0.00  0.00    -0.000 C 
ATOM     34  C   UNL     1      34.560 -19.836 -21.849  0.00  0.00    -0.000 C 
ATOM     35  C   UNL     1      37.119 -18.980 -21.142  0.00  0.00    -0.000 C 
ATOM     36  C   UNL     1      35.206 -20.401 -20.748  0.00  0.00    -0.000 C 
ATOM     37  C   UNL     1      36.485 -19.972 -20.395  0.00  0.00    -0.000 C 
ENDBRANCH  31  32
ENDBRANCH  29  30
ENDBRANCH  28  29
ENDBRANCH  27  28
ENDBRANCH   4  27
TORSDOF 12
ENDMDL
MODEL 3
REMARK VINA RESULT:      -9.1      3.400     10.124
REMARK  Name = 5282138
REMARK  12 active torsions:
REMARK  status: ('A' for Active; 'I' for Inactive)
REMARK    1  A    between atoms: C_2  and  C_10
REMARK    2  A    between atoms: C_3  and  C_20
REMARK    3  A    between atoms: C_4  and  C_27
REMARK    4  A    between atoms: C_13  and  N_18
REMARK    5  A    between atoms: C_20  and  O_21
REMARK    6  A    between atoms: O_21  and  C_22
REMARK    7  A    between atoms: C_22  and  C_23
REMARK    8  A    between atoms: C_23  and  O_24
REMARK    9  A    between atoms: C_27  and  O_28
REMARK   10  A    between atoms: O_28  and  C_29
REMARK   11  A    between atoms: C_29  and  C_30
REMARK   12  A    between atoms: C_31  and  C_32
REMARK                            x       y       z     vdW  Elec       q    Type
REMARK                         _______ _______ _______ _____ _____    ______ ____
ROOT
ATOM      1  N   UNL     1      32.136  -8.117 -20.125  0.00  0.00    -0.334 N 
ATOM      2  C   UNL     1      31.710  -9.368 -22.631  0.00  0.00    +0.011 C 
ATOM      3  C   UNL     1      31.756 -10.134 -21.304  0.00  0.00    +0.071 C 
ATOM      4  C   UNL     1      31.753  -7.848 -22.445  0.00  0.00    +0.085 C 
ATOM      5  C   UNL     1      31.977  -9.494 -20.133  0.00  0.00    +0.098 C 
ATOM      6  C   UNL     1      31.987  -7.297 -21.232  0.00  0.00    +0.028 C 
ATOM      7  C   UNL     1      32.079 -10.153 -18.785  0.00  0.00    +0.026 C 
ATOM      8  C   UNL     1      32.100  -5.824 -20.951  0.00  0.00    +0.047 C 
ATOM      9  H   UNL     1      32.372  -7.690 -19.270  0.00  0.00    +0.147 HD
ENDROOT
BRANCH   2  10
ATOM     10  C   UNL     1      32.841  -9.808 -23.515  0.00  0.00    +0.002 C 
ATOM     11  C   UNL     1      32.716 -10.973 -24.263  0.00  0.00    +0.024 C 
ATOM     12  C   UNL     1      34.001  -9.045 -23.580  0.00  0.00    +0.000 C 
ATOM     13  C   UNL     1      33.766 -11.381 -25.086  0.00  0.00    +0.143 C 
ATOM     14  C   UNL     1      35.050  -9.452 -24.401  0.00  0.00    +0.002 C 
ATOM     15  C   UNL     1      34.933 -10.621 -25.154  0.00  0.00    +0.024 C 
BRANCH  13  18
ATOM     16  O   UNL     1      33.339 -13.640 -25.274  0.00  0.00    -0.126 OA
ATOM     17  O   UNL     1      33.854 -12.518 -27.090  0.00  0.00    -0.126 OA
ATOM     18  N   UNL     1      33.647 -12.570 -25.853  0.00  0.00    +0.058 N 
ENDBRANCH  13  18
ENDBRANCH   2  10
BRANCH   3  20
ATOM     19  O   UNL     1      30.376 -12.045 -21.555  0.00  0.00    -0.245 OA
ATOM     20  C   UNL     1      31.486 -11.579 -21.367  0.00  0.00    +0.339 C 
BRANCH  20  21
ATOM     21  O   UNL     1      32.653 -12.242 -21.186  0.00  0.00    -0.443 OA
BRANCH  21  22
ATOM     22  C   UNL     1      32.568 -13.665 -21.307  0.00  0.00    +0.241 C 
BRANCH  22  23
ATOM     23  C   UNL     1      33.882 -14.196 -21.850  0.00  0.00    +0.190 C 
BRANCH  23  24
ATOM     24  O   UNL     1      34.608 -14.809 -20.792  0.00  0.00    -0.347 OA
ATOM     25  C   UNL     1      34.715 -16.214 -20.979  0.00  0.00    +0.174 C 
ENDBRANCH  23  24
ENDBRANCH  22  23
ENDBRANCH  21  22
ENDBRANCH  20  21
ENDBRANCH   3  20
BRANCH   4  27
ATOM     26  O   UNL     1      30.629  -7.313 -24.462  0.00  0.00    -0.245 OA
ATOM     27  C   UNL     1      31.479  -7.030 -23.638  0.00  0.00    +0.342 C 
BRANCH  27  28
ATOM     28  O   UNL     1      32.316  -5.965 -23.628  0.00  0.00    -0.440 OA
BRANCH  28  29
ATOM     29  C   UNL     1      31.735  -4.732 -24.066  0.00  0.00    +0.235 C 
BRANCH  29  30
ATOM     30  C   UNL     1      32.306  -4.380 -25.401  0.00  0.00    +0.021 C 
ATOM     31  C   UNL     1      33.308  -5.063 -25.977  0.00  0.00    -0.001 C 
BRANCH  31  32
ATOM     32  C   UNL     1      33.892  -4.762 -27.295  0.00  0.00    -0.000 C 
ATOM     33  C   UNL     1      33.054  -4.557 -28.380  0.00  0.00    -0.000 C 
ATOM     34  C   UNL     1      35.270  -4.691 -27.427  0.00  0.00    -0.000 C 
ATOM     35  C   UNL     1      33.608  -4.273 -29.628  0.00  0.00    -0.000 C 
ATOM     36  C   UNL     1      35.824  -4.405 -28.676  0.00  0.00    -0.000 C 
ATOM     37  C   UNL     1      34.992  -4.197 -29.775  0.00  0.00    -0.000 C 
ENDBRANCH  31  32
ENDBRANCH  29  30
ENDBRANCH  28  29
ENDBRANCH  27  28
ENDBRANCH   4  27
TORSDOF 12
ENDMDL
MODEL 4
REMARK VINA RESULT:      -8.8      1.789      2.551
REMARK  Name = 5282138
REMARK  12 active torsions:
REMARK  status: ('A' for Active; 'I' for Inactive)
REMARK    1  A    between atoms: C_2  and  C_10
REMARK    2  A    between atoms: C_3  and  C_20
REMARK    3  A    between atoms: C_4  and  C_27
REMARK    4  A    between atoms: C_13  and  N_18
REMARK    5  A    between atoms: C_20  and  O_21
REMARK    6  A    between atoms: O_21  and  C_22
REMARK    7  A    between atoms: C_22  and  C_23
REMARK    8  A    between atoms: C_23  and  O_24
REMARK    9  A    between atoms: C_27  and  O_28
REMARK   10  A    between atoms: O_28  and  C_29
REMARK   11  A    between atoms: C_29  and  C_30
REMARK   12  A    between atoms: C_31  and  C_32
REMARK                            x       y       z     vdW  Elec       q    Type
REMARK                         _______ _______ _______ _____ _____    ______ ____
ROOT
ATOM      1  N   UNL     1      31.312 -13.256 -21.035  0.00  0.00    -0.334 N 
ATOM      2  C   UNL     1      33.504 -12.355 -22.589  0.00  0.00    +0.011 C 
ATOM      3  C   UNL     1      32.333 -11.453 -22.182  0.00  0.00    +0.071 C 
ATOM      4  C   UNL     1      33.448 -13.739 -21.934  0.00  0.00    +0.085 C 
ATOM      5  C   UNL     1      31.301 -11.933 -21.450  0.00  0.00    +0.098 C 
ATOM      6  C   UNL     1      32.367 -14.134 -21.224  0.00  0.00    +0.028 C 
ATOM      7  C   UNL     1      30.089 -11.146 -21.031  0.00  0.00    +0.026 C 
ATOM      8  C   UNL     1      32.189 -15.485 -20.587  0.00  0.00    +0.047 C 
ATOM      9  H   UNL     1      30.513 -13.595 -20.572  0.00  0.00    +0.147 HD
ENDROOT
BRANCH   2  10
ATOM     10  C   UNL     1      33.545 -12.496 -24.084  0.00  0.00    +0.002 C 
ATOM     11  C   UNL     1      34.420 -11.710 -24.825  0.00  0.00    +0.024 C 
ATOM     12  C   UNL     1      32.710 -13.414 -24.711  0.00  0.00    +0.000 C 
ATOM     13  C   UNL     1      34.459 -11.842 -26.213  0.00  0.00    +0.143 C 
ATOM     14  C   UNL     1      32.749 -13.546 -26.097  0.00  0.00    +0.002 C 
ATOM     15  C   UNL     1      33.623 -12.760 -26.849  0.00  0.00    +0.024 C 
BRANCH  13  18
ATOM     16  O   UNL     1      35.680  -9.914 -26.543  0.00  0.00    -0.126 OA
ATOM     17  O   UNL     1      35.780 -11.489 -28.069  0.00  0.00    -0.126 OA
ATOM     18  N   UNL     1      35.349 -11.043 -26.978  0.00  0.00    +0.058 N 
ENDBRANCH  13  18
ENDBRANCH   2  10
BRANCH   3  20
ATOM     19  O   UNL     1      32.221  -9.639 -23.704  0.00  0.00    -0.245 OA
ATOM     20  C   UNL     1      32.424 -10.037 -22.571  0.00  0.00    +0.339 C 
BRANCH  20  21
ATOM     21  O   UNL     1      32.759  -9.313 -21.476  0.00  0.00    -0.443 OA
BRANCH  21  22
ATOM     22  C   UNL     1      33.118  -7.952 -21.735  0.00  0.00    +0.241 C 
BRANCH  22  23
ATOM     23  C   UNL     1      32.007  -7.045 -21.239  0.00  0.00    +0.190 C 
BRANCH  23  24
ATOM     24  O   UNL     1      31.210  -6.640 -22.345  0.00  0.00    -0.347 OA
ATOM     25  C   UNL     1      30.531  -5.420 -22.079  0.00  0.00    +0.174 C 
ENDBRANCH  23  24
ENDBRANCH  22  23
ENDBRANCH  21  22
ENDBRANCH  20  21
ENDBRANCH   3  20
BRANCH   4  27
ATOM     26  O   UNL     1      35.492 -14.697 -21.214  0.00  0.00    -0.245 OA
ATOM     27  C   UNL     1      34.643 -14.585 -22.079  0.00  0.00    +0.342 C 
BRANCH  27  28
ATOM     28  O   UNL     1      34.605 -15.176 -23.297  0.00  0.00    -0.440 OA
BRANCH  28  29
ATOM     29  C   UNL     1      35.356 -16.389 -23.409  0.00  0.00    +0.235 C 
BRANCH  29  30
ATOM     30  C   UNL     1      34.686 -17.445 -22.591  0.00  0.00    +0.021 C 
ATOM     31  C   UNL     1      35.358 -18.383 -21.905  0.00  0.00    -0.001 C 
BRANCH  31  32
ATOM     32  C   UNL     1      34.742 -19.432 -21.075  0.00  0.00    -0.000 C 
ATOM     33  C   UNL     1      33.362 -19.478 -20.949  0.00  0.00    -0.000 C 
ATOM     34  C   UNL     1      35.554 -20.356 -20.436  0.00  0.00    -0.000 C 
ATOM     35  C   UNL     1      32.780 -20.472 -20.163  0.00  0.00    -0.000 C 
ATOM     36  C   UNL     1      34.970 -21.351 -19.650  0.00  0.00    -0.000 C 
ATOM     37  C   UNL     1      33.584 -21.408 -19.514  0.00  0.00    -0.000 C 
ENDBRANCH  31  32
ENDBRANCH  29  30
ENDBRANCH  28  29
ENDBRANCH  27  28
ENDBRANCH   4  27
TORSDOF 12
ENDMDL
MODEL 5
REMARK VINA RESULT:      -8.7      6.495     12.833
REMARK  Name = 5282138
REMARK  12 active torsions:
REMARK  status: ('A' for Active; 'I' for Inactive)
REMARK    1  A    between atoms: C_2  and  C_10
REMARK    2  A    between atoms: C_3  and  C_20
REMARK    3  A    between atoms: C_4  and  C_27
REMARK    4  A    between atoms: C_13  and  N_18
REMARK    5  A    between atoms: C_20  and  O_21
REMARK    6  A    between atoms: O_21  and  C_22
REMARK    7  A    between atoms: C_22  and  C_23
REMARK    8  A    between atoms: C_23  and  O_24
REMARK    9  A    between atoms: C_27  and  O_28
REMARK   10  A    between atoms: O_28  and  C_29
REMARK   11  A    between atoms: C_29  and  C_30
REMARK   12  A    between atoms: C_31  and  C_32
REMARK                            x       y       z     vdW  Elec       q    Type
REMARK                         _______ _______ _______ _____ _____    ______ ____
ROOT
ATOM      1  N   UNL     1      33.139 -23.576 -13.976  0.00  0.00    -0.334 N 
ATOM      2  C   UNL     1      34.976 -23.953 -16.100  0.00  0.00    +0.011 C 
ATOM      3  C   UNL     1      35.273 -24.349 -14.649  0.00  0.00    +0.071 C 
ATOM      4  C   UNL     1      33.531 -23.487 -16.308  0.00  0.00    +0.085 C 
ATOM      5  C   UNL     1      34.369 -24.136 -13.666  0.00  0.00    +0.098 C 
ATOM      6  C   UNL     1      32.700 -23.295 -15.259  0.00  0.00    +0.028 C 
ATOM      7  C   UNL     1      34.575 -24.451 -12.209  0.00  0.00    +0.026 C 
ATOM      8  C   UNL     1      31.284 -22.792 -15.349  0.00  0.00    +0.047 C 
ATOM      9  H   UNL     1      32.534 -23.362 -13.229  0.00  0.00    +0.147 HD
ENDROOT
BRANCH   2  10
ATOM     10  C   UNL     1      35.929 -22.880 -16.542  0.00  0.00    +0.002 C 
ATOM     11  C   UNL     1      35.839 -22.370 -17.832  0.00  0.00    +0.024 C 
ATOM     12  C   UNL     1      36.889 -22.404 -15.657  0.00  0.00    +0.000 C 
ATOM     13  C   UNL     1      36.723 -21.372 -18.243  0.00  0.00    +0.143 C 
ATOM     14  C   UNL     1      37.772 -21.407 -16.066  0.00  0.00    +0.002 C 
ATOM     15  C   UNL     1      37.690 -20.891 -17.360  0.00  0.00    +0.024 C 
BRANCH  13  18
ATOM     16  O   UNL     1      36.848 -19.621 -19.739  0.00  0.00    -0.126 OA
ATOM     17  O   UNL     1      36.360 -21.619 -20.507  0.00  0.00    -0.126 OA
ATOM     18  N   UNL     1      36.640 -20.846 -19.559  0.00  0.00    +0.058 N 
ENDBRANCH  13  18
ENDBRANCH   2  10
BRANCH   3  20
ATOM     19  O   UNL     1      36.971 -25.946 -15.081  0.00  0.00    -0.245 OA
ATOM     20  C   UNL     1      36.555 -25.026 -14.400  0.00  0.00    +0.339 C 
BRANCH  20  21
ATOM     21  O   UNL     1      37.143 -24.448 -13.324  0.00  0.00    -0.443 OA
BRANCH  21  22
ATOM     22  C   UNL     1      38.106 -25.263 -12.648  0.00  0.00    +0.241 C 
BRANCH  22  23
ATOM     23  C   UNL     1      39.492 -24.918 -13.159  0.00  0.00    +0.190 C 
BRANCH  23  24
ATOM     24  O   UNL     1      40.069 -26.075 -13.753  0.00  0.00    -0.347 OA
ATOM     25  C   UNL     1      40.404 -25.849 -15.116  0.00  0.00    +0.174 C 
ENDBRANCH  23  24
ENDBRANCH  22  23
ENDBRANCH  21  22
ENDBRANCH  20  21
ENDBRANCH   3  20
BRANCH   4  27
ATOM     26  O   UNL     1      33.119 -24.203 -18.530  0.00  0.00    -0.245 OA
ATOM     27  C   UNL     1      33.090 -23.311 -17.701  0.00  0.00    +0.342 C 
BRANCH  27  28
ATOM     28  O   UNL     1      32.672 -22.032 -17.860  0.00  0.00    -0.440 OA
BRANCH  28  29
ATOM     29  C   UNL     1      32.244 -21.692 -19.182  0.00  0.00    +0.235 C 
BRANCH  29  30
ATOM     30  C   UNL     1      33.204 -20.702 -19.758  0.00  0.00    +0.021 C 
ATOM     31  C   UNL     1      32.967 -20.017 -20.887  0.00  0.00    -0.001 C 
BRANCH  31  32
ATOM     32  C   UNL     1      33.875 -19.023 -21.484  0.00  0.00    -0.000 C 
ATOM     33  C   UNL     1      33.931 -17.745 -20.948  0.00  0.00    -0.000 C 
ATOM     34  C   UNL     1      34.658 -19.383 -22.569  0.00  0.00    -0.000 C 
ATOM     35  C   UNL     1      34.790 -16.804 -21.513  0.00  0.00    -0.000 C 
ATOM     36  C   UNL     1      35.519 -18.440 -23.134  0.00  0.00    -0.000 C 
ATOM     37  C   UNL     1      35.584 -17.152 -22.606  0.00  0.00    -0.000 C 
ENDBRANCH  31  32
ENDBRANCH  29  30
ENDBRANCH  28  29
ENDBRANCH  27  28
ENDBRANCH   4  27
TORSDOF 12
ENDMDL
MODEL 6
REMARK VINA RESULT:      -8.6      1.950      9.165
REMARK  Name = 5282138
REMARK  12 active torsions:
REMARK  status: ('A' for Active; 'I' for Inactive)
REMARK    1  A    between atoms: C_2  and  C_10
REMARK    2  A    between atoms: C_3  and  C_20
REMARK    3  A    between atoms: C_4  and  C_27
REMARK    4  A    between atoms: C_13  and  N_18
REMARK    5  A    between atoms: C_20  and  O_21
REMARK    6  A    between atoms: O_21  and  C_22
REMARK    7  A    between atoms: C_22  and  C_23
REMARK    8  A    between atoms: C_23  and  O_24
REMARK    9  A    between atoms: C_27  and  O_28
REMARK   10  A    between atoms: O_28  and  C_29
REMARK   11  A    between atoms: C_29  and  C_30
REMARK   12  A    between atoms: C_31  and  C_32
REMARK                            x       y       z     vdW  Elec       q    Type
REMARK                         _______ _______ _______ _____ _____    ______ ____
ROOT
ATOM      1  N   UNL     1      33.028 -15.348 -26.250  0.00  0.00    -0.334 N 
ATOM      2  C   UNL     1      34.177 -14.031 -24.020  0.00  0.00    +0.011 C 
ATOM      3  C   UNL     1      34.227 -15.550 -24.219  0.00  0.00    +0.071 C 
ATOM      4  C   UNL     1      33.590 -13.290 -25.226  0.00  0.00    +0.085 C 
ATOM      5  C   UNL     1      33.651 -16.135 -25.294  0.00  0.00    +0.098 C 
ATOM      6  C   UNL     1      33.026 -13.963 -26.255  0.00  0.00    +0.028 C 
ATOM      7  C   UNL     1      33.609 -17.615 -25.564  0.00  0.00    +0.026 C 
ATOM      8  C   UNL     1      32.377 -13.333 -27.457  0.00  0.00    +0.047 C 
ATOM      9  H   UNL     1      32.551 -15.807 -26.979  0.00  0.00    +0.147 HD
ENDROOT
BRANCH   2  10
ATOM     10  C   UNL     1      33.390 -13.703 -22.784  0.00  0.00    +0.002 C 
ATOM     11  C   UNL     1      32.530 -12.611 -22.787  0.00  0.00    +0.024 C 
ATOM     12  C   UNL     1      33.528 -14.495 -21.651  0.00  0.00    +0.000 C 
ATOM     13  C   UNL     1      31.798 -12.307 -21.639  0.00  0.00    +0.143 C 
ATOM     14  C   UNL     1      32.797 -14.192 -20.504  0.00  0.00    +0.002 C 
ATOM     15  C   UNL     1      31.932 -13.097 -20.497  0.00  0.00    +0.024 C 
BRANCH  13  18
ATOM     16  O   UNL     1      30.971 -10.369 -22.576  0.00  0.00    -0.126 OA
ATOM     17  O   UNL     1      30.106 -11.066 -20.682  0.00  0.00    -0.126 OA
ATOM     18  N   UNL     1      30.916 -11.194 -21.632  0.00  0.00    +0.058 N 
ENDBRANCH  13  18
ENDBRANCH   2  10
BRANCH   3  20
ATOM     19  O   UNL     1      36.188 -16.219 -23.068  0.00  0.00    -0.245 OA
ATOM     20  C   UNL     1      34.984 -16.322 -23.221  0.00  0.00    +0.339 C 
BRANCH  20  21
ATOM     21  O   UNL     1      34.119 -17.118 -22.548  0.00  0.00    -0.443 OA
BRANCH  21  22
ATOM     22  C   UNL     1      34.706 -17.919 -21.518  0.00  0.00    +0.241 C 
BRANCH  22  23
ATOM     23  C   UNL     1      34.635 -19.379 -21.926  0.00  0.00    +0.190 C 
BRANCH  23  24
ATOM     24  O   UNL     1      34.283 -20.161 -20.792  0.00  0.00    -0.347 OA
ATOM     25  C   UNL     1      32.888 -20.097 -20.528  0.00  0.00    +0.174 C 
ENDBRANCH  23  24
ENDBRANCH  22  23
ENDBRANCH  21  22
ENDBRANCH  20  21
ENDBRANCH   3  20
BRANCH   4  27
ATOM     26  O   UNL     1      32.815 -11.074 -25.548  0.00  0.00    -0.245 OA
ATOM     27  C   UNL     1      33.717 -11.824 -25.223  0.00  0.00    +0.342 C 
BRANCH  27  28
ATOM     28  O   UNL     1      34.966 -11.503 -24.811  0.00  0.00    -0.440 OA
BRANCH  28  29
ATOM     29  C   UNL     1      35.275 -10.105 -24.836  0.00  0.00    +0.235 C 
BRANCH  29  30
ATOM     30  C   UNL     1      34.425  -9.408 -23.824  0.00  0.00    +0.021 C 
ATOM     31  C   UNL     1      34.078  -8.115 -23.920  0.00  0.00    -0.001 C 
BRANCH  31  32
ATOM     32  C   UNL     1      33.232  -7.390 -22.957  0.00  0.00    -0.000 C 
ATOM     33  C   UNL     1      32.498  -6.294 -23.386  0.00  0.00    -0.000 C 
ATOM     34  C   UNL     1      33.184  -7.816 -21.639  0.00  0.00    -0.000 C 
ATOM     35  C   UNL     1      31.697  -5.608 -22.473  0.00  0.00    -0.000 C 
ATOM     36  C   UNL     1      32.382  -7.129 -20.726  0.00  0.00    -0.000 C 
ATOM     37  C   UNL     1      31.639  -6.026 -21.144  0.00  0.00    -0.000 C 
ENDBRANCH  31  32
ENDBRANCH  29  30
ENDBRANCH  28  29
ENDBRANCH  27  28
ENDBRANCH   4  27
TORSDOF 12
ENDMDL
MODEL 7
REMARK VINA RESULT:      -8.4      2.659      9.390
REMARK  Name = 5282138
REMARK  12 active torsions:
REMARK  status: ('A' for Active; 'I' for Inactive)
REMARK    1  A    between atoms: C_2  and  C_10
REMARK    2  A    between atoms: C_3  and  C_20
REMARK    3  A    between atoms: C_4  and  C_27
REMARK    4  A    between atoms: C_13  and  N_18
REMARK    5  A    between atoms: C_20  and  O_21
REMARK    6  A    between atoms: O_21  and  C_22
REMARK    7  A    between atoms: C_22  and  C_23
REMARK    8  A    between atoms: C_23  and  O_24
REMARK    9  A    between atoms: C_27  and  O_28
REMARK   10  A    between atoms: O_28  and  C_29
REMARK   11  A    between atoms: C_29  and  C_30
REMARK   12  A    between atoms: C_31  and  C_32
REMARK                            x       y       z     vdW  Elec       q    Type
REMARK                         _______ _______ _______ _____ _____    ______ ____
ROOT
ATOM      1  N   UNL     1      32.245 -11.746 -20.209  0.00  0.00    -0.334 N 
ATOM      2  C   UNL     1      32.079 -11.287 -23.000  0.00  0.00    +0.011 C 
ATOM      3  C   UNL     1      32.400 -12.656 -22.389  0.00  0.00    +0.071 C 
ATOM      4  C   UNL     1      31.699 -10.239 -21.949  0.00  0.00    +0.085 C 
ATOM      5  C   UNL     1      32.482 -12.823 -21.049  0.00  0.00    +0.098 C 
ATOM      6  C   UNL     1      31.821 -10.495 -20.627  0.00  0.00    +0.028 C 
ATOM      7  C   UNL     1      32.826 -14.111 -20.351  0.00  0.00    +0.026 C 
ATOM      8  C   UNL     1      31.526  -9.522 -19.518  0.00  0.00    +0.047 C 
ATOM      9  H   UNL     1      32.389 -11.880 -19.244  0.00  0.00    +0.147 HD
ENDROOT
BRANCH   2  10
ATOM     10  C   UNL     1      33.248 -10.801 -23.808  0.00  0.00    +0.002 C 
ATOM     11  C   UNL     1      33.558 -11.425 -25.011  0.00  0.00    +0.024 C 
ATOM     12  C   UNL     1      34.006  -9.732 -23.347  0.00  0.00    +0.000 C 
ATOM     13  C   UNL     1      34.643 -10.973 -25.762  0.00  0.00    +0.143 C 
ATOM     14  C   UNL     1      35.090  -9.280 -24.097  0.00  0.00    +0.002 C 
ATOM     15  C   UNL     1      35.409  -9.901 -25.305  0.00  0.00    +0.024 C 
BRANCH  13  18
ATOM     16  O   UNL     1      34.307 -12.607 -27.355  0.00  0.00    -0.126 OA
ATOM     17  O   UNL     1      35.907 -11.140 -27.684  0.00  0.00    -0.126 OA
ATOM     18  N   UNL     1      34.968 -11.604 -26.993  0.00  0.00    +0.058 N 
ENDBRANCH  13  18
ENDBRANCH   2  10
BRANCH   3  20
ATOM     19  O   UNL     1      31.702 -14.076 -24.154  0.00  0.00    -0.245 OA
ATOM     20  C   UNL     1      32.546 -13.779 -23.328  0.00  0.00    +0.339 C 
BRANCH  20  21
ATOM     21  O   UNL     1      33.741 -14.376 -23.100  0.00  0.00    -0.443 OA
BRANCH  21  22
ATOM     22  C   UNL     1      34.102 -15.390 -24.042  0.00  0.00    +0.241 C 
BRANCH  22  23
ATOM     23  C   UNL     1      35.109 -16.326 -23.399  0.00  0.00    +0.190 C 
BRANCH  23  24
ATOM     24  O   UNL     1      35.045 -16.177 -21.986  0.00  0.00    -0.347 OA
ATOM     25  C   UNL     1      34.501 -17.335 -21.365  0.00  0.00    +0.174 C 
ENDBRANCH  23  24
ENDBRANCH  22  23
ENDBRANCH  21  22
ENDBRANCH  20  21
ENDBRANCH   3  20
BRANCH   4  27
ATOM     26  O   UNL     1      30.251  -8.906 -23.270  0.00  0.00    -0.245 OA
ATOM     27  C   UNL     1      31.151  -8.969 -22.454  0.00  0.00    +0.342 C 
BRANCH  27  28
ATOM     28  O   UNL     1      31.816  -7.950 -21.858  0.00  0.00    -0.440 OA
BRANCH  28  29
ATOM     29  C   UNL     1      31.336  -6.640 -22.181  0.00  0.00    +0.235 C 
BRANCH  29  30
ATOM     30  C   UNL     1      32.266  -6.019 -23.172  0.00  0.00    +0.021 C 
ATOM     31  C   UNL     1      32.110  -6.133 -24.501  0.00  0.00    -0.001 C 
BRANCH  31  32
ATOM     32  C   UNL     1      32.990  -5.527 -25.514  0.00  0.00    -0.000 C 
ATOM     33  C   UNL     1      34.268  -6.033 -25.695  0.00  0.00    -0.000 C 
ATOM     34  C   UNL     1      32.525  -4.462 -26.269  0.00  0.00    -0.000 C 
ATOM     35  C   UNL     1      35.102  -5.459 -26.654  0.00  0.00    -0.000 C 
ATOM     36  C   UNL     1      33.359  -3.888 -27.230  0.00  0.00    -0.000 C 
ATOM     37  C   UNL     1      34.647  -4.387 -27.422  0.00  0.00    -0.000 C 
ENDBRANCH  31  32
ENDBRANCH  29  30
ENDBRANCH  28  29
ENDBRANCH  27  28
ENDBRANCH   4  27
TORSDOF 12
ENDMDL
MODEL 8
REMARK VINA RESULT:      -8.4      6.936     13.037
REMARK  Name = 5282138
REMARK  12 active torsions:
REMARK  status: ('A' for Active; 'I' for Inactive)
REMARK    1  A    between atoms: C_2  and  C_10
REMARK    2  A    between atoms: C_3  and  C_20
REMARK    3  A    between atoms: C_4  and  C_27
REMARK    4  A    between atoms: C_13  and  N_18
REMARK    5  A    between atoms: C_20  and  O_21
REMARK    6  A    between atoms: O_21  and  C_22
REMARK    7  A    between atoms: C_22  and  C_23
REMARK    8  A    between atoms: C_23  and  O_24
REMARK    9  A    between atoms: C_27  and  O_28
REMARK   10  A    between atoms: O_28  and  C_29
REMARK   11  A    between atoms: C_29  and  C_30
REMARK   12  A    between atoms: C_31  and  C_32
REMARK                            x       y       z     vdW  Elec       q    Type
REMARK                         _______ _______ _______ _____ _____    ______ ____
ROOT
ATOM      1  N   UNL     1      31.451 -21.845 -17.236  0.00  0.00    -0.334 N 
ATOM      2  C   UNL     1      33.342 -23.915 -16.823  0.00  0.00    +0.011 C 
ATOM      3  C   UNL     1      32.135 -23.681 -15.907  0.00  0.00    +0.071 C 
ATOM      4  C   UNL     1      33.327 -23.023 -18.069  0.00  0.00    +0.085 C 
ATOM      5  C   UNL     1      31.267 -22.670 -16.137  0.00  0.00    +0.098 C 
ATOM      6  C   UNL     1      32.421 -22.029 -18.208  0.00  0.00    +0.028 C 
ATOM      7  C   UNL     1      30.076 -22.330 -15.281  0.00  0.00    +0.026 C 
ATOM      8  C   UNL     1      32.352 -21.067 -19.363  0.00  0.00    +0.047 C 
ATOM      9  H   UNL     1      30.849 -21.072 -17.333  0.00  0.00    +0.147 HD
ENDROOT
BRANCH   2  10
ATOM     10  C   UNL     1      34.615 -23.703 -16.056  0.00  0.00    +0.002 C 
ATOM     11  C   UNL     1      35.460 -24.780 -15.814  0.00  0.00    +0.024 C 
ATOM     12  C   UNL     1      34.938 -22.431 -15.598  0.00  0.00    +0.000 C 
ATOM     13  C   UNL     1      36.643 -24.583 -15.103  0.00  0.00    +0.143 C 
ATOM     14  C   UNL     1      36.120 -22.233 -14.887  0.00  0.00    +0.002 C 
ATOM     15  C   UNL     1      36.973 -23.309 -14.639  0.00  0.00    +0.024 C 
BRANCH  13  18
ATOM     16  O   UNL     1      37.307 -26.765 -15.442  0.00  0.00    -0.126 OA
ATOM     17  O   UNL     1      38.462 -25.526 -14.044  0.00  0.00    -0.126 OA
ATOM     18  N   UNL     1      37.512 -25.677 -14.851  0.00  0.00    +0.058 N 
ENDBRANCH  13  18
ENDBRANCH   2  10
BRANCH   3  20
ATOM     19  O   UNL     1      31.411 -25.733 -14.966  0.00  0.00    -0.245 OA
ATOM     20  C   UNL     1      31.940 -24.646 -14.814  0.00  0.00    +0.339 C 
BRANCH  20  21
ATOM     21  O   UNL     1      32.441 -24.111 -13.674  0.00  0.00    -0.443 OA
BRANCH  21  22
ATOM     22  C   UNL     1      33.379 -24.936 -12.978  0.00  0.00    +0.241 C 
BRANCH  22  23
ATOM     23  C   UNL     1      34.379 -24.050 -12.258  0.00  0.00    +0.190 C 
BRANCH  23  24
ATOM     24  O   UNL     1      35.198 -24.859 -11.422  0.00  0.00    -0.347 OA
ATOM     25  C   UNL     1      36.439 -24.225 -11.139  0.00  0.00    +0.174 C 
ENDBRANCH  23  24
ENDBRANCH  22  23
ENDBRANCH  21  22
ENDBRANCH  20  21
ENDBRANCH   3  20
BRANCH   4  27
ATOM     26  O   UNL     1      34.175 -24.249 -19.912  0.00  0.00    -0.245 OA
ATOM     27  C   UNL     1      34.312 -23.339 -19.116  0.00  0.00    +0.342 C 
BRANCH  27  28
ATOM     28  O   UNL     1      35.339 -22.461 -19.016  0.00  0.00    -0.440 OA
BRANCH  28  29
ATOM     29  C   UNL     1      35.915 -22.054 -20.261  0.00  0.00    +0.235 C 
BRANCH  29  30
ATOM     30  C   UNL     1      35.686 -20.588 -20.440  0.00  0.00    +0.021 C 
ATOM     31  C   UNL     1      35.186 -20.053 -21.565  0.00  0.00    -0.001 C 
BRANCH  31  32
ATOM     32  C   UNL     1      34.929 -18.619 -21.781  0.00  0.00    -0.000 C 
ATOM     33  C   UNL     1      34.046 -17.952 -20.947  0.00  0.00    -0.000 C 
ATOM     34  C   UNL     1      35.577 -17.962 -22.816  0.00  0.00    -0.000 C 
ATOM     35  C   UNL     1      33.803 -16.594 -21.152  0.00  0.00    -0.000 C 
ATOM     36  C   UNL     1      35.334 -16.603 -23.021  0.00  0.00    -0.000 C 
ATOM     37  C   UNL     1      34.448 -15.920 -22.189  0.00  0.00    -0.000 C 
ENDBRANCH  31  32
ENDBRANCH  29  30
ENDBRANCH  28  29
ENDBRANCH  27  28
ENDBRANCH   4  27
TORSDOF 12
ENDMDL
MODEL 9
REMARK VINA RESULT:      -8.3      6.811     12.863
REMARK  Name = 5282138
REMARK  12 active torsions:
REMARK  status: ('A' for Active; 'I' for Inactive)
REMARK    1  A    between atoms: C_2  and  C_10
REMARK    2  A    between atoms: C_3  and  C_20
REMARK    3  A    between atoms: C_4  and  C_27
REMARK    4  A    between atoms: C_13  and  N_18
REMARK    5  A    between atoms: C_20  and  O_21
REMARK    6  A    between atoms: O_21  and  C_22
REMARK    7  A    between atoms: C_22  and  C_23
REMARK    8  A    between atoms: C_23  and  O_24
REMARK    9  A    between atoms: C_27  and  O_28
REMARK   10  A    between atoms: O_28  and  C_29
REMARK   11  A    between atoms: C_29  and  C_30
REMARK   12  A    between atoms: C_31  and  C_32
REMARK                            x       y       z     vdW  Elec       q    Type
REMARK                         _______ _______ _______ _____ _____    ______ ____
ROOT
ATOM      1  N   UNL     1      31.516 -21.712 -17.285  0.00  0.00    -0.334 N 
ATOM      2  C   UNL     1      33.295 -23.882 -16.891  0.00  0.00    +0.011 C 
ATOM      3  C   UNL     1      32.088 -23.607 -15.986  0.00  0.00    +0.071 C 
ATOM      4  C   UNL     1      33.342 -22.966 -18.118  0.00  0.00    +0.085 C 
ATOM      5  C   UNL     1      31.275 -22.549 -16.207  0.00  0.00    +0.098 C 
ATOM      6  C   UNL     1      32.489 -21.925 -18.248  0.00  0.00    +0.028 C 
ATOM      7  C   UNL     1      30.091 -22.167 -15.359  0.00  0.00    +0.026 C 
ATOM      8  C   UNL     1      32.485 -20.938 -19.383  0.00  0.00    +0.047 C 
ATOM      9  H   UNL     1      30.954 -20.908 -17.374  0.00  0.00    +0.147 HD
ENDROOT
BRANCH   2  10
ATOM     10  C   UNL     1      34.566 -23.750 -16.103  0.00  0.00    +0.002 C 
ATOM     11  C   UNL     1      35.338 -24.877 -15.849  0.00  0.00    +0.024 C 
ATOM     12  C   UNL     1      34.960 -22.501 -15.638  0.00  0.00    +0.000 C 
ATOM     13  C   UNL     1      36.519 -24.754 -15.118  0.00  0.00    +0.143 C 
ATOM     14  C   UNL     1      36.140 -22.377 -14.907  0.00  0.00    +0.002 C 
ATOM     15  C   UNL     1      36.920 -23.504 -14.646  0.00  0.00    +0.024 C 
BRANCH  13  18
ATOM     16  O   UNL     1      38.049 -25.909 -13.836  0.00  0.00    -0.126 OA
ATOM     17  O   UNL     1      37.260 -26.874 -15.644  0.00  0.00    -0.126 OA
ATOM     18  N   UNL     1      37.315 -25.901 -14.853  0.00  0.00    +0.058 N 
ENDBRANCH  13  18
ENDBRANCH   2  10
BRANCH   3  20
ATOM     19  O   UNL     1      32.340 -24.518 -13.812  0.00  0.00    -0.245 OA
ATOM     20  C   UNL     1      31.830 -24.583 -14.916  0.00  0.00    +0.339 C 
BRANCH  20  21
ATOM     21  O   UNL     1      30.958 -25.510 -15.383  0.00  0.00    -0.443 OA
BRANCH  21  22
ATOM     22  C   UNL     1      29.797 -25.714 -14.573  0.00  0.00    +0.241 C 
BRANCH  22  23
ATOM     23  C   UNL     1      28.647 -24.905 -15.143  0.00  0.00    +0.190 C 
BRANCH  23  24
ATOM     24  O   UNL     1      28.699 -24.963 -16.563  0.00  0.00    -0.347 OA
ATOM     25  C   UNL     1      27.975 -23.893 -17.155  0.00  0.00    +0.174 C 
ENDBRANCH  23  24
ENDBRANCH  22  23
ENDBRANCH  21  22
ENDBRANCH  20  21
ENDBRANCH   3  20
BRANCH   4  27
ATOM     26  O   UNL     1      34.188 -24.242 -19.928  0.00  0.00    -0.245 OA
ATOM     27  C   UNL     1      34.326 -23.309 -19.158  0.00  0.00    +0.342 C 
BRANCH  27  28
ATOM     28  O   UNL     1      35.351 -22.426 -19.086  0.00  0.00    -0.440 OA
BRANCH  28  29
ATOM     29  C   UNL     1      35.929 -22.062 -20.343  0.00  0.00    +0.235 C 
BRANCH  29  30
ATOM     30  C   UNL     1      35.743 -20.594 -20.549  0.00  0.00    +0.021 C 
ATOM     31  C   UNL     1      35.348 -20.058 -21.715  0.00  0.00    -0.001 C 
BRANCH  31  32
ATOM     32  C   UNL     1      35.137 -18.621 -21.961  0.00  0.00    -0.000 C 
ATOM     33  C   UNL     1      35.098 -18.153 -23.265  0.00  0.00    -0.000 C 
ATOM     34  C   UNL     1      34.982 -17.763 -20.883  0.00  0.00    -0.000 C 
ATOM     35  C   UNL     1      34.898 -16.792 -23.497  0.00  0.00    -0.000 C 
ATOM     36  C   UNL     1      34.781 -16.402 -21.116  0.00  0.00    -0.000 C 
ATOM     37  C   UNL     1      34.740 -15.917 -22.423  0.00  0.00    -0.000 C 
ENDBRANCH  31  32
ENDBRANCH  29  30
ENDBRANCH  28  29
ENDBRANCH  27  28
ENDBRANCH   4  27
TORSDOF 12
ENDMDL
