MODEL 1
REMARK VINA RESULT:     -10.5      0.000      0.000
REMARK  Name = 4288
REMARK  5 active torsions:
REMARK  status: ('A' for Active; 'I' for Inactive)
REMARK    1  A    between atoms: N_2  and  C_17
REMARK    2  A    between atoms: C_3  and  C_5
REMARK    3  A    between atoms: C_6  and  S_11
REMARK    4  A    between atoms: S_11  and  N_14
REMARK    5  A    between atoms: C_17  and  C_20
REMARK                            x       y       z     vdW  Elec       q    Type
REMARK                         _______ _______ _______ _____ _____    ______ ____
ROOT
ATOM      1  O   UNL     1      36.833 -18.467 -21.975  0.00  0.00    -0.270 OA
ATOM      2  N   UNL     1      34.704 -17.551 -22.049  0.00  0.00    -0.297 N 
ATOM      3  C   UNL     1      35.634 -18.519 -21.650  0.00  0.00    +0.246 C 
ATOM      4  H   UNL     1      33.770 -17.654 -21.756  0.00  0.00    +0.150 HD
ENDROOT
BRANCH   3   5
ATOM      5  C   UNL     1      35.134 -19.623 -20.847  0.00  0.00    +0.053 C 
ATOM      6  C   UNL     1      34.174 -21.741 -19.306  0.00  0.00    +0.122 C 
ATOM      7  C   UNL     1      36.028 -20.505 -20.239  0.00  0.00    +0.006 C 
ATOM      8  C   UNL     1      33.759 -19.802 -20.685  0.00  0.00    +0.006 C 
ATOM      9  C   UNL     1      35.548 -21.564 -19.469  0.00  0.00    +0.020 C 
ATOM     10  C   UNL     1      33.279 -20.861 -19.915  0.00  0.00    +0.020 C 
BRANCH   6  11
ATOM     11  S   UNL     1      33.573 -23.067 -18.342  0.00  0.00    +0.057 S 
ATOM     12  O   UNL     1      32.261 -22.702 -17.826  0.00  0.00    -0.153 OA
ATOM     13  O   UNL     1      33.734 -24.301 -19.100  0.00  0.00    -0.153 OA
BRANCH  11  14
ATOM     14  N   UNL     1      34.693 -23.066 -17.052  0.00  0.00    -0.203 NA
ATOM     15  H   UNL     1      34.234 -22.736 -16.203  0.00  0.00    +0.144 HD
ATOM     16  H   UNL     1      35.473 -22.448 -17.279  0.00  0.00    +0.144 HD
ENDBRANCH  11  14
ENDBRANCH   6  11
ENDBRANCH   3   5
BRANCH   2  17
ATOM     17  C   UNL     1      35.042 -16.409 -22.868  0.00  0.00    +0.121 C 
BRANCH  17  20
ATOM     18  F   UNL     1      34.439 -15.381 -20.309  0.00  0.00    -0.204 F 
ATOM     19  F   UNL     1      33.715 -15.109 -24.994  0.00  0.00    -0.204 F 
ATOM     20  C   UNL     1      34.094 -15.265 -22.655  0.00  0.00    +0.052 C 
ATOM     21  C   UNL     1      33.843 -14.810 -21.366  0.00  0.00    +0.140 C 
ATOM     22  C   UNL     1      33.475 -14.672 -23.750  0.00  0.00    +0.140 C 
ATOM     23  C   UNL     1      32.962 -13.746 -21.167  0.00  0.00    +0.030 C 
ATOM     24  C   UNL     1      32.594 -13.608 -23.552  0.00  0.00    +0.030 C 
ATOM     25  C   UNL     1      32.337 -13.146 -22.261  0.00  0.00    +0.005 C 
ENDBRANCH  17  20
ENDBRANCH   2  17
TORSDOF 5
ENDMDL
MODEL 2
REMARK VINA RESULT:     -10.5      0.083      2.043
REMARK  Name = 4288
REMARK  5 active torsions:
REMARK  status: ('A' for Active; 'I' for Inactive)
REMARK    1  A    between atoms: N_2  and  C_17
REMARK    2  A    between atoms: C_3  and  C_5
REMARK    3  A    between atoms: C_6  and  S_11
REMARK    4  A    between atoms: S_11  and  N_14
REMARK    5  A    between atoms: C_17  and  C_20
REMARK                            x       y       z     vdW  Elec       q    Type
REMARK                         _______ _______ _______ _____ _____    ______ ____
ROOT
ATOM      1  O   UNL     1      36.884 -18.534 -21.990  0.00  0.00    -0.270 OA
ATOM      2  N   UNL     1      34.781 -17.557 -22.015  0.00  0.00    -0.297 N 
ATOM      3  C   UNL     1      35.690 -18.555 -21.643  0.00  0.00    +0.246 C 
ATOM      4  H   UNL     1      33.851 -17.635 -21.704  0.00  0.00    +0.150 HD
ENDROOT
BRANCH   3   5
ATOM      5  C   UNL     1      35.174 -19.651 -20.840  0.00  0.00    +0.053 C 
ATOM      6  C   UNL     1      34.185 -21.755 -19.297  0.00  0.00    +0.122 C 
ATOM      7  C   UNL     1      33.798 -19.805 -20.670  0.00  0.00    +0.006 C 
ATOM      8  C   UNL     1      36.055 -20.549 -20.236  0.00  0.00    +0.006 C 
ATOM      9  C   UNL     1      33.303 -20.857 -19.899  0.00  0.00    +0.020 C 
ATOM     10  C   UNL     1      35.561 -21.600 -19.464  0.00  0.00    +0.020 C 
BRANCH   6  11
ATOM     11  S   UNL     1      33.566 -23.071 -18.332  0.00  0.00    +0.057 S 
ATOM     12  O   UNL     1      32.251 -22.694 -17.830  0.00  0.00    -0.153 OA
ATOM     13  O   UNL     1      33.726 -24.310 -19.081  0.00  0.00    -0.153 OA
BRANCH  11  14
ATOM     14  N   UNL     1      34.673 -23.070 -17.031  0.00  0.00    -0.203 NA
ATOM     15  H   UNL     1      35.625 -23.034 -17.394  0.00  0.00    +0.144 HD
ATOM     16  H   UNL     1      34.551 -23.921 -16.480  0.00  0.00    +0.144 HD
ENDBRANCH  11  14
ENDBRANCH   6  11
ENDBRANCH   3   5
BRANCH   2  17
ATOM     17  C   UNL     1      35.136 -16.418 -22.831  0.00  0.00    +0.121 C 
BRANCH  17  20
ATOM     18  F   UNL     1      33.773 -15.255 -25.012  0.00  0.00    -0.204 F 
ATOM     19  F   UNL     1      34.516 -15.279 -20.323  0.00  0.00    -0.204 F 
ATOM     20  C   UNL     1      34.162 -15.287 -22.670  0.00  0.00    +0.052 C 
ATOM     21  C   UNL     1      33.527 -14.762 -23.790  0.00  0.00    +0.140 C 
ATOM     22  C   UNL     1      33.905 -14.774 -21.403  0.00  0.00    +0.140 C 
ATOM     23  C   UNL     1      32.621 -13.711 -23.641  0.00  0.00    +0.030 C 
ATOM     24  C   UNL     1      33.000 -13.723 -21.255  0.00  0.00    +0.030 C 
ATOM     25  C   UNL     1      32.359 -13.191 -22.373  0.00  0.00    +0.005 C 
ENDBRANCH  17  20
ENDBRANCH   2  17
TORSDOF 5
ENDMDL
MODEL 3
REMARK VINA RESULT:     -10.4      4.888      7.170
REMARK  Name = 4288
REMARK  5 active torsions:
REMARK  status: ('A' for Active; 'I' for Inactive)
REMARK    1  A    between atoms: N_2  and  C_17
REMARK    2  A    between atoms: C_3  and  C_5
REMARK    3  A    between atoms: C_6  and  S_11
REMARK    4  A    between atoms: S_11  and  N_14
REMARK    5  A    between atoms: C_17  and  C_20
REMARK                            x       y       z     vdW  Elec       q    Type
REMARK                         _______ _______ _______ _____ _____    ______ ____
ROOT
ATOM      1  O   UNL     1      32.437 -23.331 -16.700  0.00  0.00    -0.270 OA
ATOM      2  N   UNL     1      34.397 -22.651 -17.736  0.00  0.00    -0.297 N 
ATOM      3  C   UNL     1      33.663 -23.132 -16.645  0.00  0.00    +0.246 C 
ATOM      4  H   UNL     1      35.365 -22.517 -17.623  0.00  0.00    +0.150 HD
ENDROOT
BRANCH   3   5
ATOM      5  C   UNL     1      34.396 -23.375 -15.413  0.00  0.00    +0.053 C 
ATOM      6  C   UNL     1      35.802 -23.841 -13.049  0.00  0.00    +0.122 C 
ATOM      7  C   UNL     1      33.764 -23.999 -14.337  0.00  0.00    +0.006 C 
ATOM      8  C   UNL     1      35.731 -22.983 -15.306  0.00  0.00    +0.006 C 
ATOM      9  C   UNL     1      34.467 -24.232 -13.155  0.00  0.00    +0.020 C 
ATOM     10  C   UNL     1      36.434 -23.216 -14.124  0.00  0.00    +0.020 C 
BRANCH   6  11
ATOM     11  S   UNL     1      36.682 -24.132 -11.569  0.00  0.00    +0.057 S 
ATOM     12  O   UNL     1      37.644 -25.198 -11.810  0.00  0.00    -0.153 OA
ATOM     13  O   UNL     1      37.136 -22.853 -11.042  0.00  0.00    -0.153 OA
BRANCH  11  14
ATOM     14  N   UNL     1      35.438 -24.730 -10.563  0.00  0.00    -0.203 NA
ATOM     15  H   UNL     1      34.745 -25.218 -11.130  0.00  0.00    +0.144 HD
ATOM     16  H   UNL     1      34.991 -23.953 -10.075  0.00  0.00    +0.144 HD
ENDBRANCH  11  14
ENDBRANCH   6  11
ENDBRANCH   3   5
BRANCH   2  17
ATOM     17  C   UNL     1      33.808 -22.339 -19.019  0.00  0.00    +0.121 C 
BRANCH  17  20
ATOM     18  F   UNL     1      36.613 -22.031 -18.932  0.00  0.00    -0.204 F 
ATOM     19  F   UNL     1      32.459 -20.355 -20.506  0.00  0.00    -0.204 F 
ATOM     20  C   UNL     1      34.523 -21.213 -19.707  0.00  0.00    +0.052 C 
ATOM     21  C   UNL     1      35.908 -21.122 -19.621  0.00  0.00    +0.140 C 
ATOM     22  C   UNL     1      33.794 -20.270 -20.422  0.00  0.00    +0.140 C 
ATOM     23  C   UNL     1      36.573 -20.076 -20.261  0.00  0.00    +0.030 C 
ATOM     24  C   UNL     1      34.459 -19.223 -21.061  0.00  0.00    +0.030 C 
ATOM     25  C   UNL     1      35.847 -19.126 -20.980  0.00  0.00    +0.005 C 
ENDBRANCH  17  20
ENDBRANCH   2  17
TORSDOF 5
ENDMDL
MODEL 4
REMARK VINA RESULT:     -10.4      4.890      7.236
REMARK  Name = 4288
REMARK  5 active torsions:
REMARK  status: ('A' for Active; 'I' for Inactive)
REMARK    1  A    between atoms: N_2  and  C_17
REMARK    2  A    between atoms: C_3  and  C_5
REMARK    3  A    between atoms: C_6  and  S_11
REMARK    4  A    between atoms: S_11  and  N_14
REMARK    5  A    between atoms: C_17  and  C_20
REMARK                            x       y       z     vdW  Elec       q    Type
REMARK                         _______ _______ _______ _____ _____    ______ ____
ROOT
ATOM      1  O   UNL     1      32.464 -23.309 -16.714  0.00  0.00    -0.270 OA
ATOM      2  N   UNL     1      34.439 -22.692 -17.760  0.00  0.00    -0.297 N 
ATOM      3  C   UNL     1      33.695 -23.141 -16.663  0.00  0.00    +0.246 C 
ATOM      4  H   UNL     1      35.411 -22.581 -17.650  0.00  0.00    +0.150 HD
ENDROOT
BRANCH   3   5
ATOM      5  C   UNL     1      34.422 -23.386 -15.428  0.00  0.00    +0.053 C 
ATOM      6  C   UNL     1      35.818 -23.857 -13.059  0.00  0.00    +0.122 C 
ATOM      7  C   UNL     1      35.742 -22.954 -15.298  0.00  0.00    +0.006 C 
ATOM      8  C   UNL     1      33.801 -24.054 -14.372  0.00  0.00    +0.006 C 
ATOM      9  C   UNL     1      36.440 -23.189 -14.114  0.00  0.00    +0.020 C 
ATOM     10  C   UNL     1      34.499 -24.290 -13.188  0.00  0.00    +0.020 C 
BRANCH   6  11
ATOM     11  S   UNL     1      36.691 -24.152 -11.576  0.00  0.00    +0.057 S 
ATOM     12  O   UNL     1      37.643 -25.229 -11.810  0.00  0.00    -0.153 OA
ATOM     13  O   UNL     1      37.158 -22.875 -11.052  0.00  0.00    -0.153 OA
BRANCH  11  14
ATOM     14  N   UNL     1      35.439 -24.732 -10.570  0.00  0.00    -0.203 NA
ATOM     15  H   UNL     1      35.719 -24.645  -9.592  0.00  0.00    +0.144 HD
ATOM     16  H   UNL     1      35.256 -25.713 -10.784  0.00  0.00    +0.144 HD
ENDBRANCH  11  14
ENDBRANCH   6  11
ENDBRANCH   3   5
BRANCH   2  17
ATOM     17  C   UNL     1      33.857 -22.383 -19.047  0.00  0.00    +0.121 C 
BRANCH  17  20
ATOM     18  F   UNL     1      32.487 -20.398 -20.512  0.00  0.00    -0.204 F 
ATOM     19  F   UNL     1      36.658 -22.044 -18.954  0.00  0.00    -0.204 F 
ATOM     20  C   UNL     1      34.560 -21.242 -19.722  0.00  0.00    +0.052 C 
ATOM     21  C   UNL     1      33.821 -20.299 -20.428  0.00  0.00    +0.140 C 
ATOM     22  C   UNL     1      35.944 -21.137 -19.635  0.00  0.00    +0.140 C 
ATOM     23  C   UNL     1      34.474 -19.238 -21.056  0.00  0.00    +0.030 C 
ATOM     24  C   UNL     1      36.597 -20.076 -20.262  0.00  0.00    +0.030 C 
ATOM     25  C   UNL     1      35.862 -19.127 -20.973  0.00  0.00    +0.005 C 
ENDBRANCH  17  20
ENDBRANCH   2  17
TORSDOF 5
ENDMDL
MODEL 5
REMARK VINA RESULT:      -9.8      4.695      6.584
REMARK  Name = 4288
REMARK  5 active torsions:
REMARK  status: ('A' for Active; 'I' for Inactive)
REMARK    1  A    between atoms: N_2  and  C_17
REMARK    2  A    between atoms: C_3  and  C_5
REMARK    3  A    between atoms: C_6  and  S_11
REMARK    4  A    between atoms: S_11  and  N_14
REMARK    5  A    between atoms: C_17  and  C_20
REMARK                            x       y       z     vdW  Elec       q    Type
REMARK                         _______ _______ _______ _____ _____    ______ ____
ROOT
ATOM      1  O   UNL     1      37.522 -20.498 -17.130  0.00  0.00    -0.270 OA
ATOM      2  N   UNL     1      36.433 -22.128 -18.369  0.00  0.00    -0.297 N 
ATOM      3  C   UNL     1      36.954 -21.603 -17.181  0.00  0.00    +0.246 C 
ATOM      4  H   UNL     1      35.995 -23.009 -18.337  0.00  0.00    +0.150 HD
ENDROOT
BRANCH   3   5
ATOM      5  C   UNL     1      36.828 -22.423 -15.987  0.00  0.00    +0.053 C 
ATOM      6  C   UNL     1      36.585 -23.995 -13.695  0.00  0.00    +0.122 C 
ATOM      7  C   UNL     1      37.915 -23.171 -15.535  0.00  0.00    +0.006 C 
ATOM      8  C   UNL     1      35.618 -22.462 -15.291  0.00  0.00    +0.006 C 
ATOM      9  C   UNL     1      37.794 -23.957 -14.390  0.00  0.00    +0.020 C 
ATOM     10  C   UNL     1      35.497 -23.248 -14.146  0.00  0.00    +0.020 C 
BRANCH   6  11
ATOM     11  S   UNL     1      36.432 -24.980 -12.261  0.00  0.00    +0.057 S 
ATOM     12  O   UNL     1      37.497 -24.612 -11.337  0.00  0.00    -0.153 OA
ATOM     13  O   UNL     1      35.045 -24.941 -11.819  0.00  0.00    -0.153 OA
BRANCH  11  14
ATOM     14  N   UNL     1      36.763 -26.531 -12.894  0.00  0.00    -0.203 NA
ATOM     15  H   UNL     1      35.918 -27.102 -12.857  0.00  0.00    +0.144 HD
ATOM     16  H   UNL     1      37.497 -26.976 -12.341  0.00  0.00    +0.144 HD
ENDBRANCH  11  14
ENDBRANCH   6  11
ENDBRANCH   3   5
BRANCH   2  17
ATOM     17  C   UNL     1      36.502 -21.445 -19.641  0.00  0.00    +0.121 C 
BRANCH  17  20
ATOM     18  F   UNL     1      36.314 -19.108 -21.213  0.00  0.00    -0.204 F 
ATOM     19  F   UNL     1      34.017 -22.515 -18.835  0.00  0.00    -0.204 F 
ATOM     20  C   UNL     1      35.189 -20.822 -20.017  0.00  0.00    +0.052 C 
ATOM     21  C   UNL     1      35.171 -19.669 -20.794  0.00  0.00    +0.140 C 
ATOM     22  C   UNL     1      34.002 -21.403 -19.584  0.00  0.00    +0.140 C 
ATOM     23  C   UNL     1      33.951 -19.090 -21.144  0.00  0.00    +0.030 C 
ATOM     24  C   UNL     1      32.782 -20.824 -19.933  0.00  0.00    +0.030 C 
ATOM     25  C   UNL     1      32.757 -19.668 -20.713  0.00  0.00    +0.005 C 
ENDBRANCH  17  20
ENDBRANCH   2  17
TORSDOF 5
ENDMDL
MODEL 6
REMARK VINA RESULT:      -9.8      4.686      6.542
REMARK  Name = 4288
REMARK  5 active torsions:
REMARK  status: ('A' for Active; 'I' for Inactive)
REMARK    1  A    between atoms: N_2  and  C_17
REMARK    2  A    between atoms: C_3  and  C_5
REMARK    3  A    between atoms: C_6  and  S_11
REMARK    4  A    between atoms: S_11  and  N_14
REMARK    5  A    between atoms: C_17  and  C_20
REMARK                            x       y       z     vdW  Elec       q    Type
REMARK                         _______ _______ _______ _____ _____    ______ ____
ROOT
ATOM      1  O   UNL     1      37.521 -20.495 -17.136  0.00  0.00    -0.270 OA
ATOM      2  N   UNL     1      36.422 -22.120 -18.372  0.00  0.00    -0.297 N 
ATOM      3  C   UNL     1      36.947 -21.597 -17.185  0.00  0.00    +0.246 C 
ATOM      4  H   UNL     1      35.980 -22.999 -18.339  0.00  0.00    +0.150 HD
ENDROOT
BRANCH   3   5
ATOM      5  C   UNL     1      36.817 -22.414 -15.990  0.00  0.00    +0.053 C 
ATOM      6  C   UNL     1      36.567 -23.982 -13.695  0.00  0.00    +0.122 C 
ATOM      7  C   UNL     1      35.600 -22.465 -15.308  0.00  0.00    +0.006 C 
ATOM      8  C   UNL     1      37.908 -23.148 -15.522  0.00  0.00    +0.006 C 
ATOM      9  C   UNL     1      35.476 -23.248 -14.161  0.00  0.00    +0.020 C 
ATOM     10  C   UNL     1      37.783 -23.931 -14.375  0.00  0.00    +0.020 C 
BRANCH   6  11
ATOM     11  S   UNL     1      36.411 -24.963 -12.259  0.00  0.00    +0.057 S 
ATOM     12  O   UNL     1      37.468 -24.589 -11.330  0.00  0.00    -0.153 OA
ATOM     13  O   UNL     1      35.021 -24.929 -11.825  0.00  0.00    -0.153 OA
BRANCH  11  14
ATOM     14  N   UNL     1      36.752 -26.515 -12.886  0.00  0.00    -0.203 NA
ATOM     15  H   UNL     1      36.541 -26.534 -13.884  0.00  0.00    +0.144 HD
ATOM     16  H   UNL     1      36.180 -27.210 -12.405  0.00  0.00    +0.144 HD
ENDBRANCH  11  14
ENDBRANCH   6  11
ENDBRANCH   3   5
BRANCH   2  17
ATOM     17  C   UNL     1      36.495 -21.440 -19.645  0.00  0.00    +0.121 C 
BRANCH  17  20
ATOM     18  F   UNL     1      34.006 -22.516 -18.864  0.00  0.00    -0.204 F 
ATOM     19  F   UNL     1      36.317 -19.087 -21.196  0.00  0.00    -0.204 F 
ATOM     20  C   UNL     1      35.185 -20.813 -20.023  0.00  0.00    +0.052 C 
ATOM     21  C   UNL     1      33.995 -21.398 -19.603  0.00  0.00    +0.140 C 
ATOM     22  C   UNL     1      35.172 -19.653 -20.790  0.00  0.00    +0.140 C 
ATOM     23  C   UNL     1      32.777 -20.816 -19.954  0.00  0.00    +0.030 C 
ATOM     24  C   UNL     1      33.954 -19.071 -21.141  0.00  0.00    +0.030 C 
ATOM     25  C   UNL     1      32.757 -19.652 -20.723  0.00  0.00    +0.005 C 
ENDBRANCH  17  20
ENDBRANCH   2  17
TORSDOF 5
ENDMDL
MODEL 7
REMARK VINA RESULT:      -9.7      4.258      6.428
REMARK  Name = 4288
REMARK  5 active torsions:
REMARK  status: ('A' for Active; 'I' for Inactive)
REMARK    1  A    between atoms: N_2  and  C_17
REMARK    2  A    between atoms: C_3  and  C_5
REMARK    3  A    between atoms: C_6  and  S_11
REMARK    4  A    between atoms: S_11  and  N_14
REMARK    5  A    between atoms: C_17  and  C_20
REMARK                            x       y       z     vdW  Elec       q    Type
REMARK                         _______ _______ _______ _____ _____    ______ ____
ROOT
ATOM      1  O   UNL     1      33.082 -12.088 -23.806  0.00  0.00    -0.270 OA
ATOM      2  N   UNL     1      31.557 -12.440 -22.095  0.00  0.00    -0.297 N 
ATOM      3  C   UNL     1      32.649 -12.809 -22.890  0.00  0.00    +0.246 C 
ATOM      4  H   UNL     1      31.268 -13.059 -21.386  0.00  0.00    +0.150 HD
ENDROOT
BRANCH   3   5
ATOM      5  C   UNL     1      33.258 -14.100 -22.617  0.00  0.00    +0.053 C 
ATOM      6  C   UNL     1      34.428 -16.578 -22.093  0.00  0.00    +0.122 C 
ATOM      7  C   UNL     1      32.918 -14.802 -21.460  0.00  0.00    +0.006 C 
ATOM      8  C   UNL     1      34.185 -14.638 -23.511  0.00  0.00    +0.006 C 
ATOM      9  C   UNL     1      33.503 -16.041 -21.199  0.00  0.00    +0.020 C 
ATOM     10  C   UNL     1      34.770 -15.876 -23.249  0.00  0.00    +0.020 C 
BRANCH   6  11
ATOM     11  S   UNL     1      35.161 -18.129 -21.766  0.00  0.00    +0.057 S 
ATOM     12  O   UNL     1      35.772 -18.078 -20.445  0.00  0.00    -0.153 OA
ATOM     13  O   UNL     1      34.192 -19.172 -22.074  0.00  0.00    -0.153 OA
BRANCH  11  14
ATOM     14  N   UNL     1      36.396 -18.162 -22.945  0.00  0.00    -0.203 NA
ATOM     15  H   UNL     1      37.296 -17.974 -22.501  0.00  0.00    +0.144 HD
ATOM     16  H   UNL     1      36.211 -17.450 -23.652  0.00  0.00    +0.144 HD
ENDBRANCH  11  14
ENDBRANCH   6  11
ENDBRANCH   3   5
BRANCH   2  17
ATOM     17  C   UNL     1      30.832 -11.201 -22.259  0.00  0.00    +0.121 C 
BRANCH  17  20
ATOM     18  F   UNL     1      32.080  -9.122 -23.704  0.00  0.00    -0.204 F 
ATOM     19  F   UNL     1      30.998 -10.938 -19.453  0.00  0.00    -0.204 F 
ATOM     20  C   UNL     1      31.527 -10.051 -21.591  0.00  0.00    +0.052 C 
ATOM     21  C   UNL     1      32.121  -9.061 -22.366  0.00  0.00    +0.140 C 
ATOM     22  C   UNL     1      31.570  -9.986 -20.202  0.00  0.00    +0.140 C 
ATOM     23  C   UNL     1      32.766  -7.991 -21.745  0.00  0.00    +0.030 C 
ATOM     24  C   UNL     1      32.216  -8.916 -19.581  0.00  0.00    +0.030 C 
ATOM     25  C   UNL     1      32.814  -7.920 -20.352  0.00  0.00    +0.005 C 
ENDBRANCH  17  20
ENDBRANCH   2  17
TORSDOF 5
ENDMDL
MODEL 8
REMARK VINA RESULT:      -9.7      4.243      6.162
REMARK  Name = 4288
REMARK  5 active torsions:
REMARK  status: ('A' for Active; 'I' for Inactive)
REMARK    1  A    between atoms: N_2  and  C_17
REMARK    2  A    between atoms: C_3  and  C_5
REMARK    3  A    between atoms: C_6  and  S_11
REMARK    4  A    between atoms: S_11  and  N_14
REMARK    5  A    between atoms: C_17  and  C_20
REMARK                            x       y       z     vdW  Elec       q    Type
REMARK                         _______ _______ _______ _____ _____    ______ ____
ROOT
ATOM      1  O   UNL     1      33.083 -12.126 -23.816  0.00  0.00    -0.270 OA
ATOM      2  N   UNL     1      31.579 -12.466 -22.084  0.00  0.00    -0.297 N 
ATOM      3  C   UNL     1      32.661 -12.840 -22.890  0.00  0.00    +0.246 C 
ATOM      4  H   UNL     1      31.298 -13.079 -21.368  0.00  0.00    +0.150 HD
ENDROOT
BRANCH   3   5
ATOM      5  C   UNL     1      33.272 -14.131 -22.616  0.00  0.00    +0.053 C 
ATOM      6  C   UNL     1      34.443 -16.608 -22.091  0.00  0.00    +0.122 C 
ATOM      7  C   UNL     1      34.191 -14.673 -23.515  0.00  0.00    +0.006 C 
ATOM      8  C   UNL     1      32.938 -14.829 -21.455  0.00  0.00    +0.006 C 
ATOM      9  C   UNL     1      34.776 -15.911 -23.252  0.00  0.00    +0.020 C 
ATOM     10  C   UNL     1      33.524 -16.067 -21.192  0.00  0.00    +0.020 C 
BRANCH   6  11
ATOM     11  S   UNL     1      35.176 -18.158 -21.762  0.00  0.00    +0.057 S 
ATOM     12  O   UNL     1      35.762 -18.115 -20.429  0.00  0.00    -0.153 OA
ATOM     13  O   UNL     1      34.219 -19.203 -22.098  0.00  0.00    -0.153 OA
BRANCH  11  14
ATOM     14  N   UNL     1      36.435 -18.175 -22.916  0.00  0.00    -0.203 NA
ATOM     15  H   UNL     1      37.315 -18.414 -22.458  0.00  0.00    +0.144 HD
ATOM     16  H   UNL     1      36.516 -17.252 -23.346  0.00  0.00    +0.144 HD
ENDBRANCH  11  14
ENDBRANCH   6  11
ENDBRANCH   3   5
BRANCH   2  17
ATOM     17  C   UNL     1      30.854 -11.226 -22.247  0.00  0.00    +0.121 C 
BRANCH  17  20
ATOM     18  F   UNL     1      30.977 -10.962 -19.440  0.00  0.00    -0.204 F 
ATOM     19  F   UNL     1      32.133  -9.154 -23.674  0.00  0.00    -0.204 F 
ATOM     20  C   UNL     1      31.542 -10.078 -21.569  0.00  0.00    +0.052 C 
ATOM     21  C   UNL     1      31.564 -10.012 -20.180  0.00  0.00    +0.140 C 
ATOM     22  C   UNL     1      32.152  -9.092 -22.336  0.00  0.00    +0.140 C 
ATOM     23  C   UNL     1      32.205  -8.945 -19.550  0.00  0.00    +0.030 C 
ATOM     24  C   UNL     1      32.793  -8.025 -21.705  0.00  0.00    +0.030 C 
ATOM     25  C   UNL     1      32.818  -7.951 -20.313  0.00  0.00    +0.005 C 
ENDBRANCH  17  20
ENDBRANCH   2  17
TORSDOF 5
ENDMDL
MODEL 9
REMARK VINA RESULT:      -9.7      4.605      8.630
REMARK  Name = 4288
REMARK  5 active torsions:
REMARK  status: ('A' for Active; 'I' for Inactive)
REMARK    1  A    between atoms: N_2  and  C_17
REMARK    2  A    between atoms: C_3  and  C_5
REMARK    3  A    between atoms: C_6  and  S_11
REMARK    4  A    between atoms: S_11  and  N_14
REMARK    5  A    between atoms: C_17  and  C_20
REMARK                            x       y       z     vdW  Elec       q    Type
REMARK                         _______ _______ _______ _____ _____    ______ ____
ROOT
ATOM      1  O   UNL     1      33.903 -23.842 -19.355  0.00  0.00    -0.270 OA
ATOM      2  N   UNL     1      34.236 -22.638 -17.401  0.00  0.00    -0.297 N 
ATOM      3  C   UNL     1      34.155 -22.762 -18.794  0.00  0.00    +0.246 C 
ATOM      4  H   UNL     1      34.439 -21.753 -17.023  0.00  0.00    +0.150 HD
ENDROOT
BRANCH   3   5
ATOM      5  C   UNL     1      34.404 -21.563 -19.577  0.00  0.00    +0.053 C 
ATOM      6  C   UNL     1      34.880 -19.262 -21.082  0.00  0.00    +0.122 C 
ATOM      7  C   UNL     1      35.713 -21.166 -19.851  0.00  0.00    +0.006 C 
ATOM      8  C   UNL     1      33.333 -20.807 -20.056  0.00  0.00    +0.006 C 
ATOM      9  C   UNL     1      35.951 -20.016 -20.603  0.00  0.00    +0.020 C 
ATOM     10  C   UNL     1      33.570 -19.657 -20.808  0.00  0.00    +0.020 C 
BRANCH   6  11
ATOM     11  S   UNL     1      35.178 -17.822 -22.023  0.00  0.00    +0.057 S 
ATOM     12  O   UNL     1      34.328 -17.863 -23.205  0.00  0.00    -0.153 OA
ATOM     13  O   UNL     1      35.126 -16.669 -21.134  0.00  0.00    -0.153 OA
BRANCH  11  14
ATOM     14  N   UNL     1      36.798 -18.074 -22.501  0.00  0.00    -0.203 NA
ATOM     15  H   UNL     1      37.069 -19.036 -22.293  0.00  0.00    +0.144 HD
ATOM     16  H   UNL     1      37.407 -17.432 -21.992  0.00  0.00    +0.144 HD
ENDBRANCH  11  14
ENDBRANCH   6  11
ENDBRANCH   3   5
BRANCH   2  17
ATOM     17  C   UNL     1      34.039 -23.742 -16.489  0.00  0.00    +0.121 C 
BRANCH  17  20
ATOM     18  F   UNL     1      31.505 -22.922 -17.423  0.00  0.00    -0.204 F 
ATOM     19  F   UNL     1      34.197 -24.096 -13.693  0.00  0.00    -0.204 F 
ATOM     20  C   UNL     1      32.871 -23.513 -15.574  0.00  0.00    +0.052 C 
ATOM     21  C   UNL     1      31.651 -23.109 -16.104  0.00  0.00    +0.140 C 
ATOM     22  C   UNL     1      33.021 -23.706 -14.206  0.00  0.00    +0.140 C 
ATOM     23  C   UNL     1      30.565 -22.896 -15.254  0.00  0.00    +0.030 C 
ATOM     24  C   UNL     1      31.936 -23.494 -13.355  0.00  0.00    +0.030 C 
ATOM     25  C   UNL     1      30.709 -23.088 -13.879  0.00  0.00    +0.005 C 
ENDBRANCH  17  20
ENDBRANCH   2  17
TORSDOF 5
ENDMDL
