MODEL 1
REMARK VINA RESULT:      -9.4      0.000      0.000
REMARK  Name = 44263483
REMARK  6 active torsions:
REMARK  status: ('A' for Active; 'I' for Inactive)
REMARK    1  A    between atoms: C_5  and  O_17
REMARK    2  A    between atoms: C_6  and  O_19
REMARK    3  A    between atoms: C_7  and  O_21
REMARK    4  A    between atoms: C_8  and  C_23
REMARK    5  A    between atoms: C_10  and  C_11
REMARK    6  A    between atoms: C_23  and  O_24
REMARK                            x       y       z     vdW  Elec       q    Type
REMARK                         _______ _______ _______ _____ _____    ______ ____
ROOT
ATOM      1  O   UNL     1      33.490 -22.644 -15.521  0.00  0.00    -0.319 OA
ATOM      2  O   UNL     1      34.125 -24.229 -17.183  0.00  0.00    -0.354 OA
ATOM      3  N   UNL     1      33.848 -23.549 -18.392  0.00  0.00    -0.085 NA
ATOM      4  C   UNL     1      34.580 -23.257 -16.226  0.00  0.00    +0.288 C 
ATOM      5  C   UNL     1      35.551 -23.899 -15.226  0.00  0.00    +0.207 C 
ATOM      6  C   UNL     1      34.827 -24.897 -14.321  0.00  0.00    +0.173 C 
ATOM      7  C   UNL     1      33.593 -24.250 -13.690  0.00  0.00    +0.169 C 
ATOM      8  C   UNL     1      32.722 -23.570 -14.749  0.00  0.00    +0.177 C 
ATOM      9  C   UNL     1      35.245 -22.192 -17.083  0.00  0.00    +0.124 C 
ATOM     10  C   UNL     1      34.462 -22.411 -18.337  0.00  0.00    +0.103 C 
ENDROOT
BRANCH  10  11
ATOM     11  C   UNL     1      34.428 -21.413 -19.427  0.00  0.00    +0.017 C 
ATOM     12  C   UNL     1      35.617 -20.959 -19.997  0.00  0.00    +0.001 C 
ATOM     13  C   UNL     1      33.204 -20.923 -19.884  0.00  0.00    +0.001 C 
ATOM     14  C   UNL     1      35.582 -20.017 -21.025  0.00  0.00    +0.000 C 
ATOM     15  C   UNL     1      33.169 -19.982 -20.912  0.00  0.00    +0.000 C 
ATOM     16  C   UNL     1      34.359 -19.528 -21.483  0.00  0.00    +0.000 C 
ENDBRANCH  10  11
BRANCH   5  17
ATOM     17  O   UNL     1      36.597 -24.562 -15.931  0.00  0.00    -0.377 OA
ATOM     18  H   UNL     1      36.362 -25.495 -16.054  0.00  0.00    +0.211 HD
ENDBRANCH   5  17
BRANCH   6  19
ATOM     19  O   UNL     1      35.699 -25.302 -13.265  0.00  0.00    -0.379 OA
ATOM     20  H   UNL     1      35.398 -24.912 -12.429  0.00  0.00    +0.211 HD
ENDBRANCH   6  19
BRANCH   7  21
ATOM     21  O   UNL     1      32.826 -25.250 -13.023  0.00  0.00    -0.379 OA
ATOM     22  H   UNL     1      33.085 -26.126 -13.347  0.00  0.00    +0.211 HD
ENDBRANCH   7  21
BRANCH   8  23
ATOM     23  C   UNL     1      31.574 -22.790 -14.114  0.00  0.00    +0.169 C 
BRANCH  23  24
ATOM     24  O   UNL     1      31.801 -22.711 -12.719  0.00  0.00    -0.379 OA
ATOM     25  H   UNL     1      32.616 -22.211 -12.552  0.00  0.00    +0.211 HD
ENDBRANCH  23  24
ENDBRANCH   8  23
TORSDOF 6
ENDMDL
MODEL 2
REMARK VINA RESULT:      -9.2      6.186      9.400
REMARK  Name = 44263483
REMARK  6 active torsions:
REMARK  status: ('A' for Active; 'I' for Inactive)
REMARK    1  A    between atoms: C_5  and  O_17
REMARK    2  A    between atoms: C_6  and  O_19
REMARK    3  A    between atoms: C_7  and  O_21
REMARK    4  A    between atoms: C_8  and  C_23
REMARK    5  A    between atoms: C_10  and  C_11
REMARK    6  A    between atoms: C_23  and  O_24
REMARK                            x       y       z     vdW  Elec       q    Type
REMARK                         _______ _______ _______ _____ _____    ______ ____
ROOT
ATOM      1  O   UNL     1      33.900 -16.882 -21.884  0.00  0.00    -0.319 OA
ATOM      2  O   UNL     1      36.016 -17.815 -22.461  0.00  0.00    -0.354 OA
ATOM      3  N   UNL     1      36.302 -18.655 -21.360  0.00  0.00    -0.085 NA
ATOM      4  C   UNL     1      34.595 -17.851 -22.684  0.00  0.00    +0.288 C 
ATOM      5  C   UNL     1      34.277 -17.627 -24.168  0.00  0.00    +0.207 C 
ATOM      6  C   UNL     1      34.612 -16.196 -24.592  0.00  0.00    +0.173 C 
ATOM      7  C   UNL     1      33.964 -15.190 -23.639  0.00  0.00    +0.169 C 
ATOM      8  C   UNL     1      34.271 -15.533 -22.179  0.00  0.00    +0.177 C 
ATOM      9  C   UNL     1      34.191 -19.236 -22.203  0.00  0.00    +0.124 C 
ATOM     10  C   UNL     1      35.286 -19.442 -21.207  0.00  0.00    +0.103 C 
ENDROOT
BRANCH  10  11
ATOM     11  C   UNL     1      35.210 -20.482 -20.160  0.00  0.00    +0.017 C 
ATOM     12  C   UNL     1      36.357 -20.850 -19.456  0.00  0.00    +0.001 C 
ATOM     13  C   UNL     1      33.990 -21.096 -19.876  0.00  0.00    +0.001 C 
ATOM     14  C   UNL     1      36.283 -21.831 -18.469  0.00  0.00    +0.000 C 
ATOM     15  C   UNL     1      33.917 -22.078 -18.888  0.00  0.00    +0.000 C 
ATOM     16  C   UNL     1      35.065 -22.446 -18.184  0.00  0.00    +0.000 C 
ENDBRANCH  10  11
BRANCH   5  17
ATOM     17  O   UNL     1      35.019 -18.548 -24.963  0.00  0.00    -0.377 OA
ATOM     18  H   UNL     1      35.152 -19.369 -24.467  0.00  0.00    +0.211 HD
ENDBRANCH   5  17
BRANCH   6  19
ATOM     19  O   UNL     1      34.097 -15.954 -25.902  0.00  0.00    -0.379 OA
ATOM     20  H   UNL     1      33.509 -15.183 -25.881  0.00  0.00    +0.211 HD
ENDBRANCH   6  19
BRANCH   7  21
ATOM     21  O   UNL     1      34.456 -13.883 -23.927  0.00  0.00    -0.379 OA
ATOM     22  H   UNL     1      35.293 -13.953 -24.412  0.00  0.00    +0.211 HD
ENDBRANCH   7  21
BRANCH   8  23
ATOM     23  C   UNL     1      33.504 -14.630 -21.217  0.00  0.00    +0.169 C 
BRANCH  23  24
ATOM     24  O   UNL     1      32.311 -14.207 -21.853  0.00  0.00    -0.379 OA
ATOM     25  H   UNL     1      31.548 -14.469 -21.315  0.00  0.00    +0.211 HD
ENDBRANCH  23  24
ENDBRANCH   8  23
TORSDOF 6
ENDMDL
MODEL 3
REMARK VINA RESULT:      -9.2      6.185      9.457
REMARK  Name = 44263483
REMARK  6 active torsions:
REMARK  status: ('A' for Active; 'I' for Inactive)
REMARK    1  A    between atoms: C_5  and  O_17
REMARK    2  A    between atoms: C_6  and  O_19
REMARK    3  A    between atoms: C_7  and  O_21
REMARK    4  A    between atoms: C_8  and  C_23
REMARK    5  A    between atoms: C_10  and  C_11
REMARK    6  A    between atoms: C_23  and  O_24
REMARK                            x       y       z     vdW  Elec       q    Type
REMARK                         _______ _______ _______ _____ _____    ______ ____
ROOT
ATOM      1  O   UNL     1      33.899 -16.884 -21.884  0.00  0.00    -0.319 OA
ATOM      2  O   UNL     1      36.015 -17.816 -22.460  0.00  0.00    -0.354 OA
ATOM      3  N   UNL     1      36.301 -18.656 -21.358  0.00  0.00    -0.085 NA
ATOM      4  C   UNL     1      34.594 -17.853 -22.683  0.00  0.00    +0.288 C 
ATOM      5  C   UNL     1      34.276 -17.628 -24.168  0.00  0.00    +0.207 C 
ATOM      6  C   UNL     1      34.611 -16.197 -24.591  0.00  0.00    +0.173 C 
ATOM      7  C   UNL     1      33.963 -15.192 -23.639  0.00  0.00    +0.169 C 
ATOM      8  C   UNL     1      34.270 -15.534 -22.179  0.00  0.00    +0.177 C 
ATOM      9  C   UNL     1      34.190 -19.237 -22.203  0.00  0.00    +0.124 C 
ATOM     10  C   UNL     1      35.284 -19.443 -21.206  0.00  0.00    +0.103 C 
ENDROOT
BRANCH  10  11
ATOM     11  C   UNL     1      35.208 -20.483 -20.159  0.00  0.00    +0.017 C 
ATOM     12  C   UNL     1      33.991 -21.100 -19.874  0.00  0.00    +0.001 C 
ATOM     13  C   UNL     1      36.356 -20.847 -19.454  0.00  0.00    +0.001 C 
ATOM     14  C   UNL     1      33.921 -22.082 -18.886  0.00  0.00    +0.000 C 
ATOM     15  C   UNL     1      36.287 -21.828 -18.466  0.00  0.00    +0.000 C 
ATOM     16  C   UNL     1      35.068 -22.446 -18.182  0.00  0.00    +0.000 C 
ENDBRANCH  10  11
BRANCH   5  17
ATOM     17  O   UNL     1      35.019 -18.549 -24.962  0.00  0.00    -0.377 OA
ATOM     18  H   UNL     1      35.769 -18.887 -24.450  0.00  0.00    +0.211 HD
ENDBRANCH   5  17
BRANCH   6  19
ATOM     19  O   UNL     1      34.097 -15.955 -25.902  0.00  0.00    -0.379 OA
ATOM     20  H   UNL     1      33.161 -15.710 -25.841  0.00  0.00    +0.211 HD
ENDBRANCH   6  19
BRANCH   7  21
ATOM     21  O   UNL     1      34.456 -13.885 -23.927  0.00  0.00    -0.379 OA
ATOM     22  H   UNL     1      35.424 -13.908 -23.978  0.00  0.00    +0.211 HD
ENDBRANCH   7  21
BRANCH   8  23
ATOM     23  C   UNL     1      33.502 -14.632 -21.217  0.00  0.00    +0.169 C 
BRANCH  23  24
ATOM     24  O   UNL     1      32.309 -14.210 -21.852  0.00  0.00    -0.379 OA
ATOM     25  H   UNL     1      32.342 -13.251 -21.998  0.00  0.00    +0.211 HD
ENDBRANCH  23  24
ENDBRANCH   8  23
TORSDOF 6
ENDMDL
MODEL 4
REMARK VINA RESULT:      -9.0      2.272      4.195
REMARK  Name = 44263483
REMARK  6 active torsions:
REMARK  status: ('A' for Active; 'I' for Inactive)
REMARK    1  A    between atoms: C_5  and  O_17
REMARK    2  A    between atoms: C_6  and  O_19
REMARK    3  A    between atoms: C_7  and  O_21
REMARK    4  A    between atoms: C_8  and  C_23
REMARK    5  A    between atoms: C_10  and  C_11
REMARK    6  A    between atoms: C_23  and  O_24
REMARK                            x       y       z     vdW  Elec       q    Type
REMARK                         _______ _______ _______ _____ _____    ______ ____
ROOT
ATOM      1  O   UNL     1      36.773 -25.142 -15.215  0.00  0.00    -0.319 OA
ATOM      2  O   UNL     1      36.846 -22.859 -14.538  0.00  0.00    -0.354 OA
ATOM      3  N   UNL     1      36.893 -22.165 -15.769  0.00  0.00    -0.085 NA
ATOM      4  C   UNL     1      36.022 -24.023 -14.721  0.00  0.00    +0.288 C 
ATOM      5  C   UNL     1      35.326 -24.403 -13.407  0.00  0.00    +0.207 C 
ATOM      6  C   UNL     1      36.337 -24.908 -12.376  0.00  0.00    +0.173 C 
ATOM      7  C   UNL     1      37.212 -26.009 -12.978  0.00  0.00    +0.169 C 
ATOM      8  C   UNL     1      37.803 -25.573 -14.321  0.00  0.00    +0.177 C 
ATOM      9  C   UNL     1      35.038 -23.602 -15.801  0.00  0.00    +0.124 C 
ATOM     10  C   UNL     1      35.894 -22.582 -16.479  0.00  0.00    +0.103 C 
ENDROOT
BRANCH  10  11
ATOM     11  C   UNL     1      35.592 -22.079 -17.836  0.00  0.00    +0.017 C 
ATOM     12  C   UNL     1      34.317 -22.248 -18.376  0.00  0.00    +0.001 C 
ATOM     13  C   UNL     1      36.583 -21.436 -18.577  0.00  0.00    +0.001 C 
ATOM     14  C   UNL     1      34.034 -21.773 -19.656  0.00  0.00    +0.000 C 
ATOM     15  C   UNL     1      36.300 -20.961 -19.857  0.00  0.00    +0.000 C 
ATOM     16  C   UNL     1      35.025 -21.130 -20.397  0.00  0.00    +0.000 C 
ENDBRANCH  10  11
BRANCH   5  17
ATOM     17  O   UNL     1      34.635 -23.271 -12.885  0.00  0.00    -0.377 OA
ATOM     18  H   UNL     1      35.222 -22.500 -12.898  0.00  0.00    +0.211 HD
ENDBRANCH   5  17
BRANCH   6  19
ATOM     19  O   UNL     1      35.642 -25.462 -11.258  0.00  0.00    -0.379 OA
ATOM     20  H   UNL     1      36.094 -25.207 -10.438  0.00  0.00    +0.211 HD
ENDBRANCH   6  19
BRANCH   7  21
ATOM     21  O   UNL     1      38.272 -26.315 -12.076  0.00  0.00    -0.379 OA
ATOM     22  H   UNL     1      38.640 -27.186 -12.292  0.00  0.00    +0.211 HD
ENDBRANCH   7  21
BRANCH   8  23
ATOM     23  C   UNL     1      38.548 -26.717 -15.004  0.00  0.00    +0.169 C 
BRANCH  23  24
ATOM     24  O   UNL     1      39.916 -26.640 -14.645  0.00  0.00    -0.379 OA
ATOM     25  H   UNL     1      40.243 -27.527 -14.427  0.00  0.00    +0.211 HD
ENDBRANCH  23  24
ENDBRANCH   8  23
TORSDOF 6
ENDMDL
MODEL 5
REMARK VINA RESULT:      -8.7      7.307     10.551
REMARK  Name = 44263483
REMARK  6 active torsions:
REMARK  status: ('A' for Active; 'I' for Inactive)
REMARK    1  A    between atoms: C_5  and  O_17
REMARK    2  A    between atoms: C_6  and  O_19
REMARK    3  A    between atoms: C_7  and  O_21
REMARK    4  A    between atoms: C_8  and  C_23
REMARK    5  A    between atoms: C_10  and  C_11
REMARK    6  A    between atoms: C_23  and  O_24
REMARK                            x       y       z     vdW  Elec       q    Type
REMARK                         _______ _______ _______ _____ _____    ______ ____
ROOT
ATOM      1  O   UNL     1      33.236 -15.545 -22.542  0.00  0.00    -0.319 OA
ATOM      2  O   UNL     1      35.466 -16.113 -23.159  0.00  0.00    -0.354 OA
ATOM      3  N   UNL     1      35.839 -17.051 -22.168  0.00  0.00    -0.085 NA
ATOM      4  C   UNL     1      34.067 -16.299 -23.437  0.00  0.00    +0.288 C 
ATOM      5  C   UNL     1      33.750 -15.918 -24.888  0.00  0.00    +0.207 C 
ATOM      6  C   UNL     1      33.902 -14.411 -25.107  0.00  0.00    +0.173 C 
ATOM      7  C   UNL     1      33.110 -13.636 -24.054  0.00  0.00    +0.169 C 
ATOM      8  C   UNL     1      33.432 -14.132 -22.642  0.00  0.00    +0.177 C 
ATOM      9  C   UNL     1      33.840 -17.776 -23.158  0.00  0.00    +0.124 C 
ATOM     10  C   UNL     1      34.932 -17.974 -22.158  0.00  0.00    +0.103 C 
ENDROOT
BRANCH  10  11
ATOM     11  C   UNL     1      34.974 -19.148 -21.262  0.00  0.00    +0.017 C 
ATOM     12  C   UNL     1      36.198 -19.630 -20.797  0.00  0.00    +0.001 C 
ATOM     13  C   UNL     1      33.788 -19.776 -20.881  0.00  0.00    +0.001 C 
ATOM     14  C   UNL     1      36.235 -20.737 -19.950  0.00  0.00    +0.000 C 
ATOM     15  C   UNL     1      33.825 -20.883 -20.034  0.00  0.00    +0.000 C 
ATOM     16  C   UNL     1      35.050 -21.364 -19.569  0.00  0.00    +0.000 C 
ENDBRANCH  10  11
BRANCH   5  17
ATOM     17  O   UNL     1      34.622 -16.619 -25.770  0.00  0.00    -0.377 OA
ATOM     18  H   UNL     1      35.312 -17.065 -25.256  0.00  0.00    +0.211 HD
ENDBRANCH   5  17
BRANCH   6  19
ATOM     19  O   UNL     1      33.386 -14.061 -26.391  0.00  0.00    -0.379 OA
ATOM     20  H   UNL     1      34.120 -13.832 -26.983  0.00  0.00    +0.211 HD
ENDBRANCH   6  19
BRANCH   7  21
ATOM     21  O   UNL     1      33.432 -12.250 -24.148  0.00  0.00    -0.379 OA
ATOM     22  H   UNL     1      33.597 -11.895 -23.261  0.00  0.00    +0.211 HD
ENDBRANCH   7  21
BRANCH   8  23
ATOM     23  C   UNL     1      32.534 -13.474 -21.598  0.00  0.00    +0.169 C 
BRANCH  23  24
ATOM     24  O   UNL     1      31.514 -12.756 -22.269  0.00  0.00    -0.379 OA
ATOM     25  H   UNL     1      31.412 -11.882 -21.862  0.00  0.00    +0.211 HD
ENDBRANCH  23  24
ENDBRANCH   8  23
TORSDOF 6
ENDMDL
MODEL 6
REMARK VINA RESULT:      -8.6      4.048      5.827
REMARK  Name = 44263483
REMARK  6 active torsions:
REMARK  status: ('A' for Active; 'I' for Inactive)
REMARK    1  A    between atoms: C_5  and  O_17
REMARK    2  A    between atoms: C_6  and  O_19
REMARK    3  A    between atoms: C_7  and  O_21
REMARK    4  A    between atoms: C_8  and  C_23
REMARK    5  A    between atoms: C_10  and  C_11
REMARK    6  A    between atoms: C_23  and  O_24
REMARK                            x       y       z     vdW  Elec       q    Type
REMARK                         _______ _______ _______ _____ _____    ______ ____
ROOT
ATOM      1  O   UNL     1      36.092 -25.449 -14.024  0.00  0.00    -0.319 OA
ATOM      2  O   UNL     1      35.720 -23.147 -14.515  0.00  0.00    -0.354 OA
ATOM      3  N   UNL     1      34.469 -23.161 -15.174  0.00  0.00    -0.085 NA
ATOM      4  C   UNL     1      35.698 -24.170 -13.504  0.00  0.00    +0.288 C 
ATOM      5  C   UNL     1      36.603 -23.784 -12.327  0.00  0.00    +0.207 C 
ATOM      6  C   UNL     1      38.076 -23.800 -12.738  0.00  0.00    +0.173 C 
ATOM      7  C   UNL     1      38.430 -25.128 -13.410  0.00  0.00    +0.169 C 
ATOM      8  C   UNL     1      37.433 -25.470 -14.520  0.00  0.00    +0.177 C 
ATOM      9  C   UNL     1      34.232 -24.253 -13.110  0.00  0.00    +0.124 C 
ATOM     10  C   UNL     1      33.639 -23.784 -14.399  0.00  0.00    +0.103 C 
ENDROOT
BRANCH  10  11
ATOM     11  C   UNL     1      32.215 -23.995 -14.733  0.00  0.00    +0.017 C 
ATOM     12  C   UNL     1      31.489 -25.000 -14.095  0.00  0.00    +0.001 C 
ATOM     13  C   UNL     1      31.597 -23.188 -15.689  0.00  0.00    +0.001 C 
ATOM     14  C   UNL     1      30.145 -25.198 -14.410  0.00  0.00    +0.000 C 
ATOM     15  C   UNL     1      30.253 -23.386 -16.004  0.00  0.00    +0.000 C 
ATOM     16  C   UNL     1      29.527 -24.392 -15.365  0.00  0.00    +0.000 C 
ENDBRANCH  10  11
BRANCH   5  17
ATOM     17  O   UNL     1      36.252 -22.486 -11.856  0.00  0.00    -0.377 OA
ATOM     18  H   UNL     1      35.862 -22.558 -10.971  0.00  0.00    +0.211 HD
ENDBRANCH   5  17
BRANCH   6  19
ATOM     19  O   UNL     1      38.897 -23.663 -11.577  0.00  0.00    -0.379 OA
ATOM     20  H   UNL     1      39.762 -24.069 -11.744  0.00  0.00    +0.211 HD
ENDBRANCH   6  19
BRANCH   7  21
ATOM     21  O   UNL     1      39.740 -25.040 -13.967  0.00  0.00    -0.379 OA
ATOM     22  H   UNL     1      40.349 -25.588 -13.449  0.00  0.00    +0.211 HD
ENDBRANCH   7  21
BRANCH   8  23
ATOM     23  C   UNL     1      37.685 -26.863 -15.091  0.00  0.00    +0.169 C 
BRANCH  23  24
ATOM     24  O   UNL     1      36.776 -27.084 -16.154  0.00  0.00    -0.379 OA
ATOM     25  H   UNL     1      36.428 -27.988 -16.099  0.00  0.00    +0.211 HD
ENDBRANCH  23  24
ENDBRANCH   8  23
TORSDOF 6
ENDMDL
MODEL 7
REMARK VINA RESULT:      -8.2      1.805      2.499
REMARK  Name = 44263483
REMARK  6 active torsions:
REMARK  status: ('A' for Active; 'I' for Inactive)
REMARK    1  A    between atoms: C_5  and  O_17
REMARK    2  A    between atoms: C_6  and  O_19
REMARK    3  A    between atoms: C_7  and  O_21
REMARK    4  A    between atoms: C_8  and  C_23
REMARK    5  A    between atoms: C_10  and  C_11
REMARK    6  A    between atoms: C_23  and  O_24
REMARK                            x       y       z     vdW  Elec       q    Type
REMARK                         _______ _______ _______ _____ _____    ______ ____
ROOT
ATOM      1  O   UNL     1      31.715 -22.741 -16.012  0.00  0.00    -0.319 OA
ATOM      2  O   UNL     1      32.961 -24.458 -17.096  0.00  0.00    -0.354 OA
ATOM      3  N   UNL     1      33.381 -23.836 -18.295  0.00  0.00    -0.085 NA
ATOM      4  C   UNL     1      32.956 -23.460 -16.061  0.00  0.00    +0.288 C 
ATOM      5  C   UNL     1      33.242 -24.099 -14.695  0.00  0.00    +0.207 C 
ATOM      6  C   UNL     1      32.084 -24.996 -14.255  0.00  0.00    +0.173 C 
ATOM      7  C   UNL     1      30.758 -24.238 -14.342  0.00  0.00    +0.169 C 
ATOM      8  C   UNL     1      30.590 -23.571 -15.709  0.00  0.00    +0.177 C 
ATOM      9  C   UNL     1      34.046 -22.491 -16.491  0.00  0.00    +0.124 C 
ATOM     10  C   UNL     1      33.977 -22.736 -17.963  0.00  0.00    +0.103 C 
ENDROOT
BRANCH  10  11
ATOM     11  C   UNL     1      34.574 -21.804 -18.944  0.00  0.00    +0.017 C 
ATOM     12  C   UNL     1      33.752 -21.040 -19.771  0.00  0.00    +0.001 C 
ATOM     13  C   UNL     1      35.961 -21.691 -19.042  0.00  0.00    +0.001 C 
ATOM     14  C   UNL     1      34.316 -20.161 -20.695  0.00  0.00    +0.000 C 
ATOM     15  C   UNL     1      36.525 -20.812 -19.966  0.00  0.00    +0.000 C 
ATOM     16  C   UNL     1      35.702 -20.047 -20.793  0.00  0.00    +0.000 C 
ENDBRANCH  10  11
BRANCH   5  17
ATOM     17  O   UNL     1      34.441 -24.866 -14.766  0.00  0.00    -0.377 OA
ATOM     18  H   UNL     1      35.030 -24.485 -15.434  0.00  0.00    +0.211 HD
ENDBRANCH   5  17
BRANCH   6  19
ATOM     19  O   UNL     1      32.276 -25.390 -12.895  0.00  0.00    -0.379 OA
ATOM     20  H   UNL     1      31.534 -25.948 -12.613  0.00  0.00    +0.211 HD
ENDBRANCH   6  19
BRANCH   7  21
ATOM     21  O   UNL     1      29.681 -25.148 -14.129  0.00  0.00    -0.379 OA
ATOM     22  H   UNL     1      29.813 -25.615 -13.290  0.00  0.00    +0.211 HD
ENDBRANCH   7  21
BRANCH   8  23
ATOM     23  C   UNL     1      29.347 -22.686 -15.753  0.00  0.00    +0.169 C 
BRANCH  23  24
ATOM     24  O   UNL     1      29.023 -22.433 -17.108  0.00  0.00    -0.379 OA
ATOM     25  H   UNL     1      29.767 -22.696 -17.673  0.00  0.00    +0.211 HD
ENDBRANCH  23  24
ENDBRANCH   8  23
TORSDOF 6
ENDMDL
MODEL 8
REMARK VINA RESULT:      -7.9      4.817      7.139
REMARK  Name = 44263483
REMARK  6 active torsions:
REMARK  status: ('A' for Active; 'I' for Inactive)
REMARK    1  A    between atoms: C_5  and  O_17
REMARK    2  A    between atoms: C_6  and  O_19
REMARK    3  A    between atoms: C_7  and  O_21
REMARK    4  A    between atoms: C_8  and  C_23
REMARK    5  A    between atoms: C_10  and  C_11
REMARK    6  A    between atoms: C_23  and  O_24
REMARK                            x       y       z     vdW  Elec       q    Type
REMARK                         _______ _______ _______ _____ _____    ______ ____
ROOT
ATOM      1  O   UNL     1      34.039 -19.016 -20.961  0.00  0.00    -0.319 OA
ATOM      2  O   UNL     1      35.390 -19.331 -22.899  0.00  0.00    -0.354 OA
ATOM      3  N   UNL     1      34.826 -18.427 -23.829  0.00  0.00    -0.085 NA
ATOM      4  C   UNL     1      35.297 -18.735 -21.593  0.00  0.00    +0.288 C 
ATOM      5  C   UNL     1      36.448 -19.215 -20.699  0.00  0.00    +0.207 C 
ATOM      6  C   UNL     1      36.300 -20.700 -20.363  0.00  0.00    +0.173 C 
ATOM      7  C   UNL     1      34.901 -20.988 -19.816  0.00  0.00    +0.169 C 
ATOM      8  C   UNL     1      33.819 -20.410 -20.731  0.00  0.00    +0.177 C 
ATOM      9  C   UNL     1      35.361 -17.242 -21.875  0.00  0.00    +0.124 C 
ATOM     10  C   UNL     1      34.800 -17.264 -23.260  0.00  0.00    +0.103 C 
ENDROOT
BRANCH  10  11
ATOM     11  C   UNL     1      34.290 -16.045 -23.921  0.00  0.00    +0.017 C 
ATOM     12  C   UNL     1      34.312 -14.823 -23.248  0.00  0.00    +0.001 C 
ATOM     13  C   UNL     1      33.784 -16.116 -25.219  0.00  0.00    +0.001 C 
ATOM     14  C   UNL     1      33.831 -13.674 -23.873  0.00  0.00    +0.000 C 
ATOM     15  C   UNL     1      33.303 -14.967 -25.844  0.00  0.00    +0.000 C 
ATOM     16  C   UNL     1      33.326 -13.744 -25.171  0.00  0.00    +0.000 C 
ENDBRANCH  10  11
BRANCH   5  17
ATOM     17  O   UNL     1      37.692 -18.995 -21.358  0.00  0.00    -0.377 OA
ATOM     18  H   UNL     1      37.682 -19.433 -22.222  0.00  0.00    +0.211 HD
ENDBRANCH   5  17
BRANCH   6  19
ATOM     19  O   UNL     1      37.248 -21.058 -19.356  0.00  0.00    -0.379 OA
ATOM     20  H   UNL     1      36.778 -21.371 -18.567  0.00  0.00    +0.211 HD
ENDBRANCH   6  19
BRANCH   7  21
ATOM     21  O   UNL     1      34.719 -22.398 -19.708  0.00  0.00    -0.379 OA
ATOM     22  H   UNL     1      34.836 -22.807 -20.578  0.00  0.00    +0.211 HD
ENDBRANCH   7  21
BRANCH   8  23
ATOM     23  C   UNL     1      32.429 -20.555 -20.117  0.00  0.00    +0.169 C 
BRANCH  23  24
ATOM     24  O   UNL     1      32.538 -21.324 -18.934  0.00  0.00    -0.379 OA
ATOM     25  H   UNL     1      31.742 -21.201 -18.393  0.00  0.00    +0.211 HD
ENDBRANCH  23  24
ENDBRANCH   8  23
TORSDOF 6
ENDMDL
MODEL 9
REMARK VINA RESULT:      -7.8     13.216     16.150
REMARK  Name = 44263483
REMARK  6 active torsions:
REMARK  status: ('A' for Active; 'I' for Inactive)
REMARK    1  A    between atoms: C_5  and  O_17
REMARK    2  A    between atoms: C_6  and  O_19
REMARK    3  A    between atoms: C_7  and  O_21
REMARK    4  A    between atoms: C_8  and  C_23
REMARK    5  A    between atoms: C_10  and  C_11
REMARK    6  A    between atoms: C_23  and  O_24
REMARK                            x       y       z     vdW  Elec       q    Type
REMARK                         _______ _______ _______ _____ _____    ______ ____
ROOT
ATOM      1  O   UNL     1      32.868  -9.930 -24.286  0.00  0.00    -0.319 OA
ATOM      2  O   UNL     1      33.100  -9.005 -22.103  0.00  0.00    -0.354 OA
ATOM      3  N   UNL     1      33.201  -7.617 -22.356  0.00  0.00    -0.085 NA
ATOM      4  C   UNL     1      32.196  -9.564 -23.071  0.00  0.00    +0.288 C 
ATOM      5  C   UNL     1      31.470 -10.784 -22.490  0.00  0.00    +0.207 C 
ATOM      6  C   UNL     1      32.438 -11.949 -22.274  0.00  0.00    +0.173 C 
ATOM      7  C   UNL     1      33.234 -12.226 -23.550  0.00  0.00    +0.169 C 
ATOM      8  C   UNL     1      33.861 -10.943 -24.101  0.00  0.00    +0.177 C 
ATOM      9  C   UNL     1      31.249  -8.416 -23.384  0.00  0.00    +0.124 C 
ATOM     10  C   UNL     1      32.177  -7.287 -23.076  0.00  0.00    +0.103 C 
ENDROOT
BRANCH  10  11
ATOM     11  C   UNL     1      31.917  -5.907 -23.539  0.00  0.00    +0.017 C 
ATOM     12  C   UNL     1      31.433  -4.951 -22.647  0.00  0.00    +0.001 C 
ATOM     13  C   UNL     1      32.155  -5.563 -24.869  0.00  0.00    +0.001 C 
ATOM     14  C   UNL     1      31.188  -3.650 -23.085  0.00  0.00    +0.000 C 
ATOM     15  C   UNL     1      31.911  -4.262 -25.307  0.00  0.00    +0.000 C 
ATOM     16  C   UNL     1      31.427  -3.304 -24.415  0.00  0.00    +0.000 C 
ENDBRANCH  10  11
BRANCH   5  17
ATOM     17  O   UNL     1      30.859 -10.434 -21.251  0.00  0.00    -0.377 OA
ATOM     18  H   UNL     1      31.410 -10.749 -20.518  0.00  0.00    +0.211 HD
ENDBRANCH   5  17
BRANCH   6  19
ATOM     19  O   UNL     1      31.701 -13.129 -21.951  0.00  0.00    -0.379 OA
ATOM     20  H   UNL     1      31.757 -13.293 -20.996  0.00  0.00    +0.211 HD
ENDBRANCH   6  19
BRANCH   7  21
ATOM     21  O   UNL     1      34.267 -13.167 -23.266  0.00  0.00    -0.379 OA
ATOM     22  H   UNL     1      34.205 -13.445 -22.339  0.00  0.00    +0.211 HD
ENDBRANCH   7  21
BRANCH   8  23
ATOM     23  C   UNL     1      34.525 -11.179 -25.455  0.00  0.00    +0.169 C 
BRANCH  23  24
ATOM     24  O   UNL     1      35.724 -10.428 -25.505  0.00  0.00    -0.379 OA
ATOM     25  H   UNL     1      35.588  -9.637 -26.049  0.00  0.00    +0.211 HD
ENDBRANCH  23  24
ENDBRANCH   8  23
TORSDOF 6
ENDMDL
