MODEL 1
REMARK VINA RESULT:     -10.5      0.000      0.000
REMARK  Name = 46937094
REMARK  6 active torsions:
REMARK  status: ('A' for Active; 'I' for Inactive)
REMARK    1  A    between atoms: C_3  and  C_10
REMARK    2  A    between atoms: C_7  and  C_22
REMARK    3  A    between atoms: N_9  and  C_12
REMARK    4  A    between atoms: C_22  and  N_25
REMARK    5  A    between atoms: C_26  and  C_28
REMARK    6  A    between atoms: C_28  and  N_29
REMARK                            x       y       z     vdW  Elec       q    Type
REMARK                         _______ _______ _______ _____ _____    ______ ____
ROOT
ATOM      1  O   UNL     1      31.269  -9.547 -22.720  0.00  0.00    -0.273 OA
ATOM      2  N   UNL     1      33.370  -9.735 -23.672  0.00  0.00    -0.272 N 
ATOM      3  C   UNL     1      33.107 -10.960 -24.416  0.00  0.00    +0.152 C 
ATOM      4  C   UNL     1      34.254 -11.062 -25.414  0.00  0.00    +0.031 C 
ATOM      5  C   UNL     1      35.405 -10.352 -24.704  0.00  0.00    +0.024 C 
ATOM      6  C   UNL     1      34.711  -9.228 -23.951  0.00  0.00    +0.094 C 
ATOM      7  C   UNL     1      32.392  -9.086 -22.934  0.00  0.00    +0.244 C 
ENDROOT
BRANCH   3  10
ATOM      8  O   UNL     1      32.450 -12.039 -22.406  0.00  0.00    -0.273 OA
ATOM      9  N   UNL     1      33.972 -13.106 -23.848  0.00  0.00    -0.283 N 
ATOM     10  C   UNL     1      33.125 -12.089 -23.429  0.00  0.00    +0.244 C 
ATOM     11  H   UNL     1      34.435 -12.962 -24.704  0.00  0.00    +0.155 HD
BRANCH   9  12
ATOM     12  C   UNL     1      34.249 -14.325 -23.185  0.00  0.00    +0.050 C 
ATOM     13  C   UNL     1      34.385 -15.503 -23.919  0.00  0.00    +0.015 C 
ATOM     14  C   UNL     1      34.384 -14.347 -21.799  0.00  0.00    +0.015 C 
ATOM     15  C   UNL     1      34.659 -16.721 -23.274  0.00  0.00    +0.001 C 
ATOM     16  C   UNL     1      34.798 -16.743 -21.866  0.00  0.00    +0.000 C 
ATOM     17  C   UNL     1      34.657 -15.547 -21.143  0.00  0.00    +0.001 C 
ATOM     18  C   UNL     1      34.800 -17.917 -23.997  0.00  0.00    +0.000 C 
ATOM     19  C   UNL     1      35.072 -17.961 -21.222  0.00  0.00    +0.000 C 
ATOM     20  C   UNL     1      35.073 -19.117 -23.341  0.00  0.00    +0.000 C 
ATOM     21  C   UNL     1      35.208 -19.139 -21.956  0.00  0.00    +0.000 C 
ENDBRANCH   9  12
ENDBRANCH   3  10
BRANCH   7  22
ATOM     22  C   UNL     1      32.785  -7.743 -22.374  0.00  0.00    +0.149 C 
ATOM     23  C   UNL     1      32.681  -7.742 -20.867  0.00  0.00    +0.031 C 
BRANCH  22  25
ATOM     24  O   UNL     1      33.239  -6.133 -24.735  0.00  0.00    -0.277 OA
ATOM     25  N   UNL     1      31.874  -6.822 -22.983  0.00  0.00    -0.300 N 
ATOM     26  C   UNL     1      32.172  -6.081 -24.126  0.00  0.00    +0.201 C 
ATOM     27  H   UNL     1      30.987  -6.705 -22.572  0.00  0.00    +0.150 HD
BRANCH  26  28
ATOM     28  C   UNL     1      31.034  -5.164 -24.532  0.00  0.00    +0.001 C 
BRANCH  28  29
ATOM     29  N   UNL     1      30.671  -4.339 -23.390  0.00  0.00    +0.386 N 
ATOM     30  H   UNL     1      31.390  -3.630 -23.239  0.00  0.00    -0.089 HD
ATOM     31  H   UNL     1      30.591  -4.924 -22.558  0.00  0.00    -0.089 HD
ATOM     32  H   UNL     1      29.777  -3.881 -23.571  0.00  0.00    -0.089 HD
ENDBRANCH  28  29
ENDBRANCH  26  28
ENDBRANCH  22  25
ENDBRANCH   7  22
TORSDOF 6
ENDMDL
MODEL 2
REMARK VINA RESULT:     -10.3      4.348     10.329
REMARK  Name = 46937094
REMARK  6 active torsions:
REMARK  status: ('A' for Active; 'I' for Inactive)
REMARK    1  A    between atoms: C_3  and  C_10
REMARK    2  A    between atoms: C_7  and  C_22
REMARK    3  A    between atoms: N_9  and  C_12
REMARK    4  A    between atoms: C_22  and  N_25
REMARK    5  A    between atoms: C_26  and  C_28
REMARK    6  A    between atoms: C_28  and  N_29
REMARK                            x       y       z     vdW  Elec       q    Type
REMARK                         _______ _______ _______ _____ _____    ______ ____
ROOT
ATOM      1  O   UNL     1      35.700 -17.901 -20.425  0.00  0.00    -0.273 OA
ATOM      2  N   UNL     1      34.917 -18.275 -22.571  0.00  0.00    -0.272 N 
ATOM      3  C   UNL     1      35.257 -16.961 -23.103  0.00  0.00    +0.152 C 
ATOM      4  C   UNL     1      35.160 -17.120 -24.616  0.00  0.00    +0.031 C 
ATOM      5  C   UNL     1      34.110 -18.214 -24.791  0.00  0.00    +0.024 C 
ATOM      6  C   UNL     1      34.369 -19.140 -23.613  0.00  0.00    +0.094 C 
ATOM      7  C   UNL     1      35.238 -18.661 -21.278  0.00  0.00    +0.244 C 
ENDROOT
BRANCH   3  10
ATOM      8  O   UNL     1      33.423 -16.341 -21.729  0.00  0.00    -0.273 OA
ATOM      9  N   UNL     1      34.371 -14.750 -23.180  0.00  0.00    -0.283 N 
ATOM     10  C   UNL     1      34.237 -15.995 -22.578  0.00  0.00    +0.244 C 
ATOM     11  H   UNL     1      35.088 -14.665 -23.848  0.00  0.00    +0.155 HD
BRANCH   9  12
ATOM     12  C   UNL     1      33.594 -13.592 -22.944  0.00  0.00    +0.050 C 
ATOM     13  C   UNL     1      33.881 -12.409 -23.625  0.00  0.00    +0.015 C 
ATOM     14  C   UNL     1      32.542 -13.634 -22.033  0.00  0.00    +0.015 C 
ATOM     15  C   UNL     1      33.119 -11.250 -23.402  0.00  0.00    +0.001 C 
ATOM     16  C   UNL     1      32.049 -11.293 -22.476  0.00  0.00    +0.000 C 
ATOM     17  C   UNL     1      31.775 -12.492 -21.799  0.00  0.00    +0.001 C 
ATOM     18  C   UNL     1      33.394 -10.051 -24.078  0.00  0.00    +0.000 C 
ATOM     19  C   UNL     1      31.287 -10.134 -22.253  0.00  0.00    +0.000 C 
ATOM     20  C   UNL     1      32.627  -8.909 -23.846  0.00  0.00    +0.000 C 
ATOM     21  C   UNL     1      31.575  -8.951 -22.934  0.00  0.00    +0.000 C 
ENDBRANCH   9  12
ENDBRANCH   3  10
BRANCH   7  22
ATOM     22  C   UNL     1      34.974 -20.108 -20.948  0.00  0.00    +0.149 C 
ATOM     23  C   UNL     1      33.514 -20.324 -20.625  0.00  0.00    +0.031 C 
BRANCH  22  25
ATOM     24  O   UNL     1      35.137 -22.563 -19.425  0.00  0.00    -0.277 OA
ATOM     25  N   UNL     1      35.825 -20.379 -19.830  0.00  0.00    -0.300 N 
ATOM     26  C   UNL     1      35.843 -21.595 -19.147  0.00  0.00    +0.201 C 
ATOM     27  H   UNL     1      36.434 -19.667 -19.525  0.00  0.00    +0.150 HD
BRANCH  26  28
ATOM     28  C   UNL     1      36.819 -21.591 -17.987  0.00  0.00    +0.001 C 
BRANCH  28  29
ATOM     29  N   UNL     1      36.237 -22.341 -16.884  0.00  0.00    +0.386 N 
ATOM     30  H   UNL     1      35.686 -23.117 -17.254  0.00  0.00    -0.089 HD
ATOM     31  H   UNL     1      35.633 -21.728 -16.336  0.00  0.00    -0.089 HD
ATOM     32  H   UNL     1      36.981 -22.707 -16.290  0.00  0.00    -0.089 HD
ENDBRANCH  28  29
ENDBRANCH  26  28
ENDBRANCH  22  25
ENDBRANCH   7  22
TORSDOF 6
ENDMDL
MODEL 3
REMARK VINA RESULT:     -10.1     10.174     14.801
REMARK  Name = 46937094
REMARK  6 active torsions:
REMARK  status: ('A' for Active; 'I' for Inactive)
REMARK    1  A    between atoms: C_3  and  C_10
REMARK    2  A    between atoms: C_7  and  C_22
REMARK    3  A    between atoms: N_9  and  C_12
REMARK    4  A    between atoms: C_22  and  N_25
REMARK    5  A    between atoms: C_26  and  C_28
REMARK    6  A    between atoms: C_28  and  N_29
REMARK                            x       y       z     vdW  Elec       q    Type
REMARK                         _______ _______ _______ _____ _____    ______ ____
ROOT
ATOM      1  O   UNL     1      35.230 -23.951 -16.538  0.00  0.00    -0.273 OA
ATOM      2  N   UNL     1      33.315 -23.657 -15.272  0.00  0.00    -0.272 N 
ATOM      3  C   UNL     1      32.368 -24.037 -16.312  0.00  0.00    +0.152 C 
ATOM      4  C   UNL     1      31.055 -24.269 -15.574  0.00  0.00    +0.031 C 
ATOM      5  C   UNL     1      31.154 -23.335 -14.370  0.00  0.00    +0.024 C 
ATOM      6  C   UNL     1      32.631 -23.384 -14.011  0.00  0.00    +0.094 C 
ATOM      7  C   UNL     1      34.688 -23.717 -15.456  0.00  0.00    +0.244 C 
ENDROOT
BRANCH   3  10
ATOM      8  O   UNL     1      31.252 -22.210 -17.338  0.00  0.00    -0.273 OA
ATOM      9  N   UNL     1      33.450 -22.737 -17.990  0.00  0.00    -0.283 N 
ATOM     10  C   UNL     1      32.274 -22.884 -17.266  0.00  0.00    +0.244 C 
ATOM     11  H   UNL     1      34.166 -23.382 -17.794  0.00  0.00    +0.155 HD
BRANCH   9  12
ATOM     12  C   UNL     1      33.737 -21.767 -18.980  0.00  0.00    +0.050 C 
ATOM     13  C   UNL     1      35.056 -21.382 -19.218  0.00  0.00    +0.015 C 
ATOM     14  C   UNL     1      32.700 -21.197 -19.715  0.00  0.00    +0.015 C 
ATOM     15  C   UNL     1      35.356 -20.420 -20.196  0.00  0.00    +0.001 C 
ATOM     16  C   UNL     1      34.304 -19.842 -20.945  0.00  0.00    +0.000 C 
ATOM     17  C   UNL     1      32.981 -20.240 -20.691  0.00  0.00    +0.001 C 
ATOM     18  C   UNL     1      36.678 -20.021 -20.450  0.00  0.00    +0.000 C 
ATOM     19  C   UNL     1      34.604 -18.880 -21.923  0.00  0.00    +0.000 C 
ATOM     20  C   UNL     1      36.960 -19.065 -21.426  0.00  0.00    +0.000 C 
ATOM     21  C   UNL     1      35.923 -18.496 -22.161  0.00  0.00    +0.000 C 
ENDBRANCH   9  12
ENDBRANCH   3  10
BRANCH   7  22
ATOM     22  C   UNL     1      35.521 -23.459 -14.227  0.00  0.00    +0.149 C 
ATOM     23  C   UNL     1      36.563 -22.401 -14.499  0.00  0.00    +0.031 C 
BRANCH  22  25
ATOM     24  O   UNL     1      36.664 -24.297 -11.703  0.00  0.00    -0.277 OA
ATOM     25  N   UNL     1      36.102 -24.730 -13.917  0.00  0.00    -0.300 N 
ATOM     26  C   UNL     1      36.634 -25.056 -12.670  0.00  0.00    +0.201 C 
ATOM     27  H   UNL     1      36.128 -25.414 -14.626  0.00  0.00    +0.150 HD
BRANCH  26  28
ATOM     28  C   UNL     1      37.210 -26.458 -12.637  0.00  0.00    +0.001 C 
BRANCH  28  29
ATOM     29  N   UNL     1      37.555 -26.853 -13.994  0.00  0.00    +0.386 N 
ATOM     30  H   UNL     1      37.086 -27.731 -14.222  0.00  0.00    -0.089 HD
ATOM     31  H   UNL     1      38.564 -26.980 -14.066  0.00  0.00    -0.089 HD
ATOM     32  H   UNL     1      37.255 -26.129 -14.647  0.00  0.00    -0.089 HD
ENDBRANCH  28  29
ENDBRANCH  26  28
ENDBRANCH  22  25
ENDBRANCH   7  22
TORSDOF 6
ENDMDL
MODEL 4
REMARK VINA RESULT:      -9.9      4.457     10.320
REMARK  Name = 46937094
REMARK  6 active torsions:
REMARK  status: ('A' for Active; 'I' for Inactive)
REMARK    1  A    between atoms: C_3  and  C_10
REMARK    2  A    between atoms: C_7  and  C_22
REMARK    3  A    between atoms: N_9  and  C_12
REMARK    4  A    between atoms: C_22  and  N_25
REMARK    5  A    between atoms: C_26  and  C_28
REMARK    6  A    between atoms: C_28  and  N_29
REMARK                            x       y       z     vdW  Elec       q    Type
REMARK                         _______ _______ _______ _____ _____    ______ ____
ROOT
ATOM      1  O   UNL     1      35.701 -17.989 -20.471  0.00  0.00    -0.273 OA
ATOM      2  N   UNL     1      34.878 -18.446 -22.584  0.00  0.00    -0.272 N 
ATOM      3  C   UNL     1      35.298 -17.195 -23.202  0.00  0.00    +0.152 C 
ATOM      4  C   UNL     1      35.179 -17.443 -24.700  0.00  0.00    +0.031 C 
ATOM      5  C   UNL     1      34.059 -18.475 -24.801  0.00  0.00    +0.024 C 
ATOM      6  C   UNL     1      34.265 -19.338 -23.567  0.00  0.00    +0.094 C 
ATOM      7  C   UNL     1      35.183 -18.769 -21.271  0.00  0.00    +0.244 C 
ENDROOT
BRANCH   3  10
ATOM      8  O   UNL     1      33.499 -16.377 -21.886  0.00  0.00    -0.273 OA
ATOM      9  N   UNL     1      34.586 -14.928 -23.387  0.00  0.00    -0.283 N 
ATOM     10  C   UNL     1      34.349 -16.132 -22.735  0.00  0.00    +0.244 C 
ATOM     11  H   UNL     1      35.318 -14.927 -24.046  0.00  0.00    +0.155 HD
BRANCH   9  12
ATOM     12  C   UNL     1      33.897 -13.705 -23.214  0.00  0.00    +0.050 C 
ATOM     13  C   UNL     1      33.099 -13.506 -22.088  0.00  0.00    +0.015 C 
ATOM     14  C   UNL     1      34.017 -12.699 -24.170  0.00  0.00    +0.015 C 
ATOM     15  C   UNL     1      32.408 -12.297 -21.903  0.00  0.00    +0.001 C 
ATOM     16  C   UNL     1      32.531 -11.274 -22.874  0.00  0.00    +0.000 C 
ATOM     17  C   UNL     1      33.339 -11.492 -24.002  0.00  0.00    +0.001 C 
ATOM     18  C   UNL     1      31.601 -12.079 -20.776  0.00  0.00    +0.000 C 
ATOM     19  C   UNL     1      31.840 -10.065 -22.689  0.00  0.00    +0.000 C 
ATOM     20  C   UNL     1      30.922 -10.873 -20.607  0.00  0.00    +0.000 C 
ATOM     21  C   UNL     1      31.042  -9.867 -21.563  0.00  0.00    +0.000 C 
ENDBRANCH   9  12
ENDBRANCH   3  10
BRANCH   7  22
ATOM     22  C   UNL     1      34.827 -20.172 -20.848  0.00  0.00    +0.149 C 
ATOM     23  C   UNL     1      33.373 -20.257 -20.448  0.00  0.00    +0.031 C 
BRANCH  22  25
ATOM     24  O   UNL     1      35.118 -22.672 -19.420  0.00  0.00    -0.277 OA
ATOM     25  N   UNL     1      35.710 -20.448 -19.755  0.00  0.00    -0.300 N 
ATOM     26  C   UNL     1      35.789 -21.687 -19.118  0.00  0.00    +0.201 C 
ATOM     27  H   UNL     1      36.294 -19.723 -19.434  0.00  0.00    +0.150 HD
BRANCH  26  28
ATOM     28  C   UNL     1      36.785 -21.685 -17.976  0.00  0.00    +0.001 C 
BRANCH  28  29
ATOM     29  N   UNL     1      36.183 -22.352 -16.830  0.00  0.00    +0.386 N 
ATOM     30  H   UNL     1      36.244 -21.744 -16.012  0.00  0.00    -0.089 HD
ATOM     31  H   UNL     1      36.680 -23.222 -16.643  0.00  0.00    -0.089 HD
ATOM     32  H   UNL     1      35.204 -22.555 -17.030  0.00  0.00    -0.089 HD
ENDBRANCH  28  29
ENDBRANCH  26  28
ENDBRANCH  22  25
ENDBRANCH   7  22
TORSDOF 6
ENDMDL
MODEL 5
REMARK VINA RESULT:      -9.5      7.622     12.944
REMARK  Name = 46937094
REMARK  6 active torsions:
REMARK  status: ('A' for Active; 'I' for Inactive)
REMARK    1  A    between atoms: C_3  and  C_10
REMARK    2  A    between atoms: C_7  and  C_22
REMARK    3  A    between atoms: N_9  and  C_12
REMARK    4  A    between atoms: C_22  and  N_25
REMARK    5  A    between atoms: C_26  and  C_28
REMARK    6  A    between atoms: C_28  and  N_29
REMARK                            x       y       z     vdW  Elec       q    Type
REMARK                         _______ _______ _______ _____ _____    ______ ____
ROOT
ATOM      1  O   UNL     1      37.127 -21.332 -18.933  0.00  0.00    -0.273 OA
ATOM      2  N   UNL     1      35.167 -22.242 -18.106  0.00  0.00    -0.272 N 
ATOM      3  C   UNL     1      34.548 -22.506 -19.398  0.00  0.00    +0.152 C 
ATOM      4  C   UNL     1      33.393 -23.451 -19.088  0.00  0.00    +0.031 C 
ATOM      5  C   UNL     1      33.001 -23.075 -17.661  0.00  0.00    +0.024 C 
ATOM      6  C   UNL     1      34.332 -22.730 -17.011  0.00  0.00    +0.094 C 
ATOM      7  C   UNL     1      36.452 -21.736 -17.985  0.00  0.00    +0.244 C 
ENDROOT
BRANCH   3  10
ATOM      8  O   UNL     1      32.985 -20.729 -19.579  0.00  0.00    -0.273 OA
ATOM      9  N   UNL     1      34.978 -20.648 -20.826  0.00  0.00    -0.283 N 
ATOM     10  C   UNL     1      34.064 -21.192 -19.933  0.00  0.00    +0.244 C 
ATOM     11  H   UNL     1      35.794 -21.173 -20.988  0.00  0.00    +0.155 HD
BRANCH   9  12
ATOM     12  C   UNL     1      34.871 -19.426 -21.531  0.00  0.00    +0.050 C 
ATOM     13  C   UNL     1      34.750 -18.225 -20.832  0.00  0.00    +0.015 C 
ATOM     14  C   UNL     1      34.888 -19.424 -22.923  0.00  0.00    +0.015 C 
ATOM     15  C   UNL     1      34.642 -17.004 -21.518  0.00  0.00    +0.001 C 
ATOM     16  C   UNL     1      34.660 -17.001 -22.933  0.00  0.00    +0.000 C 
ATOM     17  C   UNL     1      34.782 -18.220 -23.621  0.00  0.00    +0.001 C 
ATOM     18  C   UNL     1      34.520 -15.786 -20.831  0.00  0.00    +0.000 C 
ATOM     19  C   UNL     1      34.553 -15.780 -23.619  0.00  0.00    +0.000 C 
ATOM     20  C   UNL     1      34.415 -14.582 -21.528  0.00  0.00    +0.000 C 
ATOM     21  C   UNL     1      34.431 -14.580 -22.920  0.00  0.00    +0.000 C 
ENDBRANCH   9  12
ENDBRANCH   3  10
BRANCH   7  22
ATOM     22  C   UNL     1      37.003 -21.688 -16.582  0.00  0.00    +0.149 C 
ATOM     23  C   UNL     1      38.122 -20.679 -16.481  0.00  0.00    +0.031 C 
BRANCH  22  25
ATOM     24  O   UNL     1      37.389 -22.950 -14.007  0.00  0.00    -0.277 OA
ATOM     25  N   UNL     1      37.449 -23.025 -16.330  0.00  0.00    -0.300 N 
ATOM     26  C   UNL     1      37.610 -23.559 -15.051  0.00  0.00    +0.201 C 
ATOM     27  H   UNL     1      37.655 -23.600 -17.102  0.00  0.00    +0.150 HD
BRANCH  26  28
ATOM     28  C   UNL     1      38.125 -24.984 -15.083  0.00  0.00    +0.001 C 
BRANCH  28  29
ATOM     29  N   UNL     1      39.533 -24.965 -15.451  0.00  0.00    +0.386 N 
ATOM     30  H   UNL     1      39.620 -25.020 -16.466  0.00  0.00    -0.089 HD
ATOM     31  H   UNL     1      40.007 -25.762 -15.026  0.00  0.00    -0.089 HD
ATOM     32  H   UNL     1      39.960 -24.099 -15.121  0.00  0.00    -0.089 HD
ENDBRANCH  28  29
ENDBRANCH  26  28
ENDBRANCH  22  25
ENDBRANCH   7  22
TORSDOF 6
ENDMDL
MODEL 6
REMARK VINA RESULT:      -9.5      6.594     10.668
REMARK  Name = 46937094
REMARK  6 active torsions:
REMARK  status: ('A' for Active; 'I' for Inactive)
REMARK    1  A    between atoms: C_3  and  C_10
REMARK    2  A    between atoms: C_7  and  C_22
REMARK    3  A    between atoms: N_9  and  C_12
REMARK    4  A    between atoms: C_22  and  N_25
REMARK    5  A    between atoms: C_26  and  C_28
REMARK    6  A    between atoms: C_28  and  N_29
REMARK                            x       y       z     vdW  Elec       q    Type
REMARK                         _______ _______ _______ _____ _____    ______ ____
ROOT
ATOM      1  O   UNL     1      33.238 -19.625 -21.867  0.00  0.00    -0.273 OA
ATOM      2  N   UNL     1      35.231 -19.981 -20.747  0.00  0.00    -0.272 N 
ATOM      3  C   UNL     1      35.038 -21.406 -20.513  0.00  0.00    +0.152 C 
ATOM      4  C   UNL     1      36.413 -21.922 -20.107  0.00  0.00    +0.031 C 
ATOM      5  C   UNL     1      37.067 -20.709 -19.449  0.00  0.00    +0.024 C 
ATOM      6  C   UNL     1      36.538 -19.541 -20.265  0.00  0.00    +0.094 C 
ATOM      7  C   UNL     1      34.334 -19.218 -21.477  0.00  0.00    +0.244 C 
ENDROOT
BRANCH   3  10
ATOM      8  O   UNL     1      33.016 -20.869 -19.391  0.00  0.00    -0.273 OA
ATOM      9  N   UNL     1      34.462 -22.475 -18.462  0.00  0.00    -0.283 N 
ATOM     10  C   UNL     1      34.043 -21.540 -19.399  0.00  0.00    +0.244 C 
ATOM     11  H   UNL     1      35.325 -22.913 -18.640  0.00  0.00    +0.155 HD
BRANCH   9  12
ATOM     12  C   UNL     1      33.793 -22.870 -17.279  0.00  0.00    +0.050 C 
ATOM     13  C   UNL     1      32.408 -23.031 -17.282  0.00  0.00    +0.015 C 
ATOM     14  C   UNL     1      34.519 -23.097 -16.113  0.00  0.00    +0.015 C 
ATOM     15  C   UNL     1      31.729 -23.422 -16.116  0.00  0.00    +0.001 C 
ATOM     16  C   UNL     1      32.467 -23.654 -14.931  0.00  0.00    +0.000 C 
ATOM     17  C   UNL     1      33.861 -23.486 -14.946  0.00  0.00    +0.001 C 
ATOM     18  C   UNL     1      30.335 -23.590 -16.100  0.00  0.00    +0.000 C 
ATOM     19  C   UNL     1      31.789 -24.045 -13.765  0.00  0.00    +0.000 C 
ATOM     20  C   UNL     1      29.677 -23.980 -14.934  0.00  0.00    +0.000 C 
ATOM     21  C   UNL     1      30.404 -24.207 -13.768  0.00  0.00    +0.000 C 
ENDBRANCH   9  12
ENDBRANCH   3  10
BRANCH   7  22
ATOM     22  C   UNL     1      34.772 -17.806 -21.774  0.00  0.00    +0.149 C 
ATOM     23  C   UNL     1      33.971 -16.816 -20.963  0.00  0.00    +0.031 C 
BRANCH  22  25
ATOM     24  O   UNL     1      35.249 -15.444 -23.376  0.00  0.00    -0.277 OA
ATOM     25  N   UNL     1      34.561 -17.656 -23.182  0.00  0.00    -0.300 N 
ATOM     26  C   UNL     1      34.817 -16.477 -23.882  0.00  0.00    +0.201 C 
ATOM     27  H   UNL     1      34.214 -18.429 -23.685  0.00  0.00    +0.150 HD
BRANCH  26  28
ATOM     28  C   UNL     1      34.472 -16.594 -25.353  0.00  0.00    +0.001 C 
BRANCH  28  29
ATOM     29  N   UNL     1      33.569 -15.509 -25.709  0.00  0.00    +0.386 N 
ATOM     30  H   UNL     1      32.612 -15.770 -25.466  0.00  0.00    -0.089 HD
ATOM     31  H   UNL     1      33.627 -15.333 -26.712  0.00  0.00    -0.089 HD
ATOM     32  H   UNL     1      33.831 -14.666 -25.198  0.00  0.00    -0.089 HD
ENDBRANCH  28  29
ENDBRANCH  26  28
ENDBRANCH  22  25
ENDBRANCH   7  22
TORSDOF 6
ENDMDL
MODEL 7
REMARK VINA RESULT:      -9.5      2.915      9.323
REMARK  Name = 46937094
REMARK  6 active torsions:
REMARK  status: ('A' for Active; 'I' for Inactive)
REMARK    1  A    between atoms: C_3  and  C_10
REMARK    2  A    between atoms: C_7  and  C_22
REMARK    3  A    between atoms: N_9  and  C_12
REMARK    4  A    between atoms: C_22  and  N_25
REMARK    5  A    between atoms: C_26  and  C_28
REMARK    6  A    between atoms: C_28  and  N_29
REMARK                            x       y       z     vdW  Elec       q    Type
REMARK                         _______ _______ _______ _____ _____    ______ ____
ROOT
ATOM      1  O   UNL     1      33.031 -14.843 -24.778  0.00  0.00    -0.273 OA
ATOM      2  N   UNL     1      33.418 -14.910 -22.497  0.00  0.00    -0.272 N 
ATOM      3  C   UNL     1      32.272 -14.097 -22.109  0.00  0.00    +0.152 C 
ATOM      4  C   UNL     1      32.128 -14.323 -20.609  0.00  0.00    +0.031 C 
ATOM      5  C   UNL     1      33.555 -14.619 -20.156  0.00  0.00    +0.024 C 
ATOM      6  C   UNL     1      34.139 -15.398 -21.324  0.00  0.00    +0.094 C 
ATOM      7  C   UNL     1      33.661 -15.277 -23.812  0.00  0.00    +0.244 C 
ENDROOT
BRANCH   3  10
ATOM      8  O   UNL     1      33.509 -12.403 -23.222  0.00  0.00    -0.273 OA
ATOM      9  N   UNL     1      31.805 -11.793 -21.719  0.00  0.00    -0.283 N 
ATOM     10  C   UNL     1      32.614 -12.672 -22.428  0.00  0.00    +0.244 C 
ATOM     11  H   UNL     1      31.138 -12.201 -21.121  0.00  0.00    +0.155 HD
BRANCH   9  12
ATOM     12  C   UNL     1      31.830 -10.379 -21.756  0.00  0.00    +0.050 C 
ATOM     13  C   UNL     1      31.496  -9.706 -22.930  0.00  0.00    +0.015 C 
ATOM     14  C   UNL     1      32.188  -9.661 -20.618  0.00  0.00    +0.015 C 
ATOM     15  C   UNL     1      31.516  -8.302 -22.982  0.00  0.00    +0.001 C 
ATOM     16  C   UNL     1      31.879  -7.572 -21.825  0.00  0.00    +0.000 C 
ATOM     17  C   UNL     1      32.214  -8.267 -20.651  0.00  0.00    +0.001 C 
ATOM     18  C   UNL     1      31.182  -7.607 -24.155  0.00  0.00    +0.000 C 
ATOM     19  C   UNL     1      31.900  -6.168 -21.877  0.00  0.00    +0.000 C 
ATOM     20  C   UNL     1      31.207  -6.213 -24.189  0.00  0.00    +0.000 C 
ATOM     21  C   UNL     1      31.566  -5.495 -23.052  0.00  0.00    +0.000 C 
ENDBRANCH   9  12
ENDBRANCH   3  10
BRANCH   7  22
ATOM     22  C   UNL     1      34.784 -16.262 -24.015  0.00  0.00    +0.149 C 
ATOM     23  C   UNL     1      34.951 -16.588 -25.480  0.00  0.00    +0.031 C 
BRANCH  22  25
ATOM     24  O   UNL     1      36.530 -18.235 -22.818  0.00  0.00    -0.277 OA
ATOM     25  N   UNL     1      34.400 -17.404 -23.243  0.00  0.00    -0.300 N 
ATOM     26  C   UNL     1      35.309 -18.312 -22.698  0.00  0.00    +0.201 C 
ATOM     27  H   UNL     1      33.440 -17.559 -23.086  0.00  0.00    +0.150 HD
BRANCH  26  28
ATOM     28  C   UNL     1      34.622 -19.441 -21.956  0.00  0.00    +0.001 C 
BRANCH  28  29
ATOM     29  N   UNL     1      35.199 -19.543 -20.624  0.00  0.00    +0.386 N 
ATOM     30  H   UNL     1      35.811 -20.358 -20.580  0.00  0.00    -0.089 HD
ATOM     31  H   UNL     1      34.452 -19.642 -19.936  0.00  0.00    -0.089 HD
ATOM     32  H   UNL     1      35.739 -18.702 -20.421  0.00  0.00    -0.089 HD
ENDBRANCH  28  29
ENDBRANCH  26  28
ENDBRANCH  22  25
ENDBRANCH   7  22
TORSDOF 6
ENDMDL
MODEL 8
REMARK VINA RESULT:      -9.4     14.512     16.941
REMARK  Name = 46937094
REMARK  6 active torsions:
REMARK  status: ('A' for Active; 'I' for Inactive)
REMARK    1  A    between atoms: C_3  and  C_10
REMARK    2  A    between atoms: C_7  and  C_22
REMARK    3  A    between atoms: N_9  and  C_12
REMARK    4  A    between atoms: C_22  and  N_25
REMARK    5  A    between atoms: C_26  and  C_28
REMARK    6  A    between atoms: C_28  and  N_29
REMARK                            x       y       z     vdW  Elec       q    Type
REMARK                         _______ _______ _______ _____ _____    ______ ____
ROOT
ATOM      1  O   UNL     1      35.945 -24.844 -15.365  0.00  0.00    -0.273 OA
ATOM      2  N   UNL     1      36.456 -23.960 -13.288  0.00  0.00    -0.272 N 
ATOM      3  C   UNL     1      35.504 -24.760 -12.528  0.00  0.00    +0.152 C 
ATOM      4  C   UNL     1      35.935 -24.598 -11.075  0.00  0.00    +0.031 C 
ATOM      5  C   UNL     1      36.580 -23.215 -11.048  0.00  0.00    +0.024 C 
ATOM      6  C   UNL     1      37.261 -23.120 -12.405  0.00  0.00    +0.094 C 
ATOM      7  C   UNL     1      36.647 -24.125 -14.651  0.00  0.00    +0.244 C 
ENDROOT
BRANCH   3  10
ATOM      8  O   UNL     1      33.783 -23.158 -12.195  0.00  0.00    -0.273 OA
ATOM      9  N   UNL     1      33.430 -24.942 -13.688  0.00  0.00    -0.283 N 
ATOM     10  C   UNL     1      34.143 -24.178 -12.773  0.00  0.00    +0.244 C 
ATOM     11  H   UNL     1      33.890 -25.736 -14.044  0.00  0.00    +0.155 HD
BRANCH   9  12
ATOM     12  C   UNL     1      32.119 -24.711 -14.167  0.00  0.00    +0.050 C 
ATOM     13  C   UNL     1      31.897 -23.761 -15.163  0.00  0.00    +0.015 C 
ATOM     14  C   UNL     1      31.051 -25.433 -13.641  0.00  0.00    +0.015 C 
ATOM     15  C   UNL     1      30.601 -23.520 -15.648  0.00  0.00    +0.001 C 
ATOM     16  C   UNL     1      29.515 -24.255 -15.115  0.00  0.00    +0.000 C 
ATOM     17  C   UNL     1      29.757 -25.207 -14.111  0.00  0.00    +0.001 C 
ATOM     18  C   UNL     1      30.358 -22.569 -16.651  0.00  0.00    +0.000 C 
ATOM     19  C   UNL     1      28.218 -24.014 -15.599  0.00  0.00    +0.000 C 
ATOM     20  C   UNL     1      29.065 -22.343 -17.122  0.00  0.00    +0.000 C 
ATOM     21  C   UNL     1      27.997 -23.065 -16.596  0.00  0.00    +0.000 C 
ENDBRANCH   9  12
ENDBRANCH   3  10
BRANCH   7  22
ATOM     22  C   UNL     1      37.790 -23.344 -15.246  0.00  0.00    +0.149 C 
ATOM     23  C   UNL     1      37.331 -22.559 -16.452  0.00  0.00    +0.031 C 
BRANCH  22  25
ATOM     24  O   UNL     1      39.683 -24.613 -13.463  0.00  0.00    -0.277 OA
ATOM     25  N   UNL     1      38.765 -24.337 -15.581  0.00  0.00    -0.300 N 
ATOM     26  C   UNL     1      39.645 -24.901 -14.657  0.00  0.00    +0.201 C 
ATOM     27  H   UNL     1      38.817 -24.640 -16.517  0.00  0.00    +0.150 HD
BRANCH  26  28
ATOM     28  C   UNL     1      40.586 -25.903 -15.296  0.00  0.00    +0.001 C 
BRANCH  28  29
ATOM     29  N   UNL     1      40.996 -26.868 -14.286  0.00  0.00    +0.386 N 
ATOM     30  H   UNL     1      41.957 -27.161 -14.465  0.00  0.00    -0.089 HD
ATOM     31  H   UNL     1      40.382 -27.682 -14.324  0.00  0.00    -0.089 HD
ATOM     32  H   UNL     1      40.938 -26.440 -13.362  0.00  0.00    -0.089 HD
ENDBRANCH  28  29
ENDBRANCH  26  28
ENDBRANCH  22  25
ENDBRANCH   7  22
TORSDOF 6
ENDMDL
MODEL 9
REMARK VINA RESULT:      -9.3      2.533      9.324
REMARK  Name = 46937094
REMARK  6 active torsions:
REMARK  status: ('A' for Active; 'I' for Inactive)
REMARK    1  A    between atoms: C_3  and  C_10
REMARK    2  A    between atoms: C_7  and  C_22
REMARK    3  A    between atoms: N_9  and  C_12
REMARK    4  A    between atoms: C_22  and  N_25
REMARK    5  A    between atoms: C_26  and  C_28
REMARK    6  A    between atoms: C_28  and  N_29
REMARK                            x       y       z     vdW  Elec       q    Type
REMARK                         _______ _______ _______ _____ _____    ______ ____
ROOT
ATOM      1  O   UNL     1      34.470 -13.855 -21.433  0.00  0.00    -0.273 OA
ATOM      2  N   UNL     1      33.605 -13.990 -23.575  0.00  0.00    -0.272 N 
ATOM      3  C   UNL     1      34.020 -12.662 -24.007  0.00  0.00    +0.152 C 
ATOM      4  C   UNL     1      33.872 -12.683 -25.523  0.00  0.00    +0.031 C 
ATOM      5  C   UNL     1      32.744 -13.686 -25.755  0.00  0.00    +0.024 C 
ATOM      6  C   UNL     1      32.970 -14.724 -24.667  0.00  0.00    +0.094 C 
ATOM      7  C   UNL     1      33.933 -14.506 -22.331  0.00  0.00    +0.244 C 
ENDROOT
BRANCH   3  10
ATOM      8  O   UNL     1      32.074 -12.058 -22.789  0.00  0.00    -0.273 OA
ATOM      9  N   UNL     1      33.533 -10.375 -23.545  0.00  0.00    -0.283 N 
ATOM     10  C   UNL     1      33.085 -11.678 -23.369  0.00  0.00    +0.244 C 
ATOM     11  H   UNL     1      34.373 -10.268 -24.047  0.00  0.00    +0.155 HD
BRANCH   9  12
ATOM     12  C   UNL     1      32.920  -9.184 -23.089  0.00  0.00    +0.050 C 
ATOM     13  C   UNL     1      32.653  -8.150 -23.985  0.00  0.00    +0.015 C 
ATOM     14  C   UNL     1      32.585  -9.047 -21.744  0.00  0.00    +0.015 C 
ATOM     15  C   UNL     1      32.046  -6.961 -23.547  0.00  0.00    +0.001 C 
ATOM     16  C   UNL     1      31.704  -6.821 -22.181  0.00  0.00    +0.000 C 
ATOM     17  C   UNL     1      31.981  -7.873 -21.292  0.00  0.00    +0.001 C 
ATOM     18  C   UNL     1      31.769  -5.909 -24.434  0.00  0.00    +0.000 C 
ATOM     19  C   UNL     1      31.097  -5.633 -21.742  0.00  0.00    +0.000 C 
ATOM     20  C   UNL     1      31.165  -4.736 -23.983  0.00  0.00    +0.000 C 
ATOM     21  C   UNL     1      30.830  -4.598 -22.639  0.00  0.00    +0.000 C 
ENDBRANCH   9  12
ENDBRANCH   3  10
BRANCH   7  22
ATOM     22  C   UNL     1      33.579 -15.955 -22.115  0.00  0.00    +0.149 C 
ATOM     23  C   UNL     1      32.631 -16.105 -20.948  0.00  0.00    +0.031 C 
BRANCH  22  25
ATOM     24  O   UNL     1      34.284 -18.696 -22.721  0.00  0.00    -0.277 OA
ATOM     25  N   UNL     1      34.836 -16.599 -21.881  0.00  0.00    -0.300 N 
ATOM     26  C   UNL     1      35.096 -17.931 -22.204  0.00  0.00    +0.201 C 
ATOM     27  H   UNL     1      35.559 -16.072 -21.469  0.00  0.00    +0.150 HD
BRANCH  26  28
ATOM     28  C   UNL     1      36.499 -18.355 -21.818  0.00  0.00    +0.001 C 
BRANCH  28  29
ATOM     29  N   UNL     1      36.429 -19.137 -20.592  0.00  0.00    +0.386 N 
ATOM     30  H   UNL     1      36.850 -18.608 -19.827  0.00  0.00    -0.089 HD
ATOM     31  H   UNL     1      36.937 -20.013 -20.718  0.00  0.00    -0.089 HD
ATOM     32  H   UNL     1      35.454 -19.337 -20.370  0.00  0.00    -0.089 HD
ENDBRANCH  28  29
ENDBRANCH  26  28
ENDBRANCH  22  25
ENDBRANCH   7  22
TORSDOF 6
ENDMDL
