MODEL 1
REMARK VINA RESULT:      -9.8      0.000      0.000
REMARK  Name = 162834
REMARK  1 active torsions:
REMARK  status: ('A' for Active; 'I' for Inactive)
REMARK    1  A    between atoms: N_6  and  C_15
REMARK                            x       y       z     vdW  Elec       q    Type
REMARK                         _______ _______ _______ _____ _____    ______ ____
ROOT
ATOM      1  O   UNL     1      31.572 -25.254 -13.110  0.00  0.00    -0.212 OA
ATOM      2  O   UNL     1      33.554 -22.929 -16.731  0.00  0.00    -0.252 OA
ATOM      3  N   UNL     1      29.653 -24.227 -15.794  0.00  0.00    -0.254 N 
ATOM      4  N   UNL     1      31.294 -23.148 -17.196  0.00  0.00    -0.231 N 
ATOM      5  N   UNL     1      31.808 -24.127 -15.137  0.00  0.00    -0.304 NA
ATOM      6  N   UNL     1      32.631 -22.074 -18.714  0.00  0.00    -0.268 N 
ATOM      7  C   UNL     1      29.631 -24.930 -14.533  0.00  0.00    +0.231 C 
ATOM      8  C   UNL     1      30.934 -23.820 -16.060  0.00  0.00    +0.258 C 
ATOM      9  C   UNL     1      31.104 -24.806 -14.148  0.00  0.00    +0.204 C 
ATOM     10  C   UNL     1      28.487 -24.115 -16.627  0.00  0.00    +0.117 C 
ATOM     11  C   UNL     1      32.601 -22.731 -17.481  0.00  0.00    +0.311 C 
ATOM     12  H   UNL     1      30.590 -22.946 -17.855  0.00  0.00    +0.160 HD
ATOM     13  H   UNL     1      31.770 -22.001 -19.187  0.00  0.00    +0.156 HD
ENDROOT
BRANCH   6  15
ATOM     14 CL   UNL     1      34.439 -18.589 -21.998  0.00  0.00    -0.082 Cl
ATOM     15  C   UNL     1      33.748 -21.501 -19.365  0.00  0.00    +0.052 C 
ATOM     16  C   UNL     1      33.555 -20.455 -20.252  0.00  0.00    +0.026 C 
ATOM     17  C   UNL     1      35.014 -21.998 -19.101  0.00  0.00    +0.015 C 
ATOM     18  C   UNL     1      34.659 -19.890 -20.893  0.00  0.00    +0.059 C 
ATOM     19  C   UNL     1      36.117 -21.434 -19.741  0.00  0.00    +0.002 C 
ATOM     20  C   UNL     1      35.940 -20.380 -20.637  0.00  0.00    +0.011 C 
ENDBRANCH   6  15
TORSDOF 1
ENDMDL
MODEL 2
REMARK VINA RESULT:      -9.5      3.523      5.683
REMARK  Name = 162834
REMARK  1 active torsions:
REMARK  status: ('A' for Active; 'I' for Inactive)
REMARK    1  A    between atoms: N_6  and  C_15
REMARK                            x       y       z     vdW  Elec       q    Type
REMARK                         _______ _______ _______ _____ _____    ______ ____
ROOT
ATOM      1  O   UNL     1      32.079 -23.062 -17.847  0.00  0.00    -0.212 OA
ATOM      2  O   UNL     1      33.242 -19.936 -21.211  0.00  0.00    -0.252 OA
ATOM      3  N   UNL     1      35.356 -22.033 -18.226  0.00  0.00    -0.254 N 
ATOM      4  N   UNL     1      35.184 -20.491 -20.073  0.00  0.00    -0.231 N 
ATOM      5  N   UNL     1      33.354 -21.646 -19.190  0.00  0.00    -0.304 NA
ATOM      6  N   UNL     1      35.310 -18.987 -21.796  0.00  0.00    -0.268 N 
ATOM      7  C   UNL     1      34.465 -22.858 -17.444  0.00  0.00    +0.231 C 
ATOM      8  C   UNL     1      34.633 -21.372 -19.184  0.00  0.00    +0.258 C 
ATOM      9  C   UNL     1      33.149 -22.558 -18.160  0.00  0.00    +0.204 C 
ATOM     10  C   UNL     1      36.752 -21.902 -17.908  0.00  0.00    +0.117 C 
ATOM     11  C   UNL     1      34.454 -19.807 -21.054  0.00  0.00    +0.311 C 
ATOM     12  H   UNL     1      36.154 -20.326 -20.019  0.00  0.00    +0.160 HD
ATOM     13  H   UNL     1      36.259 -19.004 -21.536  0.00  0.00    +0.156 HD
ENDROOT
BRANCH   6  15
ATOM     14 CL   UNL     1      34.297 -14.249 -23.446  0.00  0.00    -0.082 Cl
ATOM     15  C   UNL     1      34.976 -18.135 -22.874  0.00  0.00    +0.052 C 
ATOM     16  C   UNL     1      34.821 -16.778 -22.645  0.00  0.00    +0.026 C 
ATOM     17  C   UNL     1      34.811 -18.676 -24.139  0.00  0.00    +0.015 C 
ATOM     18  C   UNL     1      34.493 -15.938 -23.711  0.00  0.00    +0.059 C 
ATOM     19  C   UNL     1      34.483 -17.838 -25.204  0.00  0.00    +0.002 C 
ATOM     20  C   UNL     1      34.324 -16.468 -24.990  0.00  0.00    +0.011 C 
ENDBRANCH   6  15
TORSDOF 1
ENDMDL
MODEL 3
REMARK VINA RESULT:      -9.5      8.963     11.676
REMARK  Name = 162834
REMARK  1 active torsions:
REMARK  status: ('A' for Active; 'I' for Inactive)
REMARK    1  A    between atoms: N_6  and  C_15
REMARK                            x       y       z     vdW  Elec       q    Type
REMARK                         _______ _______ _______ _____ _____    ______ ____
ROOT
ATOM      1  O   UNL     1      30.817 -10.477 -21.864  0.00  0.00    -0.212 OA
ATOM      2  O   UNL     1      32.864 -14.668 -22.696  0.00  0.00    -0.252 OA
ATOM      3  N   UNL     1      33.666 -10.682 -23.810  0.00  0.00    -0.254 N 
ATOM      4  N   UNL     1      34.115 -13.052 -23.790  0.00  0.00    -0.231 N 
ATOM      5  N   UNL     1      32.310 -12.077 -22.669  0.00  0.00    -0.304 NA
ATOM      6  N   UNL     1      34.771 -15.241 -23.941  0.00  0.00    -0.268 N 
ATOM      7  C   UNL     1      32.668  -9.784 -23.276  0.00  0.00    +0.231 C 
ATOM      8  C   UNL     1      33.372 -11.963 -23.424  0.00  0.00    +0.258 C 
ATOM      9  C   UNL     1      31.807 -10.789 -22.513  0.00  0.00    +0.204 C 
ATOM     10  C   UNL     1      34.709 -10.228 -24.690  0.00  0.00    +0.117 C 
ATOM     11  C   UNL     1      33.821 -14.367 -23.404  0.00  0.00    +0.311 C 
ATOM     12  H   UNL     1      34.904 -12.902 -24.359  0.00  0.00    +0.160 HD
ATOM     13  H   UNL     1      35.478 -14.830 -24.490  0.00  0.00    +0.156 HD
ENDROOT
BRANCH   6  15
ATOM     14 CL   UNL     1      35.945 -19.254 -20.989  0.00  0.00    -0.082 Cl
ATOM     15  C   UNL     1      34.838 -16.646 -23.793  0.00  0.00    +0.052 C 
ATOM     16  C   UNL     1      35.305 -17.182 -22.604  0.00  0.00    +0.026 C 
ATOM     17  C   UNL     1      34.435 -17.458 -24.841  0.00  0.00    +0.015 C 
ATOM     18  C   UNL     1      35.369 -18.569 -22.458  0.00  0.00    +0.059 C 
ATOM     19  C   UNL     1      34.500 -18.843 -24.696  0.00  0.00    +0.002 C 
ATOM     20  C   UNL     1      34.966 -19.399 -23.505  0.00  0.00    +0.011 C 
ENDBRANCH   6  15
TORSDOF 1
ENDMDL
MODEL 4
REMARK VINA RESULT:      -9.3      6.726     10.114
REMARK  Name = 162834
REMARK  1 active torsions:
REMARK  status: ('A' for Active; 'I' for Inactive)
REMARK    1  A    between atoms: N_6  and  C_15
REMARK                            x       y       z     vdW  Elec       q    Type
REMARK                         _______ _______ _______ _____ _____    ______ ____
ROOT
ATOM      1  O   UNL     1      33.443 -14.911 -27.365  0.00  0.00    -0.212 OA
ATOM      2  O   UNL     1      34.609 -17.810 -23.804  0.00  0.00    -0.252 OA
ATOM      3  N   UNL     1      33.177 -13.855 -24.085  0.00  0.00    -0.254 N 
ATOM      4  N   UNL     1      33.920 -15.803 -22.872  0.00  0.00    -0.231 N 
ATOM      5  N   UNL     1      33.801 -15.711 -25.204  0.00  0.00    -0.304 NA
ATOM      6  N   UNL     1      34.580 -17.495 -21.477  0.00  0.00    -0.268 N 
ATOM      7  C   UNL     1      33.015 -13.460 -25.466  0.00  0.00    +0.231 C 
ATOM      8  C   UNL     1      33.640 -15.143 -24.037  0.00  0.00    +0.258 C 
ATOM      9  C   UNL     1      33.435 -14.759 -26.151  0.00  0.00    +0.204 C 
ATOM     10  C   UNL     1      32.967 -12.937 -22.999  0.00  0.00    +0.117 C 
ATOM     11  C   UNL     1      34.397 -17.119 -22.811  0.00  0.00    +0.311 C 
ATOM     12  H   UNL     1      33.778 -15.323 -22.024  0.00  0.00    +0.160 HD
ATOM     13  H   UNL     1      34.360 -16.814 -20.801  0.00  0.00    +0.156 HD
ENDROOT
BRANCH   6  15
ATOM     14 CL   UNL     1      33.467 -22.099 -19.538  0.00  0.00    -0.082 Cl
ATOM     15  C   UNL     1      35.045 -18.736 -20.982  0.00  0.00    +0.052 C 
ATOM     16  C   UNL     1      34.129 -19.684 -20.557  0.00  0.00    +0.026 C 
ATOM     17  C   UNL     1      36.409 -18.977 -20.932  0.00  0.00    +0.015 C 
ATOM     18  C   UNL     1      34.589 -20.908 -20.070  0.00  0.00    +0.059 C 
ATOM     19  C   UNL     1      36.869 -20.200 -20.444  0.00  0.00    +0.002 C 
ATOM     20  C   UNL     1      35.959 -21.166 -20.013  0.00  0.00    +0.011 C 
ENDBRANCH   6  15
TORSDOF 1
ENDMDL
MODEL 5
REMARK VINA RESULT:      -9.2      6.950     10.335
REMARK  Name = 162834
REMARK  1 active torsions:
REMARK  status: ('A' for Active; 'I' for Inactive)
REMARK    1  A    between atoms: N_6  and  C_15
REMARK                            x       y       z     vdW  Elec       q    Type
REMARK                         _______ _______ _______ _____ _____    ______ ____
ROOT
ATOM      1  O   UNL     1      33.819 -11.485 -23.412  0.00  0.00    -0.212 OA
ATOM      2  O   UNL     1      34.794 -15.839 -21.818  0.00  0.00    -0.252 OA
ATOM      3  N   UNL     1      33.352 -14.241 -25.444  0.00  0.00    -0.254 N 
ATOM      4  N   UNL     1      34.036 -16.048 -23.999  0.00  0.00    -0.231 N 
ATOM      5  N   UNL     1      34.063 -13.803 -23.349  0.00  0.00    -0.304 NA
ATOM      6  N   UNL     1      34.619 -17.941 -22.850  0.00  0.00    -0.268 N 
ATOM      7  C   UNL     1      33.219 -12.805 -25.360  0.00  0.00    +0.231 C 
ATOM      8  C   UNL     1      33.824 -14.720 -24.251  0.00  0.00    +0.258 C 
ATOM      9  C   UNL     1      33.730 -12.587 -23.937  0.00  0.00    +0.204 C 
ATOM     10  C   UNL     1      32.926 -14.982 -26.600  0.00  0.00    +0.117 C 
ATOM     11  C   UNL     1      34.515 -16.549 -22.781  0.00  0.00    +0.311 C 
ATOM     12  H   UNL     1      33.838 -16.691 -24.718  0.00  0.00    +0.160 HD
ATOM     13  H   UNL     1      34.352 -18.354 -23.703  0.00  0.00    +0.156 HD
ENDROOT
BRANCH   6  15
ATOM     14 CL   UNL     1      33.453 -21.562 -19.425  0.00  0.00    -0.082 Cl
ATOM     15  C   UNL     1      35.060 -18.829 -21.841  0.00  0.00    +0.052 C 
ATOM     16  C   UNL     1      34.141 -19.653 -21.212  0.00  0.00    +0.026 C 
ATOM     17  C   UNL     1      36.404 -18.857 -21.504  0.00  0.00    +0.015 C 
ATOM     18  C   UNL     1      34.579 -20.530 -20.218  0.00  0.00    +0.059 C 
ATOM     19  C   UNL     1      36.841 -19.733 -20.510  0.00  0.00    +0.002 C 
ATOM     20  C   UNL     1      35.929 -20.570 -19.868  0.00  0.00    +0.011 C 
ENDBRANCH   6  15
TORSDOF 1
ENDMDL
MODEL 6
REMARK VINA RESULT:      -9.1      6.331      9.489
REMARK  Name = 162834
REMARK  1 active torsions:
REMARK  status: ('A' for Active; 'I' for Inactive)
REMARK    1  A    between atoms: N_6  and  C_15
REMARK                            x       y       z     vdW  Elec       q    Type
REMARK                         _______ _______ _______ _____ _____    ______ ____
ROOT
ATOM      1  O   UNL     1      32.388 -12.442 -22.174  0.00  0.00    -0.212 OA
ATOM      2  O   UNL     1      34.065 -16.681 -20.885  0.00  0.00    -0.252 OA
ATOM      3  N   UNL     1      33.399 -14.728 -24.561  0.00  0.00    -0.254 N 
ATOM      4  N   UNL     1      34.107 -16.590 -23.201  0.00  0.00    -0.231 N 
ATOM      5  N   UNL     1      33.272 -14.595 -22.313  0.00  0.00    -0.304 NA
ATOM      6  N   UNL     1      34.841 -18.494 -22.161  0.00  0.00    -0.268 N 
ATOM      7  C   UNL     1      32.830 -13.416 -24.354  0.00  0.00    +0.231 C 
ATOM      8  C   UNL     1      33.602 -15.327 -23.346  0.00  0.00    +0.258 C 
ATOM      9  C   UNL     1      32.792 -13.395 -22.827  0.00  0.00    +0.204 C 
ATOM     10  C   UNL     1      33.586 -15.281 -25.875  0.00  0.00    +0.117 C 
ATOM     11  C   UNL     1      34.316 -17.214 -21.963  0.00  0.00    +0.311 C 
ATOM     12  H   UNL     1      34.338 -17.091 -24.016  0.00  0.00    +0.160 HD
ATOM     13  H   UNL     1      34.983 -18.764 -23.097  0.00  0.00    +0.156 HD
ENDROOT
BRANCH   6  15
ATOM     14 CL   UNL     1      33.337 -22.150 -18.910  0.00  0.00    -0.082 Cl
ATOM     15  C   UNL     1      35.193 -19.448 -21.179  0.00  0.00    +0.052 C 
ATOM     16  C   UNL     1      34.203 -20.228 -20.603  0.00  0.00    +0.026 C 
ATOM     17  C   UNL     1      36.522 -19.584 -20.812  0.00  0.00    +0.015 C 
ATOM     18  C   UNL     1      34.552 -21.171 -19.635  0.00  0.00    +0.059 C 
ATOM     19  C   UNL     1      36.872 -20.526 -19.844  0.00  0.00    +0.002 C 
ATOM     20  C   UNL     1      35.886 -21.319 -19.256  0.00  0.00    +0.011 C 
ENDBRANCH   6  15
TORSDOF 1
ENDMDL
MODEL 7
REMARK VINA RESULT:      -9.0      8.176     10.885
REMARK  Name = 162834
REMARK  1 active torsions:
REMARK  status: ('A' for Active; 'I' for Inactive)
REMARK    1  A    between atoms: N_6  and  C_15
REMARK                            x       y       z     vdW  Elec       q    Type
REMARK                         _______ _______ _______ _____ _____    ______ ____
ROOT
ATOM      1  O   UNL     1      36.002 -18.508 -20.625  0.00  0.00    -0.212 OA
ATOM      2  O   UNL     1      34.379 -14.204 -21.757  0.00  0.00    -0.252 OA
ATOM      3  N   UNL     1      34.733 -17.886 -23.779  0.00  0.00    -0.254 N 
ATOM      4  N   UNL     1      34.122 -15.558 -23.620  0.00  0.00    -0.231 N 
ATOM      5  N   UNL     1      35.071 -16.760 -21.855  0.00  0.00    -0.304 NA
ATOM      6  N   UNL     1      33.456 -13.371 -23.749  0.00  0.00    -0.268 N 
ATOM      7  C   UNL     1      35.341 -18.885 -22.931  0.00  0.00    +0.231 C 
ATOM      8  C   UNL     1      34.634 -16.709 -23.086  0.00  0.00    +0.258 C 
ATOM      9  C   UNL     1      35.522 -18.061 -21.658  0.00  0.00    +0.204 C 
ATOM     10  C   UNL     1      34.415 -18.144 -25.157  0.00  0.00    +0.117 C 
ATOM     11  C   UNL     1      34.019 -14.347 -22.923  0.00  0.00    +0.311 C 
ATOM     12  H   UNL     1      33.808 -15.582 -24.554  0.00  0.00    +0.160 HD
ATOM     13  H   UNL     1      33.223 -13.657 -24.662  0.00  0.00    +0.156 HD
ENDROOT
BRANCH   6  15
ATOM     14 CL   UNL     1      34.689  -8.434 -24.299  0.00  0.00    -0.082 Cl
ATOM     15  C   UNL     1      33.180 -12.020 -23.433  0.00  0.00    +0.052 C 
ATOM     16  C   UNL     1      33.981 -11.021 -23.962  0.00  0.00    +0.026 C 
ATOM     17  C   UNL     1      32.114 -11.723 -22.599  0.00  0.00    +0.015 C 
ATOM     18  C   UNL     1      33.707  -9.689 -23.651  0.00  0.00    +0.059 C 
ATOM     19  C   UNL     1      31.840 -10.392 -22.287  0.00  0.00    +0.002 C 
ATOM     20  C   UNL     1      32.636  -9.375 -22.813  0.00  0.00    +0.011 C 
ENDBRANCH   6  15
TORSDOF 1
ENDMDL
MODEL 8
REMARK VINA RESULT:      -9.0      3.765      5.379
REMARK  Name = 162834
REMARK  1 active torsions:
REMARK  status: ('A' for Active; 'I' for Inactive)
REMARK    1  A    between atoms: N_6  and  C_15
REMARK                            x       y       z     vdW  Elec       q    Type
REMARK                         _______ _______ _______ _____ _____    ______ ____
ROOT
ATOM      1  O   UNL     1      37.842 -22.060 -16.430  0.00  0.00    -0.212 OA
ATOM      2  O   UNL     1      36.354 -19.739 -20.282  0.00  0.00    -0.252 OA
ATOM      3  N   UNL     1      34.668 -22.600 -17.685  0.00  0.00    -0.254 N 
ATOM      4  N   UNL     1      34.626 -21.119 -19.589  0.00  0.00    -0.231 N 
ATOM      5  N   UNL     1      36.473 -21.339 -18.174  0.00  0.00    -0.304 NA
ATOM      6  N   UNL     1      34.314 -19.811 -21.443  0.00  0.00    -0.268 N 
ATOM      7  C   UNL     1      35.611 -22.989 -16.662  0.00  0.00    +0.231 C 
ATOM      8  C   UNL     1      35.251 -21.670 -18.504  0.00  0.00    +0.258 C 
ATOM      9  C   UNL     1      36.785 -22.091 -17.045  0.00  0.00    +0.204 C 
ATOM     10  C   UNL     1      33.380 -23.224 -17.814  0.00  0.00    +0.117 C 
ATOM     11  C   UNL     1      35.214 -20.170 -20.436  0.00  0.00    +0.311 C 
ATOM     12  H   UNL     1      33.706 -21.408 -19.787  0.00  0.00    +0.160 HD
ATOM     13  H   UNL     1      33.435 -20.256 -21.418  0.00  0.00    +0.156 HD
ENDROOT
BRANCH   6  15
ATOM     14 CL   UNL     1      34.677 -14.929 -22.938  0.00  0.00    -0.082 Cl
ATOM     15  C   UNL     1      34.513 -18.888 -22.495  0.00  0.00    +0.052 C 
ATOM     16  C   UNL     1      34.496 -17.530 -22.220  0.00  0.00    +0.026 C 
ATOM     17  C   UNL     1      34.721 -19.360 -23.781  0.00  0.00    +0.015 C 
ATOM     18  C   UNL     1      34.694 -16.620 -23.259  0.00  0.00    +0.059 C 
ATOM     19  C   UNL     1      34.918 -18.451 -24.820  0.00  0.00    +0.002 C 
ATOM     20  C   UNL     1      34.905 -17.081 -24.559  0.00  0.00    +0.011 C 
ENDBRANCH   6  15
TORSDOF 1
ENDMDL
MODEL 9
REMARK VINA RESULT:      -8.9      4.601      5.608
REMARK  Name = 162834
REMARK  1 active torsions:
REMARK  status: ('A' for Active; 'I' for Inactive)
REMARK    1  A    between atoms: N_6  and  C_15
REMARK                            x       y       z     vdW  Elec       q    Type
REMARK                         _______ _______ _______ _____ _____    ______ ____
ROOT
ATOM      1  O   UNL     1      37.165 -23.033 -11.125  0.00  0.00    -0.212 OA
ATOM      2  O   UNL     1      35.820 -21.891 -15.522  0.00  0.00    -0.252 OA
ATOM      3  N   UNL     1      38.497 -24.688 -13.852  0.00  0.00    -0.254 N 
ATOM      4  N   UNL     1      37.376 -23.601 -15.691  0.00  0.00    -0.231 N 
ATOM      5  N   UNL     1      37.009 -23.041 -13.452  0.00  0.00    -0.304 NA
ATOM      6  N   UNL     1      36.467 -22.746 -17.611  0.00  0.00    -0.268 N 
ATOM      7  C   UNL     1      38.529 -24.577 -12.412  0.00  0.00    +0.231 C 
ATOM      8  C   UNL     1      37.616 -23.767 -14.355  0.00  0.00    +0.258 C 
ATOM      9  C   UNL     1      37.496 -23.468 -12.220  0.00  0.00    +0.204 C 
ATOM     10  C   UNL     1      39.368 -25.578 -14.569  0.00  0.00    +0.117 C 
ATOM     11  C   UNL     1      36.481 -22.660 -16.217  0.00  0.00    +0.311 C 
ATOM     12  H   UNL     1      37.864 -24.178 -16.323  0.00  0.00    +0.160 HD
ATOM     13  H   UNL     1      37.062 -23.423 -18.010  0.00  0.00    +0.156 HD
ENDROOT
BRANCH   6  15
ATOM     14 CL   UNL     1      36.343 -19.064 -21.164  0.00  0.00    -0.082 Cl
ATOM     15  C   UNL     1      35.704 -21.978 -18.521  0.00  0.00    +0.052 C 
ATOM     16  C   UNL     1      36.334 -21.018 -19.295  0.00  0.00    +0.026 C 
ATOM     17  C   UNL     1      34.340 -22.204 -18.619  0.00  0.00    +0.015 C 
ATOM     18  C   UNL     1      35.579 -20.262 -20.194  0.00  0.00    +0.059 C 
ATOM     19  C   UNL     1      33.585 -21.448 -19.516  0.00  0.00    +0.002 C 
ATOM     20  C   UNL     1      34.205 -20.477 -20.304  0.00  0.00    +0.011 C 
ENDBRANCH   6  15
TORSDOF 1
ENDMDL
