MODEL 1
REMARK VINA RESULT:     -10.0      0.000      0.000
REMARK  Name = 107751
REMARK  11 active torsions:
REMARK  status: ('A' for Active; 'I' for Inactive)
REMARK    1  A    between atoms: N_2  and  C_18
REMARK    2  A    between atoms: C_3  and  C_5
REMARK    3  A    between atoms: C_5  and  C_6
REMARK    4  A    between atoms: C_5  and  C_13
REMARK    5  A    between atoms: C_6  and  C_7
REMARK    6  A    between atoms: C_13  and  S_14
REMARK    7  A    between atoms: S_14  and  C_16
REMARK    8  A    between atoms: C_18  and  C_20
REMARK    9  A    between atoms: C_20  and  O_21
REMARK   10  A    between atoms: O_21  and  C_22
REMARK   11  A    between atoms: C_22  and  C_23
REMARK                            x       y       z     vdW  Elec       q    Type
REMARK                         _______ _______ _______ _____ _____    ______ ____
ROOT
ATOM      1  O   UNL     1      35.811 -25.330 -15.735  0.00  0.00    -0.275 OA
ATOM      2  N   UNL     1      35.942 -23.048 -15.342  0.00  0.00    -0.295 N 
ATOM      3  C   UNL     1      35.373 -24.307 -15.212  0.00  0.00    +0.224 C 
ATOM      4  H   UNL     1      35.515 -22.289 -14.883  0.00  0.00    +0.150 HD
ENDROOT
BRANCH   3   5
ATOM      5  C   UNL     1      34.115 -24.298 -14.334  0.00  0.00    +0.092 C 
BRANCH   5   6
ATOM      6  C   UNL     1      33.145 -23.186 -14.792  0.00  0.00    +0.036 C 
BRANCH   6   7
ATOM      7  C   UNL     1      31.748 -23.674 -15.089  0.00  0.00    -0.022 C 
ATOM      8  C   UNL     1      30.977 -22.998 -16.021  0.00  0.00    -0.004 C 
ATOM      9  C   UNL     1      31.262 -24.788 -14.424  0.00  0.00    -0.004 C 
ATOM     10  C   UNL     1      29.686 -23.449 -16.297  0.00  0.00    -0.000 C 
ATOM     11  C   UNL     1      29.970 -25.239 -14.699  0.00  0.00    -0.000 C 
ATOM     12  C   UNL     1      29.182 -24.569 -15.635  0.00  0.00    -0.000 C 
ENDBRANCH   6   7
ENDBRANCH   5   6
BRANCH   5  13
ATOM     13  C   UNL     1      34.485 -24.249 -12.837  0.00  0.00    +0.074 C 
BRANCH  13  14
ATOM     14  S   UNL     1      36.095 -24.991 -12.423  0.00  0.00    -0.077 S 
BRANCH  14  16
ATOM     15  O   UNL     1      36.323 -23.967  -9.994  0.00  0.00    -0.285 OA
ATOM     16  C   UNL     1      36.635 -23.872 -11.176  0.00  0.00    +0.199 C 
ATOM     17  C   UNL     1      37.520 -22.778 -11.703  0.00  0.00    +0.085 C 
ENDBRANCH  14  16
ENDBRANCH  13  14
ENDBRANCH   5  13
ENDBRANCH   3   5
BRANCH   2  18
ATOM     18  C   UNL     1      37.132 -22.804 -16.124  0.00  0.00    +0.201 C 
BRANCH  18  20
ATOM     19  O   UNL     1      37.379 -20.627 -17.104  0.00  0.00    -0.248 OA
ATOM     20  C   UNL     1      36.931 -21.766 -17.203  0.00  0.00    +0.338 C 
BRANCH  20  21
ATOM     21  O   UNL     1      36.215 -22.244 -18.256  0.00  0.00    -0.442 OA
BRANCH  21  22
ATOM     22  C   UNL     1      36.446 -21.594 -19.512  0.00  0.00    +0.235 C 
BRANCH  22  23
ATOM     23  C   UNL     1      35.185 -20.910 -19.949  0.00  0.00    +0.021 C 
ATOM     24  C   UNL     1      35.259 -19.774 -20.749  0.00  0.00    -0.001 C 
ATOM     25  C   UNL     1      33.953 -21.417 -19.551  0.00  0.00    -0.001 C 
ATOM     26  C   UNL     1      34.087 -19.138 -21.154  0.00  0.00    -0.000 C 
ATOM     27  C   UNL     1      32.781 -20.781 -19.957  0.00  0.00    -0.000 C 
ATOM     28  C   UNL     1      32.846 -19.641 -20.759  0.00  0.00    -0.000 C 
ENDBRANCH  22  23
ENDBRANCH  21  22
ENDBRANCH  20  21
ENDBRANCH  18  20
ENDBRANCH   2  18
TORSDOF 11
ENDMDL
MODEL 2
REMARK VINA RESULT:      -9.9      7.653     11.407
REMARK  Name = 107751
REMARK  11 active torsions:
REMARK  status: ('A' for Active; 'I' for Inactive)
REMARK    1  A    between atoms: N_2  and  C_18
REMARK    2  A    between atoms: C_3  and  C_5
REMARK    3  A    between atoms: C_5  and  C_6
REMARK    4  A    between atoms: C_5  and  C_13
REMARK    5  A    between atoms: C_6  and  C_7
REMARK    6  A    between atoms: C_13  and  S_14
REMARK    7  A    between atoms: S_14  and  C_16
REMARK    8  A    between atoms: C_18  and  C_20
REMARK    9  A    between atoms: C_20  and  O_21
REMARK   10  A    between atoms: O_21  and  C_22
REMARK   11  A    between atoms: C_22  and  C_23
REMARK                            x       y       z     vdW  Elec       q    Type
REMARK                         _______ _______ _______ _____ _____    ______ ____
ROOT
ATOM      1  O   UNL     1      35.214 -16.379 -20.140  0.00  0.00    -0.275 OA
ATOM      2  N   UNL     1      33.644 -15.417 -21.550  0.00  0.00    -0.295 N 
ATOM      3  C   UNL     1      34.602 -16.360 -21.206  0.00  0.00    +0.224 C 
ATOM      4  H   UNL     1      33.209 -15.487 -22.430  0.00  0.00    +0.150 HD
ENDROOT
BRANCH   3   5
ATOM      5  C   UNL     1      34.832 -17.398 -22.313  0.00  0.00    +0.092 C 
BRANCH   5   6
ATOM      6  C   UNL     1      35.709 -18.557 -21.791  0.00  0.00    +0.036 C 
BRANCH   6   7
ATOM      7  C   UNL     1      34.949 -19.593 -20.998  0.00  0.00    -0.022 C 
ATOM      8  C   UNL     1      35.652 -20.531 -20.258  0.00  0.00    -0.004 C 
ATOM      9  C   UNL     1      33.564 -19.587 -21.023  0.00  0.00    -0.004 C 
ATOM     10  C   UNL     1      34.950 -21.487 -19.523  0.00  0.00    -0.000 C 
ATOM     11  C   UNL     1      32.862 -20.543 -20.289  0.00  0.00    -0.000 C 
ATOM     12  C   UNL     1      33.556 -21.494 -19.540  0.00  0.00    -0.000 C 
ENDBRANCH   6   7
ENDBRANCH   5   6
BRANCH   5  13
ATOM     13  C   UNL     1      35.354 -16.728 -23.600  0.00  0.00    +0.074 C 
BRANCH  13  14
ATOM     14  S   UNL     1      34.268 -16.907 -25.050  0.00  0.00    -0.077 S 
BRANCH  14  16
ATOM     15  O   UNL     1      33.952 -14.362 -24.402  0.00  0.00    -0.285 OA
ATOM     16  C   UNL     1      33.678 -15.255 -25.196  0.00  0.00    +0.199 C 
ATOM     17  C   UNL     1      32.798 -15.042 -26.396  0.00  0.00    +0.085 C 
ENDBRANCH  14  16
ENDBRANCH  13  14
ENDBRANCH   5  13
ENDBRANCH   3   5
BRANCH   2  18
ATOM     18  C   UNL     1      33.258 -14.337 -20.672  0.00  0.00    +0.201 C 
BRANCH  18  20
ATOM     19  O   UNL     1      31.992 -13.438 -22.502  0.00  0.00    -0.248 OA
ATOM     20  C   UNL     1      32.316 -13.351 -21.321  0.00  0.00    +0.338 C 
BRANCH  20  21
ATOM     21  O   UNL     1      31.892 -12.390 -20.455  0.00  0.00    -0.442 OA
BRANCH  21  22
ATOM     22  C   UNL     1      30.970 -11.433 -20.991  0.00  0.00    +0.235 C 
BRANCH  22  23
ATOM     23  C   UNL     1      31.679 -10.125 -21.182  0.00  0.00    +0.021 C 
ATOM     24  C   UNL     1      31.906  -9.298 -20.088  0.00  0.00    -0.001 C 
ATOM     25  C   UNL     1      32.102  -9.751 -22.453  0.00  0.00    -0.001 C 
ATOM     26  C   UNL     1      32.563  -8.081 -20.267  0.00  0.00    -0.000 C 
ATOM     27  C   UNL     1      32.759  -8.534 -22.632  0.00  0.00    -0.000 C 
ATOM     28  C   UNL     1      32.991  -7.699 -21.539  0.00  0.00    -0.000 C 
ENDBRANCH  22  23
ENDBRANCH  21  22
ENDBRANCH  20  21
ENDBRANCH  18  20
ENDBRANCH   2  18
TORSDOF 11
ENDMDL
MODEL 3
REMARK VINA RESULT:      -9.9      7.505     12.121
REMARK  Name = 107751
REMARK  11 active torsions:
REMARK  status: ('A' for Active; 'I' for Inactive)
REMARK    1  A    between atoms: N_2  and  C_18
REMARK    2  A    between atoms: C_3  and  C_5
REMARK    3  A    between atoms: C_5  and  C_6
REMARK    4  A    between atoms: C_5  and  C_13
REMARK    5  A    between atoms: C_6  and  C_7
REMARK    6  A    between atoms: C_13  and  S_14
REMARK    7  A    between atoms: S_14  and  C_16
REMARK    8  A    between atoms: C_18  and  C_20
REMARK    9  A    between atoms: C_20  and  O_21
REMARK   10  A    between atoms: O_21  and  C_22
REMARK   11  A    between atoms: C_22  and  C_23
REMARK                            x       y       z     vdW  Elec       q    Type
REMARK                         _______ _______ _______ _____ _____    ______ ____
ROOT
ATOM      1  O   UNL     1      34.444 -14.554 -20.811  0.00  0.00    -0.275 OA
ATOM      2  N   UNL     1      34.436 -15.520 -22.919  0.00  0.00    -0.295 N 
ATOM      3  C   UNL     1      34.079 -14.558 -21.985  0.00  0.00    +0.224 C 
ATOM      4  H   UNL     1      34.092 -15.435 -23.838  0.00  0.00    +0.150 HD
ENDROOT
BRANCH   3   5
ATOM      5  C   UNL     1      33.162 -13.477 -22.573  0.00  0.00    +0.092 C 
BRANCH   5   6
ATOM      6  C   UNL     1      31.957 -13.227 -21.640  0.00  0.00    +0.036 C 
BRANCH   6   7
ATOM      7  C   UNL     1      31.891 -11.826 -21.084  0.00  0.00    -0.022 C 
ATOM      8  C   UNL     1      31.976 -10.747 -21.949  0.00  0.00    -0.004 C 
ATOM      9  C   UNL     1      31.746 -11.643 -19.718  0.00  0.00    -0.004 C 
ATOM     10  C   UNL     1      31.914  -9.451 -21.435  0.00  0.00    -0.000 C 
ATOM     11  C   UNL     1      31.684 -10.348 -19.203  0.00  0.00    -0.000 C 
ATOM     12  C   UNL     1      31.769  -9.252 -20.063  0.00  0.00    -0.000 C 
ENDBRANCH   6   7
ENDBRANCH   5   6
BRANCH   5  13
ATOM     13  C   UNL     1      32.786 -13.804 -24.033  0.00  0.00    +0.074 C 
BRANCH  13  14
ATOM     14  S   UNL     1      33.557 -12.725 -25.281  0.00  0.00    -0.077 S 
BRANCH  14  16
ATOM     15  O   UNL     1      33.820 -13.438 -27.815  0.00  0.00    -0.285 OA
ATOM     16  C   UNL     1      33.454 -13.771 -26.693  0.00  0.00    +0.199 C 
ATOM     17  C   UNL     1      32.868 -15.121 -26.390  0.00  0.00    +0.085 C 
ENDBRANCH  14  16
ENDBRANCH  13  14
ENDBRANCH   5  13
ENDBRANCH   3   5
BRANCH   2  18
ATOM     18  C   UNL     1      35.291 -16.641 -22.602  0.00  0.00    +0.201 C 
BRANCH  18  20
ATOM     19  O   UNL     1      34.894 -17.647 -24.744  0.00  0.00    -0.248 OA
ATOM     20  C   UNL     1      35.119 -17.806 -23.547  0.00  0.00    +0.338 C 
BRANCH  20  21
ATOM     21  O   UNL     1      35.242 -19.007 -22.920  0.00  0.00    -0.442 OA
BRANCH  21  22
ATOM     22  C   UNL     1      35.794 -18.965 -21.599  0.00  0.00    +0.235 C 
BRANCH  22  23
ATOM     23  C   UNL     1      35.100 -19.985 -20.745  0.00  0.00    +0.021 C 
ATOM     24  C   UNL     1      33.712 -19.979 -20.657  0.00  0.00    -0.001 C 
ATOM     25  C   UNL     1      35.850 -20.927 -20.050  0.00  0.00    -0.001 C 
ATOM     26  C   UNL     1      33.067 -20.926 -19.862  0.00  0.00    -0.000 C 
ATOM     27  C   UNL     1      35.205 -21.874 -19.255  0.00  0.00    -0.000 C 
ATOM     28  C   UNL     1      33.813 -21.875 -19.161  0.00  0.00    -0.000 C 
ENDBRANCH  22  23
ENDBRANCH  21  22
ENDBRANCH  20  21
ENDBRANCH  18  20
ENDBRANCH   2  18
TORSDOF 11
ENDMDL
MODEL 4
REMARK VINA RESULT:      -9.8      7.719     12.549
REMARK  Name = 107751
REMARK  11 active torsions:
REMARK  status: ('A' for Active; 'I' for Inactive)
REMARK    1  A    between atoms: N_2  and  C_18
REMARK    2  A    between atoms: C_3  and  C_5
REMARK    3  A    between atoms: C_5  and  C_6
REMARK    4  A    between atoms: C_5  and  C_13
REMARK    5  A    between atoms: C_6  and  C_7
REMARK    6  A    between atoms: C_13  and  S_14
REMARK    7  A    between atoms: S_14  and  C_16
REMARK    8  A    between atoms: C_18  and  C_20
REMARK    9  A    between atoms: C_20  and  O_21
REMARK   10  A    between atoms: O_21  and  C_22
REMARK   11  A    between atoms: C_22  and  C_23
REMARK                            x       y       z     vdW  Elec       q    Type
REMARK                         _______ _______ _______ _____ _____    ______ ____
ROOT
ATOM      1  O   UNL     1      32.703 -14.077 -26.281  0.00  0.00    -0.275 OA
ATOM      2  N   UNL     1      33.828 -15.281 -24.649  0.00  0.00    -0.295 N 
ATOM      3  C   UNL     1      33.237 -14.141 -25.175  0.00  0.00    +0.224 C 
ATOM      4  H   UNL     1      34.231 -15.232 -23.752  0.00  0.00    +0.150 HD
ENDROOT
BRANCH   3   5
ATOM      5  C   UNL     1      33.320 -12.941 -24.223  0.00  0.00    +0.092 C 
BRANCH   5   6
ATOM      6  C   UNL     1      34.157 -11.808 -24.855  0.00  0.00    +0.036 C 
BRANCH   6   7
ATOM      7  C   UNL     1      33.962 -10.462 -24.201  0.00  0.00    -0.022 C 
ATOM      8  C   UNL     1      34.940  -9.490 -24.344  0.00  0.00    -0.004 C 
ATOM      9  C   UNL     1      32.810 -10.222 -23.471  0.00  0.00    -0.004 C 
ATOM     10  C   UNL     1      34.759  -8.244 -23.740  0.00  0.00    -0.000 C 
ATOM     11  C   UNL     1      32.629  -8.977 -22.867  0.00  0.00    -0.000 C 
ATOM     12  C   UNL     1      33.604  -7.988 -23.002  0.00  0.00    -0.000 C 
ENDBRANCH   6   7
ENDBRANCH   5   6
BRANCH   5  13
ATOM     13  C   UNL     1      33.789 -13.379 -22.820  0.00  0.00    +0.074 C 
BRANCH  13  14
ATOM     14  S   UNL     1      32.466 -13.505 -21.576  0.00  0.00    -0.077 S 
BRANCH  14  16
ATOM     15  O   UNL     1      31.984 -15.995 -20.822  0.00  0.00    -0.285 OA
ATOM     16  C   UNL     1      32.816 -15.100 -20.918  0.00  0.00    +0.199 C 
ATOM     17  C   UNL     1      34.245 -15.260 -20.479  0.00  0.00    +0.085 C 
ENDBRANCH  14  16
ENDBRANCH  13  14
ENDBRANCH   5  13
ENDBRANCH   3   5
BRANCH   2  18
ATOM     18  C   UNL     1      33.878 -16.537 -25.362  0.00  0.00    +0.201 C 
BRANCH  18  20
ATOM     19  O   UNL     1      34.858 -18.705 -25.052  0.00  0.00    -0.248 OA
ATOM     20  C   UNL     1      34.458 -17.664 -24.540  0.00  0.00    +0.338 C 
BRANCH  20  21
ATOM     21  O   UNL     1      34.475 -17.381 -23.209  0.00  0.00    -0.442 OA
BRANCH  21  22
ATOM     22  C   UNL     1      35.505 -18.024 -22.450  0.00  0.00    +0.235 C 
BRANCH  22  23
ATOM     23  C   UNL     1      34.881 -19.040 -21.539  0.00  0.00    +0.021 C 
ATOM     24  C   UNL     1      35.690 -19.938 -20.852  0.00  0.00    -0.001 C 
ATOM     25  C   UNL     1      33.499 -19.073 -21.389  0.00  0.00    -0.001 C 
ATOM     26  C   UNL     1      35.109 -20.883 -20.006  0.00  0.00    -0.000 C 
ATOM     27  C   UNL     1      32.918 -20.017 -20.544  0.00  0.00    -0.000 C 
ATOM     28  C   UNL     1      33.723 -20.923 -19.851  0.00  0.00    -0.000 C 
ENDBRANCH  22  23
ENDBRANCH  21  22
ENDBRANCH  20  21
ENDBRANCH  18  20
ENDBRANCH   2  18
TORSDOF 11
ENDMDL
MODEL 5
REMARK VINA RESULT:      -9.8      7.100     10.654
REMARK  Name = 107751
REMARK  11 active torsions:
REMARK  status: ('A' for Active; 'I' for Inactive)
REMARK    1  A    between atoms: N_2  and  C_18
REMARK    2  A    between atoms: C_3  and  C_5
REMARK    3  A    between atoms: C_5  and  C_6
REMARK    4  A    between atoms: C_5  and  C_13
REMARK    5  A    between atoms: C_6  and  C_7
REMARK    6  A    between atoms: C_13  and  S_14
REMARK    7  A    between atoms: S_14  and  C_16
REMARK    8  A    between atoms: C_18  and  C_20
REMARK    9  A    between atoms: C_20  and  O_21
REMARK   10  A    between atoms: O_21  and  C_22
REMARK   11  A    between atoms: C_22  and  C_23
REMARK                            x       y       z     vdW  Elec       q    Type
REMARK                         _______ _______ _______ _____ _____    ______ ____
ROOT
ATOM      1  O   UNL     1      35.281 -18.896 -24.038  0.00  0.00    -0.275 OA
ATOM      2  N   UNL     1      34.653 -16.669 -23.873  0.00  0.00    -0.295 N 
ATOM      3  C   UNL     1      34.961 -17.921 -23.360  0.00  0.00    +0.224 C 
ATOM      4  H   UNL     1      34.408 -15.951 -23.247  0.00  0.00    +0.150 HD
ENDROOT
BRANCH   3   5
ATOM      5  C   UNL     1      34.857 -17.973 -21.830  0.00  0.00    +0.092 C 
BRANCH   5   6
ATOM      6  C   UNL     1      33.681 -18.877 -21.400  0.00  0.00    +0.036 C 
BRANCH   6   7
ATOM      7  C   UNL     1      34.090 -20.052 -20.546  0.00  0.00    -0.022 C 
ATOM      8  C   UNL     1      33.114 -20.788 -19.892  0.00  0.00    -0.004 C 
ATOM      9  C   UNL     1      35.432 -20.375 -20.433  0.00  0.00    -0.004 C 
ATOM     10  C   UNL     1      33.492 -21.875 -19.103  0.00  0.00    -0.000 C 
ATOM     11  C   UNL     1      35.810 -21.463 -19.644  0.00  0.00    -0.000 C 
ATOM     12  C   UNL     1      34.839 -22.212 -18.979  0.00  0.00    -0.000 C 
ENDBRANCH   6   7
ENDBRANCH   5   6
BRANCH   5  13
ATOM     13  C   UNL     1      34.828 -16.553 -21.229  0.00  0.00    +0.074 C 
BRANCH  13  14
ATOM     14  S   UNL     1      33.161 -15.861 -20.985  0.00  0.00    -0.077 S 
BRANCH  14  16
ATOM     15  O   UNL     1      34.361 -13.923 -22.328  0.00  0.00    -0.285 OA
ATOM     16  C   UNL     1      33.406 -14.240 -21.628  0.00  0.00    +0.199 C 
ATOM     17  C   UNL     1      32.326 -13.274 -21.230  0.00  0.00    +0.085 C 
ENDBRANCH  14  16
ENDBRANCH  13  14
ENDBRANCH   5  13
ENDBRANCH   3   5
BRANCH   2  18
ATOM     18  C   UNL     1      34.677 -16.375 -25.288  0.00  0.00    +0.201 C 
BRANCH  18  20
ATOM     19  O   UNL     1      32.638 -16.107 -26.523  0.00  0.00    -0.248 OA
ATOM     20  C   UNL     1      33.461 -15.614 -25.757  0.00  0.00    +0.338 C 
BRANCH  20  21
ATOM     21  O   UNL     1      33.402 -14.357 -25.238  0.00  0.00    -0.442 OA
BRANCH  21  22
ATOM     22  C   UNL     1      33.272 -13.296 -26.192  0.00  0.00    +0.235 C 
BRANCH  22  23
ATOM     23  C   UNL     1      33.900 -12.054 -25.630  0.00  0.00    +0.021 C 
ATOM     24  C   UNL     1      34.907 -11.410 -26.340  0.00  0.00    -0.001 C 
ATOM     25  C   UNL     1      33.467 -11.558 -24.405  0.00  0.00    -0.001 C 
ATOM     26  C   UNL     1      35.491 -10.257 -25.817  0.00  0.00    -0.000 C 
ATOM     27  C   UNL     1      34.051 -10.404 -23.883  0.00  0.00    -0.000 C 
ATOM     28  C   UNL     1      35.063  -9.752 -24.589  0.00  0.00    -0.000 C 
ENDBRANCH  22  23
ENDBRANCH  21  22
ENDBRANCH  20  21
ENDBRANCH  18  20
ENDBRANCH   2  18
TORSDOF 11
ENDMDL
MODEL 6
REMARK VINA RESULT:      -9.7      7.527     12.147
REMARK  Name = 107751
REMARK  11 active torsions:
REMARK  status: ('A' for Active; 'I' for Inactive)
REMARK    1  A    between atoms: N_2  and  C_18
REMARK    2  A    between atoms: C_3  and  C_5
REMARK    3  A    between atoms: C_5  and  C_6
REMARK    4  A    between atoms: C_5  and  C_13
REMARK    5  A    between atoms: C_6  and  C_7
REMARK    6  A    between atoms: C_13  and  S_14
REMARK    7  A    between atoms: S_14  and  C_16
REMARK    8  A    between atoms: C_18  and  C_20
REMARK    9  A    between atoms: C_20  and  O_21
REMARK   10  A    between atoms: O_21  and  C_22
REMARK   11  A    between atoms: C_22  and  C_23
REMARK                            x       y       z     vdW  Elec       q    Type
REMARK                         _______ _______ _______ _____ _____    ______ ____
ROOT
ATOM      1  O   UNL     1      32.282 -13.997 -20.174  0.00  0.00    -0.275 OA
ATOM      2  N   UNL     1      33.986 -14.499 -21.665  0.00  0.00    -0.295 N 
ATOM      3  C   UNL     1      32.828 -13.848 -21.266  0.00  0.00    +0.224 C 
ATOM      4  H   UNL     1      34.347 -14.312 -22.562  0.00  0.00    +0.150 HD
ENDROOT
BRANCH   3   5
ATOM      5  C   UNL     1      32.280 -12.905 -22.345  0.00  0.00    +0.092 C 
BRANCH   5   6
ATOM      6  C   UNL     1      33.434 -12.329 -23.195  0.00  0.00    +0.036 C 
BRANCH   6   7
ATOM      7  C   UNL     1      33.403 -12.757 -24.642  0.00  0.00    -0.022 C 
ATOM      8  C   UNL     1      33.822 -11.870 -25.621  0.00  0.00    -0.004 C 
ATOM      9  C   UNL     1      32.956 -14.027 -24.966  0.00  0.00    -0.004 C 
ATOM     10  C   UNL     1      33.795 -12.265 -26.959  0.00  0.00    -0.000 C 
ATOM     11  C   UNL     1      32.928 -14.423 -26.304  0.00  0.00    -0.000 C 
ATOM     12  C   UNL     1      33.347 -13.540 -27.301  0.00  0.00    -0.000 C 
ENDBRANCH   6   7
ENDBRANCH   5   6
BRANCH   5  13
ATOM     13  C   UNL     1      31.346 -11.843 -21.729  0.00  0.00    +0.074 C 
BRANCH  13  14
ATOM     14  S   UNL     1      31.960 -10.132 -21.835  0.00  0.00    -0.077 S 
BRANCH  14  16
ATOM     15  O   UNL     1      32.362  -8.633 -19.692  0.00  0.00    -0.285 OA
ATOM     16  C   UNL     1      31.918  -9.687 -20.132  0.00  0.00    +0.199 C 
ATOM     17  C   UNL     1      31.283 -10.735 -19.261  0.00  0.00    +0.085 C 
ENDBRANCH  14  16
ENDBRANCH  13  14
ENDBRANCH   5  13
ENDBRANCH   3   5
BRANCH   2  18
ATOM     18  C   UNL     1      34.686 -15.440 -20.821  0.00  0.00    +0.201 C 
BRANCH  18  20
ATOM     19  O   UNL     1      34.492 -17.027 -22.611  0.00  0.00    -0.248 OA
ATOM     20  C   UNL     1      34.878 -16.791 -21.470  0.00  0.00    +0.338 C 
BRANCH  20  21
ATOM     21  O   UNL     1      35.510 -17.675 -20.651  0.00  0.00    -0.442 OA
BRANCH  21  22
ATOM     22  C   UNL     1      35.884 -18.921 -21.251  0.00  0.00    +0.235 C 
BRANCH  22  23
ATOM     23  C   UNL     1      35.189 -20.039 -20.533  0.00  0.00    +0.021 C 
ATOM     24  C   UNL     1      33.800 -20.106 -20.544  0.00  0.00    -0.001 C 
ATOM     25  C   UNL     1      35.939 -20.999 -19.863  0.00  0.00    -0.001 C 
ATOM     26  C   UNL     1      33.153 -21.144 -19.875  0.00  0.00    -0.000 C 
ATOM     27  C   UNL     1      35.293 -22.038 -19.195  0.00  0.00    -0.000 C 
ATOM     28  C   UNL     1      33.899 -22.112 -19.201  0.00  0.00    -0.000 C 
ENDBRANCH  22  23
ENDBRANCH  21  22
ENDBRANCH  20  21
ENDBRANCH  18  20
ENDBRANCH   2  18
TORSDOF 11
ENDMDL
MODEL 7
REMARK VINA RESULT:      -9.7      7.597     12.220
REMARK  Name = 107751
REMARK  11 active torsions:
REMARK  status: ('A' for Active; 'I' for Inactive)
REMARK    1  A    between atoms: N_2  and  C_18
REMARK    2  A    between atoms: C_3  and  C_5
REMARK    3  A    between atoms: C_5  and  C_6
REMARK    4  A    between atoms: C_5  and  C_13
REMARK    5  A    between atoms: C_6  and  C_7
REMARK    6  A    between atoms: C_13  and  S_14
REMARK    7  A    between atoms: S_14  and  C_16
REMARK    8  A    between atoms: C_18  and  C_20
REMARK    9  A    between atoms: C_20  and  O_21
REMARK   10  A    between atoms: O_21  and  C_22
REMARK   11  A    between atoms: C_22  and  C_23
REMARK                            x       y       z     vdW  Elec       q    Type
REMARK                         _______ _______ _______ _____ _____    ______ ____
ROOT
ATOM      1  O   UNL     1      32.267 -15.309 -21.641  0.00  0.00    -0.275 OA
ATOM      2  N   UNL     1      34.542 -15.269 -22.090  0.00  0.00    -0.295 N 
ATOM      3  C   UNL     1      33.275 -14.710 -22.012  0.00  0.00    +0.224 C 
ATOM      4  H   UNL     1      35.288 -14.705 -22.400  0.00  0.00    +0.150 HD
ENDROOT
BRANCH   3   5
ATOM      5  C   UNL     1      33.251 -13.239 -22.447  0.00  0.00    +0.092 C 
BRANCH   5   6
ATOM      6  C   UNL     1      31.840 -12.641 -22.254  0.00  0.00    +0.036 C 
BRANCH   6   7
ATOM      7  C   UNL     1      31.796 -11.466 -21.307  0.00  0.00    -0.022 C 
ATOM      8  C   UNL     1      31.612 -11.693 -19.952  0.00  0.00    -0.004 C 
ATOM      9  C   UNL     1      31.939 -10.183 -21.810  0.00  0.00    -0.004 C 
ATOM     10  C   UNL     1      31.572 -10.607 -19.077  0.00  0.00    -0.000 C 
ATOM     11  C   UNL     1      31.899  -9.097 -20.934  0.00  0.00    -0.000 C 
ATOM     12  C   UNL     1      31.715  -9.309 -19.568  0.00  0.00    -0.000 C 
ENDBRANCH   6   7
ENDBRANCH   5   6
BRANCH   5  13
ATOM     13  C   UNL     1      33.829 -13.073 -23.868  0.00  0.00    +0.074 C 
BRANCH  13  14
ATOM     14  S   UNL     1      33.006 -14.073 -25.149  0.00  0.00    -0.077 S 
BRANCH  14  16
ATOM     15  O   UNL     1      33.571 -13.714 -27.708  0.00  0.00    -0.285 OA
ATOM     16  C   UNL     1      33.529 -13.211 -26.592  0.00  0.00    +0.199 C 
ATOM     17  C   UNL     1      33.925 -11.787 -26.321  0.00  0.00    +0.085 C 
ENDBRANCH  14  16
ENDBRANCH  13  14
ENDBRANCH   5  13
ENDBRANCH   3   5
BRANCH   2  18
ATOM     18  C   UNL     1      34.815 -16.643 -21.736  0.00  0.00    +0.201 C 
BRANCH  18  20
ATOM     19  O   UNL     1      35.029 -17.097 -24.082  0.00  0.00    -0.248 OA
ATOM     20  C   UNL     1      35.017 -17.537 -22.936  0.00  0.00    +0.338 C 
BRANCH  20  21
ATOM     21  O   UNL     1      35.175 -18.843 -22.590  0.00  0.00    -0.442 OA
BRANCH  21  22
ATOM     22  C   UNL     1      35.905 -19.083 -21.381  0.00  0.00    +0.235 C 
BRANCH  22  23
ATOM     23  C   UNL     1      35.186 -20.122 -20.573  0.00  0.00    +0.021 C 
ATOM     24  C   UNL     1      33.796 -20.139 -20.553  0.00  0.00    -0.001 C 
ATOM     25  C   UNL     1      35.917 -21.060 -19.851  0.00  0.00    -0.001 C 
ATOM     26  C   UNL     1      33.128 -21.105 -19.800  0.00  0.00    -0.000 C 
ATOM     27  C   UNL     1      35.249 -22.025 -19.099  0.00  0.00    -0.000 C 
ATOM     28  C   UNL     1      33.854 -22.049 -19.073  0.00  0.00    -0.000 C 
ENDBRANCH  22  23
ENDBRANCH  21  22
ENDBRANCH  20  21
ENDBRANCH  18  20
ENDBRANCH   2  18
TORSDOF 11
ENDMDL
MODEL 8
REMARK VINA RESULT:      -9.6      9.812     13.945
REMARK  Name = 107751
REMARK  11 active torsions:
REMARK  status: ('A' for Active; 'I' for Inactive)
REMARK    1  A    between atoms: N_2  and  C_18
REMARK    2  A    between atoms: C_3  and  C_5
REMARK    3  A    between atoms: C_5  and  C_6
REMARK    4  A    between atoms: C_5  and  C_13
REMARK    5  A    between atoms: C_6  and  C_7
REMARK    6  A    between atoms: C_13  and  S_14
REMARK    7  A    between atoms: S_14  and  C_16
REMARK    8  A    between atoms: C_18  and  C_20
REMARK    9  A    between atoms: C_20  and  O_21
REMARK   10  A    between atoms: O_21  and  C_22
REMARK   11  A    between atoms: C_22  and  C_23
REMARK                            x       y       z     vdW  Elec       q    Type
REMARK                         _______ _______ _______ _____ _____    ______ ____
ROOT
ATOM      1  O   UNL     1      32.580 -13.669 -20.370  0.00  0.00    -0.275 OA
ATOM      2  N   UNL     1      31.628 -12.358 -22.030  0.00  0.00    -0.295 N 
ATOM      3  C   UNL     1      32.417 -13.397 -21.558  0.00  0.00    +0.224 C 
ATOM      4  H   UNL     1      31.561 -12.221 -23.003  0.00  0.00    +0.150 HD
ENDROOT
BRANCH   3   5
ATOM      5  C   UNL     1      33.087 -14.190 -22.689  0.00  0.00    +0.092 C 
BRANCH   5   6
ATOM      6  C   UNL     1      34.452 -14.743 -22.226  0.00  0.00    +0.036 C 
BRANCH   6   7
ATOM      7  C   UNL     1      34.585 -16.240 -22.358  0.00  0.00    -0.022 C 
ATOM      8  C   UNL     1      34.983 -16.782 -23.570  0.00  0.00    -0.004 C 
ATOM      9  C   UNL     1      34.308 -17.046 -21.266  0.00  0.00    -0.004 C 
ATOM     10  C   UNL     1      35.107 -18.166 -23.692  0.00  0.00    -0.000 C 
ATOM     11  C   UNL     1      34.432 -18.431 -21.388  0.00  0.00    -0.000 C 
ATOM     12  C   UNL     1      34.831 -18.991 -22.602  0.00  0.00    -0.000 C 
ENDBRANCH   6   7
ENDBRANCH   5   6
BRANCH   5  13
ATOM     13  C   UNL     1      33.138 -13.361 -23.990  0.00  0.00    +0.074 C 
BRANCH  13  14
ATOM     14  S   UNL     1      32.878 -14.319 -25.517  0.00  0.00    -0.077 S 
BRANCH  14  16
ATOM     15  O   UNL     1      33.796 -13.509 -27.862  0.00  0.00    -0.285 OA
ATOM     16  C   UNL     1      33.575 -13.211 -26.694  0.00  0.00    +0.199 C 
ATOM     17  C   UNL     1      33.880 -11.854 -26.124  0.00  0.00    +0.085 C 
ENDBRANCH  14  16
ENDBRANCH  13  14
ENDBRANCH   5  13
ENDBRANCH   3   5
BRANCH   2  18
ATOM     18  C   UNL     1      30.899 -11.469 -21.155  0.00  0.00    +0.201 C 
BRANCH  18  20
ATOM     19  O   UNL     1      31.942 -10.044 -19.531  0.00  0.00    -0.248 OA
ATOM     20  C   UNL     1      31.709 -10.273 -20.714  0.00  0.00    +0.338 C 
BRANCH  20  21
ATOM     21  O   UNL     1      32.128  -9.514 -21.763  0.00  0.00    -0.442 OA
BRANCH  21  22
ATOM     22  C   UNL     1      32.626  -8.213 -21.430  0.00  0.00    +0.235 C 
BRANCH  22  23
ATOM     23  C   UNL     1      33.018  -7.501 -22.691  0.00  0.00    +0.021 C 
ATOM     24  C   UNL     1      34.290  -7.690 -23.220  0.00  0.00    -0.001 C 
ATOM     25  C   UNL     1      32.107  -6.660 -23.319  0.00  0.00    -0.001 C 
ATOM     26  C   UNL     1      34.655  -7.027 -24.392  0.00  0.00    -0.000 C 
ATOM     27  C   UNL     1      32.472  -5.997 -24.490  0.00  0.00    -0.000 C 
ATOM     28  C   UNL     1      33.747  -6.181 -25.028  0.00  0.00    -0.000 C 
ENDBRANCH  22  23
ENDBRANCH  21  22
ENDBRANCH  20  21
ENDBRANCH  18  20
ENDBRANCH   2  18
TORSDOF 11
ENDMDL
MODEL 9
REMARK VINA RESULT:      -9.5     10.563     15.244
REMARK  Name = 107751
REMARK  11 active torsions:
REMARK  status: ('A' for Active; 'I' for Inactive)
REMARK    1  A    between atoms: N_2  and  C_18
REMARK    2  A    between atoms: C_3  and  C_5
REMARK    3  A    between atoms: C_5  and  C_6
REMARK    4  A    between atoms: C_5  and  C_13
REMARK    5  A    between atoms: C_6  and  C_7
REMARK    6  A    between atoms: C_13  and  S_14
REMARK    7  A    between atoms: S_14  and  C_16
REMARK    8  A    between atoms: C_18  and  C_20
REMARK    9  A    between atoms: C_20  and  O_21
REMARK   10  A    between atoms: O_21  and  C_22
REMARK   11  A    between atoms: C_22  and  C_23
REMARK                            x       y       z     vdW  Elec       q    Type
REMARK                         _______ _______ _______ _____ _____    ______ ____
ROOT
ATOM      1  O   UNL     1      34.941  -9.982 -23.999  0.00  0.00    -0.275 OA
ATOM      2  N   UNL     1      33.094 -11.347 -23.673  0.00  0.00    -0.295 N 
ATOM      3  C   UNL     1      33.747 -10.125 -23.742  0.00  0.00    +0.224 C 
ATOM      4  H   UNL     1      32.133 -11.357 -23.459  0.00  0.00    +0.150 HD
ENDROOT
BRANCH   3   5
ATOM      5  C   UNL     1      32.813  -8.941 -23.455  0.00  0.00    +0.092 C 
BRANCH   5   6
ATOM      6  C   UNL     1      33.632  -7.651 -23.227  0.00  0.00    +0.036 C 
BRANCH   6   7
ATOM      7  C   UNL     1      33.521  -6.647 -24.347  0.00  0.00    -0.022 C 
ATOM      8  C   UNL     1      34.585  -6.484 -25.221  0.00  0.00    -0.004 C 
ATOM      9  C   UNL     1      32.358  -5.907 -24.484  0.00  0.00    -0.004 C 
ATOM     10  C   UNL     1      34.482  -5.556 -26.258  0.00  0.00    -0.000 C 
ATOM     11  C   UNL     1      32.255  -4.979 -25.521  0.00  0.00    -0.000 C 
ATOM     12  C   UNL     1      33.318  -4.803 -26.408  0.00  0.00    -0.000 C 
ENDBRANCH   6   7
ENDBRANCH   5   6
BRANCH   5  13
ATOM     13  C   UNL     1      31.822  -9.280 -22.323  0.00  0.00    +0.074 C 
BRANCH  13  14
ATOM     14  S   UNL     1      32.256  -8.589 -20.695  0.00  0.00    -0.077 S 
BRANCH  14  16
ATOM     15  O   UNL     1      32.197 -10.061 -18.497  0.00  0.00    -0.285 OA
ATOM     16  C   UNL     1      31.835  -9.951 -19.663  0.00  0.00    +0.199 C 
ATOM     17  C   UNL     1      30.983 -10.979 -20.355  0.00  0.00    +0.085 C 
ENDBRANCH  14  16
ENDBRANCH  13  14
ENDBRANCH   5  13
ENDBRANCH   3   5
BRANCH   2  18
ATOM     18  C   UNL     1      33.764 -12.606 -23.901  0.00  0.00    +0.201 C 
BRANCH  18  20
ATOM     19  O   UNL     1      32.209 -13.644 -22.397  0.00  0.00    -0.248 OA
ATOM     20  C   UNL     1      33.045 -13.783 -23.285  0.00  0.00    +0.338 C 
BRANCH  20  21
ATOM     21  O   UNL     1      33.434 -14.970 -23.825  0.00  0.00    -0.442 OA
BRANCH  21  22
ATOM     22  C   UNL     1      34.756 -15.404 -23.486  0.00  0.00    +0.235 C 
BRANCH  22  23
ATOM     23  C   UNL     1      34.699 -16.830 -23.021  0.00  0.00    +0.021 C 
ATOM     24  C   UNL     1      34.393 -17.109 -21.694  0.00  0.00    -0.001 C 
ATOM     25  C   UNL     1      34.954 -17.858 -23.921  0.00  0.00    -0.001 C 
ATOM     26  C   UNL     1      34.341 -18.434 -21.261  0.00  0.00    -0.000 C 
ATOM     27  C   UNL     1      34.902 -19.183 -23.489  0.00  0.00    -0.000 C 
ATOM     28  C   UNL     1      34.595 -19.472 -22.159  0.00  0.00    -0.000 C 
ENDBRANCH  22  23
ENDBRANCH  21  22
ENDBRANCH  20  21
ENDBRANCH  18  20
ENDBRANCH   2  18
TORSDOF 11
ENDMDL
