MODEL 1
REMARK VINA RESULT:      -6.1      0.000      0.000
REMARK  Name = 448545
REMARK  7 active torsions:
REMARK  status: ('A' for Active; 'I' for Inactive)
REMARK    1  A    between atoms: N_1  and  S_12
REMARK    2  A    between atoms: N_2  and  C_29
REMARK    3  A    between atoms: C_3  and  C_22
REMARK    4  A    between atoms: C_10  and  C_21
REMARK    5  A    between atoms: S_12  and  C_16
REMARK    6  A    between atoms: C_22  and  C_23
REMARK    7  A    between atoms: C_29  and  C_32
REMARK                            x       y       z     vdW  Elec       q    Type
REMARK                         _______ _______ _______ _____ _____    ______ ____
ROOT
ATOM      1  N   UNL     1      33.797 -22.422 -16.939  0.00  0.00    -0.150 NA
ATOM      2  N   UNL     1      33.371 -24.592 -14.799  0.00  0.00    -0.301 N 
ATOM      3  C   UNL     1      32.500 -23.082 -16.597  0.00  0.00    +0.104 C 
ATOM      4  C   UNL     1      32.701 -24.515 -16.102  0.00  0.00    +0.109 C 
ATOM      5  C   UNL     1      34.752 -22.218 -15.818  0.00  0.00    +0.123 C 
ATOM      6  C   UNL     1      35.471 -23.461 -15.352  0.00  0.00    +0.010 C 
ATOM      7  C   UNL     1      34.769 -24.562 -14.811  0.00  0.00    +0.046 C 
ATOM      8  C   UNL     1      36.878 -23.470 -15.387  0.00  0.00    +0.009 C 
ATOM      9  C   UNL     1      35.528 -25.634 -14.296  0.00  0.00    +0.015 C 
ATOM     10  C   UNL     1      37.599 -24.550 -14.887  0.00  0.00    +0.068 C 
ATOM     11  C   UNL     1      36.923 -25.631 -14.335  0.00  0.00    +0.012 C 
ENDROOT
BRANCH   1  12
ATOM     12  S   UNL     1      34.479 -22.792 -18.466  0.00  0.00    +0.069 S 
ATOM     13  O   UNL     1      33.865 -23.999 -18.985  0.00  0.00    -0.152 OA
ATOM     14  O   UNL     1      35.920 -22.669 -18.387  0.00  0.00    -0.152 OA
BRANCH  12  16
ATOM     15  S   UNL     1      35.071 -20.592 -20.299  0.00  0.00    -0.067 S 
ATOM     16  C   UNL     1      33.873 -21.433 -19.418  0.00  0.00    +0.152 C 
ATOM     17  C   UNL     1      32.619 -20.905 -19.598  0.00  0.00    +0.027 C 
ATOM     18  C   UNL     1      32.639 -19.784 -20.479  0.00  0.00    +0.009 C 
ATOM     19  C   UNL     1      33.909 -19.506 -20.933  0.00  0.00    +0.037 C 
ENDBRANCH  12  16
ENDBRANCH   1  12
BRANCH  10  21
ATOM     20  N   UNL     1      40.189 -24.553 -14.990  0.00  0.00    -0.191 NA
ATOM     21  C   UNL     1      39.028 -24.552 -14.944  0.00  0.00    +0.100 C 
ENDBRANCH  10  21
BRANCH   3  22
ATOM     22  C   UNL     1      31.669 -22.219 -15.649  0.00  0.00    +0.046 C 
BRANCH  22  23
ATOM     23  C   UNL     1      30.194 -22.380 -15.903  0.00  0.00    -0.021 C 
ATOM     24  C   UNL     1      29.284 -21.905 -14.968  0.00  0.00    -0.004 C 
ATOM     25  C   UNL     1      29.764 -23.004 -17.067  0.00  0.00    -0.004 C 
ATOM     26  C   UNL     1      27.917 -22.055 -15.202  0.00  0.00    -0.000 C 
ATOM     27  C   UNL     1      28.396 -23.152 -17.299  0.00  0.00    -0.000 C 
ATOM     28  C   UNL     1      27.473 -22.679 -16.369  0.00  0.00    -0.000 C 
ENDBRANCH  22  23
ENDBRANCH   3  22
BRANCH   2  29
ATOM     29  C   UNL     1      32.676 -25.293 -13.728  0.00  0.00    +0.134 C 
BRANCH  29  32
ATOM     30  N   UNL     1      30.345 -24.733 -13.049  0.00  0.00    -0.317 N 
ATOM     31  N   UNL     1      29.099 -25.577 -14.681  0.00  0.00    -0.315 N 
ATOM     32  C   UNL     1      31.189 -25.302 -13.935  0.00  0.00    +0.058 C 
ATOM     33  C   UNL     1      30.426 -25.817 -14.929  0.00  0.00    +0.071 C 
ATOM     34  C   UNL     1      29.084 -24.923 -13.541  0.00  0.00    +0.182 C 
ATOM     35  H   UNL     1      30.590 -24.272 -12.214  0.00  0.00    +0.148 HD
ATOM     36  H   UNL     1      28.327 -25.838 -15.234  0.00  0.00    +0.148 HD
ENDBRANCH  29  32
ENDBRANCH   2  29
TORSDOF 7
ENDMDL
MODEL 2
REMARK VINA RESULT:      -5.5      2.162      6.706
REMARK  Name = 448545
REMARK  7 active torsions:
REMARK  status: ('A' for Active; 'I' for Inactive)
REMARK    1  A    between atoms: N_1  and  S_12
REMARK    2  A    between atoms: N_2  and  C_29
REMARK    3  A    between atoms: C_3  and  C_22
REMARK    4  A    between atoms: C_10  and  C_21
REMARK    5  A    between atoms: S_12  and  C_16
REMARK    6  A    between atoms: C_22  and  C_23
REMARK    7  A    between atoms: C_29  and  C_32
REMARK                            x       y       z     vdW  Elec       q    Type
REMARK                         _______ _______ _______ _____ _____    ______ ____
ROOT
ATOM      1  N   UNL     1      33.837 -24.184 -17.071  0.00  0.00    -0.150 NA
ATOM      2  N   UNL     1      33.285 -23.495 -14.123  0.00  0.00    -0.301 N 
ATOM      3  C   UNL     1      34.865 -23.967 -16.007  0.00  0.00    +0.104 C 
ATOM      4  C   UNL     1      34.386 -22.979 -14.943  0.00  0.00    +0.109 C 
ATOM      5  C   UNL     1      32.560 -24.809 -16.639  0.00  0.00    +0.123 C 
ATOM      6  C   UNL     1      31.625 -23.900 -15.877  0.00  0.00    +0.010 C 
ATOM      7  C   UNL     1      31.994 -23.334 -14.635  0.00  0.00    +0.046 C 
ATOM      8  C   UNL     1      30.331 -23.693 -16.391  0.00  0.00    +0.009 C 
ATOM      9  C   UNL     1      31.018 -22.591 -13.940  0.00  0.00    +0.015 C 
ATOM     10  C   UNL     1      29.396 -22.939 -15.688  0.00  0.00    +0.068 C 
ATOM     11  C   UNL     1      29.738 -22.392 -14.458  0.00  0.00    +0.012 C 
ENDROOT
BRANCH   1  12
ATOM     12  S   UNL     1      33.731 -22.999 -18.303  0.00  0.00    +0.069 S 
ATOM     13  O   UNL     1      32.663 -22.072 -17.985  0.00  0.00    -0.152 OA
ATOM     14  O   UNL     1      33.786 -23.650 -19.596  0.00  0.00    -0.152 OA
BRANCH  12  16
ATOM     15  S   UNL     1      35.916 -21.445 -19.469  0.00  0.00    -0.067 S 
ATOM     16  C   UNL     1      35.263 -22.154 -18.058  0.00  0.00    +0.152 C 
ATOM     17  C   UNL     1      36.048 -21.945 -16.952  0.00  0.00    +0.027 C 
ATOM     18  C   UNL     1      37.214 -21.187 -17.266  0.00  0.00    +0.009 C 
ATOM     19  C   UNL     1      37.267 -20.850 -18.600  0.00  0.00    +0.037 C 
ENDBRANCH  12  16
ENDBRANCH   1  12
BRANCH  10  21
ATOM     20  N   UNL     1      27.028 -22.548 -16.669  0.00  0.00    -0.191 NA
ATOM     21  C   UNL     1      28.090 -22.723 -16.230  0.00  0.00    +0.100 C 
ENDBRANCH  10  21
BRANCH   3  22
ATOM     22  C   UNL     1      35.359 -25.293 -15.432  0.00  0.00    +0.046 C 
BRANCH  22  23
ATOM     23  C   UNL     1      36.842 -25.267 -15.175  0.00  0.00    -0.021 C 
ATOM     24  C   UNL     1      37.470 -26.401 -14.677  0.00  0.00    -0.004 C 
ATOM     25  C   UNL     1      37.562 -24.109 -15.436  0.00  0.00    -0.004 C 
ATOM     26  C   UNL     1      38.844 -26.378 -14.437  0.00  0.00    -0.000 C 
ATOM     27  C   UNL     1      38.936 -24.086 -15.196  0.00  0.00    -0.000 C 
ATOM     28  C   UNL     1      39.577 -25.219 -14.697  0.00  0.00    -0.000 C 
ENDBRANCH  22  23
ENDBRANCH   3  22
BRANCH   2  29
ATOM     29  C   UNL     1      33.485 -23.541 -12.681  0.00  0.00    +0.134 C 
BRANCH  29  32
ATOM     30  N   UNL     1      35.879 -22.875 -12.496  0.00  0.00    -0.317 N 
ATOM     31  N   UNL     1      36.867 -24.673 -11.647  0.00  0.00    -0.315 N 
ATOM     32  C   UNL     1      34.919 -23.808 -12.322  0.00  0.00    +0.058 C 
ATOM     33  C   UNL     1      35.524 -24.903 -11.805  0.00  0.00    +0.071 C 
ATOM     34  C   UNL     1      37.048 -23.443 -12.073  0.00  0.00    +0.182 C 
ATOM     35  H   UNL     1      35.760 -21.966 -12.856  0.00  0.00    +0.148 HD
ATOM     36  H   UNL     1      37.546 -25.292 -11.293  0.00  0.00    +0.148 HD
ENDBRANCH  29  32
ENDBRANCH   2  29
TORSDOF 7
ENDMDL
MODEL 3
REMARK VINA RESULT:      -5.1      2.869      6.168
REMARK  Name = 448545
REMARK  7 active torsions:
REMARK  status: ('A' for Active; 'I' for Inactive)
REMARK    1  A    between atoms: N_1  and  S_12
REMARK    2  A    between atoms: N_2  and  C_29
REMARK    3  A    between atoms: C_3  and  C_22
REMARK    4  A    between atoms: C_10  and  C_21
REMARK    5  A    between atoms: S_12  and  C_16
REMARK    6  A    between atoms: C_22  and  C_23
REMARK    7  A    between atoms: C_29  and  C_32
REMARK                            x       y       z     vdW  Elec       q    Type
REMARK                         _______ _______ _______ _____ _____    ______ ____
ROOT
ATOM      1  N   UNL     1      32.630 -23.621 -15.169  0.00  0.00    -0.150 NA
ATOM      2  N   UNL     1      35.570 -22.714 -15.118  0.00  0.00    -0.301 N 
ATOM      3  C   UNL     1      33.294 -22.721 -16.161  0.00  0.00    +0.104 C 
ATOM      4  C   UNL     1      34.419 -21.902 -15.527  0.00  0.00    +0.109 C 
ATOM      5  C   UNL     1      33.475 -24.689 -14.575  0.00  0.00    +0.123 C 
ATOM      6  C   UNL     1      34.465 -24.221 -13.535  0.00  0.00    +0.010 C 
ATOM      7  C   UNL     1      35.499 -23.311 -13.855  0.00  0.00    +0.046 C 
ATOM      8  C   UNL     1      34.392 -24.780 -12.246  0.00  0.00    +0.009 C 
ATOM      9  C   UNL     1      36.445 -23.017 -12.853  0.00  0.00    +0.015 C 
ATOM     10  C   UNL     1      35.332 -24.456 -11.272  0.00  0.00    +0.068 C 
ATOM     11  C   UNL     1      36.363 -23.578 -11.577  0.00  0.00    +0.012 C 
ENDROOT
BRANCH   1  12
ATOM     12  S   UNL     1      31.456 -22.914 -14.142  0.00  0.00    +0.069 S 
ATOM     13  O   UNL     1      31.719 -21.493 -14.021  0.00  0.00    -0.152 OA
ATOM     14  O   UNL     1      31.296 -23.740 -12.963  0.00  0.00    -0.152 OA
BRANCH  12  16
ATOM     15  S   UNL     1      29.842 -24.649 -15.855  0.00  0.00    -0.067 S 
ATOM     16  C   UNL     1      30.010 -23.107 -15.137  0.00  0.00    +0.152 C 
ATOM     17  C   UNL     1      28.977 -22.263 -15.458  0.00  0.00    +0.027 C 
ATOM     18  C   UNL     1      28.025 -22.891 -16.313  0.00  0.00    +0.009 C 
ATOM     19  C   UNL     1      28.373 -24.191 -16.606  0.00  0.00    +0.037 C 
ENDBRANCH  12  16
ENDBRANCH   1  12
BRANCH  10  21
ATOM     20  N   UNL     1      35.157 -25.477  -8.896  0.00  0.00    -0.191 NA
ATOM     21  C   UNL     1      35.235 -25.020  -9.961  0.00  0.00    +0.100 C 
ENDBRANCH  10  21
BRANCH   3  22
ATOM     22  C   UNL     1      33.726 -23.490 -17.409  0.00  0.00    +0.046 C 
BRANCH  22  23
ATOM     23  C   UNL     1      34.089 -22.560 -18.535  0.00  0.00    -0.021 C 
ATOM     24  C   UNL     1      35.417 -22.444 -18.925  0.00  0.00    -0.004 C 
ATOM     25  C   UNL     1      33.093 -21.828 -19.167  0.00  0.00    -0.004 C 
ATOM     26  C   UNL     1      35.755 -21.582 -19.968  0.00  0.00    -0.000 C 
ATOM     27  C   UNL     1      33.432 -20.966 -20.210  0.00  0.00    -0.000 C 
ATOM     28  C   UNL     1      34.761 -20.843 -20.611  0.00  0.00    -0.000 C 
ENDBRANCH  22  23
ENDBRANCH   3  22
BRANCH   2  29
ATOM     29  C   UNL     1      36.869 -22.365 -15.675  0.00  0.00    +0.134 C 
BRANCH  29  32
ATOM     30  N   UNL     1      37.436 -24.771 -15.367  0.00  0.00    -0.317 N 
ATOM     31  N   UNL     1      39.650 -24.820 -15.518  0.00  0.00    -0.315 N 
ATOM     32  C   UNL     1      37.845 -23.503 -15.580  0.00  0.00    +0.058 C 
ATOM     33  C   UNL     1      39.196 -23.535 -15.672  0.00  0.00    +0.071 C 
ATOM     34  C   UNL     1      38.566 -25.540 -15.336  0.00  0.00    +0.182 C 
ATOM     35  H   UNL     1      36.508 -25.081 -15.256  0.00  0.00    +0.148 HD
ATOM     36  H   UNL     1      40.583 -25.134 -15.540  0.00  0.00    +0.148 HD
ENDBRANCH  29  32
ENDBRANCH   2  29
TORSDOF 7
ENDMDL
MODEL 4
REMARK VINA RESULT:      -4.6      3.286      5.875
REMARK  Name = 448545
REMARK  7 active torsions:
REMARK  status: ('A' for Active; 'I' for Inactive)
REMARK    1  A    between atoms: N_1  and  S_12
REMARK    2  A    between atoms: N_2  and  C_29
REMARK    3  A    between atoms: C_3  and  C_22
REMARK    4  A    between atoms: C_10  and  C_21
REMARK    5  A    between atoms: S_12  and  C_16
REMARK    6  A    between atoms: C_22  and  C_23
REMARK    7  A    between atoms: C_29  and  C_32
REMARK                            x       y       z     vdW  Elec       q    Type
REMARK                         _______ _______ _______ _____ _____    ______ ____
ROOT
ATOM      1  N   UNL     1      35.057 -24.591 -14.156  0.00  0.00    -0.150 NA
ATOM      2  N   UNL     1      36.784 -22.809 -15.976  0.00  0.00    -0.301 N 
ATOM      3  C   UNL     1      34.663 -23.267 -14.726  0.00  0.00    +0.104 C 
ATOM      4  C   UNL     1      35.870 -22.348 -14.926  0.00  0.00    +0.109 C 
ATOM      5  C   UNL     1      35.939 -25.439 -15.000  0.00  0.00    +0.123 C 
ATOM      6  C   UNL     1      37.383 -25.001 -15.063  0.00  0.00    +0.010 C 
ATOM      7  C   UNL     1      37.751 -23.745 -15.598  0.00  0.00    +0.046 C 
ATOM      8  C   UNL     1      38.374 -25.913 -14.654  0.00  0.00    +0.009 C 
ATOM      9  C   UNL     1      39.128 -23.466 -15.723  0.00  0.00    +0.015 C 
ATOM     10  C   UNL     1      39.725 -25.600 -14.774  0.00  0.00    +0.068 C 
ATOM     11  C   UNL     1      40.103 -24.378 -15.315  0.00  0.00    +0.012 C 
ENDROOT
BRANCH   1  12
ATOM     12  S   UNL     1      35.318 -24.663 -12.465  0.00  0.00    +0.069 S 
ATOM     13  O   UNL     1      35.615 -26.030 -12.084  0.00  0.00    -0.152 OA
ATOM     14  O   UNL     1      34.275 -23.917 -11.791  0.00  0.00    -0.152 OA
BRANCH  12  16
ATOM     15  S   UNL     1      38.180 -24.649 -11.871  0.00  0.00    -0.067 S 
ATOM     16  C   UNL     1      36.815 -23.735 -12.338  0.00  0.00    +0.152 C 
ATOM     17  C   UNL     1      37.112 -22.410 -12.541  0.00  0.00    +0.027 C 
ATOM     18  C   UNL     1      38.492 -22.136 -12.307  0.00  0.00    +0.009 C 
ATOM     19  C   UNL     1      39.188 -23.266 -11.937  0.00  0.00    +0.037 C 
ENDBRANCH  12  16
ENDBRANCH   1  12
BRANCH  10  21
ATOM     20  N   UNL     1      41.531 -27.285 -13.985  0.00  0.00    -0.191 NA
ATOM     21  C   UNL     1      40.721 -26.530 -14.339  0.00  0.00    +0.100 C 
ENDBRANCH  10  21
BRANCH   3  22
ATOM     22  C   UNL     1      33.807 -23.433 -15.981  0.00  0.00    +0.046 C 
BRANCH  22  23
ATOM     23  C   UNL     1      32.342 -23.269 -15.678  0.00  0.00    -0.021 C 
ATOM     24  C   UNL     1      31.460 -22.972 -16.708  0.00  0.00    -0.004 C 
ATOM     25  C   UNL     1      31.892 -23.413 -14.371  0.00  0.00    -0.004 C 
ATOM     26  C   UNL     1      30.102 -22.819 -16.428  0.00  0.00    -0.000 C 
ATOM     27  C   UNL     1      30.535 -23.260 -14.093  0.00  0.00    -0.000 C 
ATOM     28  C   UNL     1      29.640 -22.963 -15.119  0.00  0.00    -0.000 C 
ENDBRANCH  22  23
ENDBRANCH   3  22
BRANCH   2  29
ATOM     29  C   UNL     1      37.061 -21.894 -17.075  0.00  0.00    +0.134 C 
BRANCH  29  32
ATOM     30  N   UNL     1      35.887 -20.960 -19.063  0.00  0.00    -0.317 N 
ATOM     31  N   UNL     1      34.191 -22.357 -19.385  0.00  0.00    -0.315 N 
ATOM     32  C   UNL     1      35.969 -21.907 -18.105  0.00  0.00    +0.058 C 
ATOM     33  C   UNL     1      34.933 -22.757 -18.302  0.00  0.00    +0.071 C 
ATOM     34  C   UNL     1      34.791 -21.272 -19.820  0.00  0.00    +0.182 C 
ATOM     35  H   UNL     1      36.496 -20.197 -19.192  0.00  0.00    +0.148 HD
ATOM     36  H   UNL     1      33.386 -22.787 -19.753  0.00  0.00    +0.148 HD
ENDBRANCH  29  32
ENDBRANCH   2  29
TORSDOF 7
ENDMDL
MODEL 5
REMARK VINA RESULT:      -3.9     12.123     16.507
REMARK  Name = 448545
REMARK  7 active torsions:
REMARK  status: ('A' for Active; 'I' for Inactive)
REMARK    1  A    between atoms: N_1  and  S_12
REMARK    2  A    between atoms: N_2  and  C_29
REMARK    3  A    between atoms: C_3  and  C_22
REMARK    4  A    between atoms: C_10  and  C_21
REMARK    5  A    between atoms: S_12  and  C_16
REMARK    6  A    between atoms: C_22  and  C_23
REMARK    7  A    between atoms: C_29  and  C_32
REMARK                            x       y       z     vdW  Elec       q    Type
REMARK                         _______ _______ _______ _____ _____    ______ ____
ROOT
ATOM      1  N   UNL     1      33.056  -9.346 -24.020  0.00  0.00    -0.150 NA
ATOM      2  N   UNL     1      31.926  -8.006 -21.490  0.00  0.00    -0.301 N 
ATOM      3  C   UNL     1      33.076  -9.912 -22.636  0.00  0.00    +0.104 C 
ATOM      4  C   UNL     1      33.146  -8.816 -21.571  0.00  0.00    +0.109 C 
ATOM      5  C   UNL     1      31.879  -8.511 -24.376  0.00  0.00    +0.123 C 
ATOM      6  C   UNL     1      31.868  -7.126 -23.775  0.00  0.00    +0.010 C 
ATOM      7  C   UNL     1      31.831  -6.928 -22.376  0.00  0.00    +0.046 C 
ATOM      8  C   UNL     1      31.808  -6.022 -24.646  0.00  0.00    +0.009 C 
ATOM      9  C   UNL     1      31.708  -5.604 -21.906  0.00  0.00    +0.015 C 
ATOM     10  C   UNL     1      31.705  -4.726 -24.151  0.00  0.00    +0.068 C 
ATOM     11  C   UNL     1      31.649  -4.517 -22.779  0.00  0.00    +0.012 C 
ENDROOT
BRANCH   1  12
ATOM     12  S   UNL     1      34.560  -8.873 -24.688  0.00  0.00    +0.069 S 
ATOM     13  O   UNL     1      35.586  -8.962 -23.668  0.00  0.00    -0.152 OA
ATOM     14  O   UNL     1      34.379  -7.656 -25.453  0.00  0.00    -0.152 OA
BRANCH  12  16
ATOM     15  S   UNL     1      33.636 -11.421 -25.787  0.00  0.00    -0.067 S 
ATOM     16  C   UNL     1      34.825 -10.194 -25.830  0.00  0.00    +0.152 C 
ATOM     17  C   UNL     1      35.803 -10.442 -26.760  0.00  0.00    +0.027 C 
ATOM     18  C   UNL     1      35.576 -11.667 -27.454  0.00  0.00    +0.009 C 
ATOM     19  C   UNL     1      34.431 -12.300 -27.023  0.00  0.00    +0.037 C 
ENDBRANCH  12  16
ENDBRANCH   1  12
BRANCH  10  21
ATOM     20  N   UNL     1      31.627  -2.710 -25.779  0.00  0.00    -0.191 NA
ATOM     21  C   UNL     1      31.662  -3.613 -25.048  0.00  0.00    +0.100 C 
ENDBRANCH  10  21
BRANCH   3  22
ATOM     22  C   UNL     1      31.932 -10.901 -22.422  0.00  0.00    +0.046 C 
BRANCH  22  23
ATOM     23  C   UNL     1      32.441 -12.304 -22.229  0.00  0.00    -0.021 C 
ATOM     24  C   UNL     1      32.099 -13.004 -21.079  0.00  0.00    -0.004 C 
ATOM     25  C   UNL     1      33.247 -12.880 -23.202  0.00  0.00    -0.004 C 
ATOM     26  C   UNL     1      32.571 -14.304 -20.899  0.00  0.00    -0.000 C 
ATOM     27  C   UNL     1      33.718 -14.181 -23.021  0.00  0.00    -0.000 C 
ATOM     28  C   UNL     1      33.381 -14.892 -21.871  0.00  0.00    -0.000 C 
ENDBRANCH  22  23
ENDBRANCH   3  22
BRANCH   2  29
ATOM     29  C   UNL     1      31.247  -7.941 -20.204  0.00  0.00    +0.134 C 
BRANCH  29  32
ATOM     30  N   UNL     1      32.500  -9.572 -18.798  0.00  0.00    -0.317 N 
ATOM     31  N   UNL     1      31.046 -11.217 -18.467  0.00  0.00    -0.315 N 
ATOM     32  C   UNL     1      31.364  -9.229 -19.442  0.00  0.00    +0.058 C 
ATOM     33  C   UNL     1      30.479 -10.235 -19.239  0.00  0.00    +0.071 C 
ATOM     34  C   UNL     1      32.263 -10.788 -18.219  0.00  0.00    +0.182 C 
ATOM     35  H   UNL     1      33.334  -9.050 -18.754  0.00  0.00    +0.148 HD
ATOM     36  H   UNL     1      30.632 -12.058 -18.166  0.00  0.00    +0.148 HD
ENDBRANCH  29  32
ENDBRANCH   2  29
TORSDOF 7
ENDMDL
MODEL 6
REMARK VINA RESULT:      -3.7      2.564      6.872
REMARK  Name = 448545
REMARK  7 active torsions:
REMARK  status: ('A' for Active; 'I' for Inactive)
REMARK    1  A    between atoms: N_1  and  S_12
REMARK    2  A    between atoms: N_2  and  C_29
REMARK    3  A    between atoms: C_3  and  C_22
REMARK    4  A    between atoms: C_10  and  C_21
REMARK    5  A    between atoms: S_12  and  C_16
REMARK    6  A    between atoms: C_22  and  C_23
REMARK    7  A    between atoms: C_29  and  C_32
REMARK                            x       y       z     vdW  Elec       q    Type
REMARK                         _______ _______ _______ _____ _____    ______ ____
ROOT
ATOM      1  N   UNL     1      32.400 -23.713 -14.623  0.00  0.00    -0.150 NA
ATOM      2  N   UNL     1      35.333 -23.502 -15.532  0.00  0.00    -0.301 N 
ATOM      3  C   UNL     1      33.579 -24.352 -13.961  0.00  0.00    +0.104 C 
ATOM      4  C   UNL     1      34.685 -24.688 -14.963  0.00  0.00    +0.109 C 
ATOM      5  C   UNL     1      32.636 -22.390 -15.259  0.00  0.00    +0.123 C 
ATOM      6  C   UNL     1      33.389 -22.431 -16.567  0.00  0.00    +0.010 C 
ATOM      7  C   UNL     1      34.713 -22.922 -16.643  0.00  0.00    +0.046 C 
ATOM      8  C   UNL     1      32.772 -21.885 -17.709  0.00  0.00    +0.009 C 
ATOM      9  C   UNL     1      35.379 -22.817 -17.881  0.00  0.00    +0.015 C 
ATOM     10  C   UNL     1      33.451 -21.812 -18.921  0.00  0.00    +0.068 C 
ATOM     11  C   UNL     1      34.757 -22.273 -19.007  0.00  0.00    +0.012 C 
ENDROOT
BRANCH   1  12
ATOM     12  S   UNL     1      31.291 -24.753 -15.410  0.00  0.00    +0.069 S 
ATOM     13  O   UNL     1      30.956 -25.852 -14.526  0.00  0.00    -0.152 OA
ATOM     14  O   UNL     1      31.750 -25.003 -16.761  0.00  0.00    -0.152 OA
BRANCH  12  16
ATOM     15  S   UNL     1      28.718 -24.164 -16.666  0.00  0.00    -0.067 S 
ATOM     16  C   UNL     1      29.881 -23.694 -15.506  0.00  0.00    +0.152 C 
ATOM     17  C   UNL     1      29.521 -22.555 -14.831  0.00  0.00    +0.027 C 
ATOM     18  C   UNL     1      28.262 -22.053 -15.273  0.00  0.00    +0.009 C 
ATOM     19  C   UNL     1      27.716 -22.833 -16.269  0.00  0.00    +0.037 C 
ENDBRANCH  12  16
ENDBRANCH   1  12
BRANCH  10  21
ATOM     20  N   UNL     1      32.279 -20.828 -21.014  0.00  0.00    -0.191 NA
ATOM     21  C   UNL     1      32.805 -21.270 -20.076  0.00  0.00    +0.100 C 
ENDBRANCH  10  21
BRANCH   3  22
ATOM     22  C   UNL     1      34.063 -23.529 -12.769  0.00  0.00    +0.046 C 
BRANCH  22  23
ATOM     23  C   UNL     1      35.444 -23.940 -12.335  0.00  0.00    -0.021 C 
ATOM     24  C   UNL     1      36.429 -22.973 -12.182  0.00  0.00    -0.004 C 
ATOM     25  C   UNL     1      35.716 -25.281 -12.097  0.00  0.00    -0.004 C 
ATOM     26  C   UNL     1      37.709 -23.354 -11.781  0.00  0.00    -0.000 C 
ATOM     27  C   UNL     1      36.997 -25.660 -11.695  0.00  0.00    -0.000 C 
ATOM     28  C   UNL     1      37.993 -24.699 -11.537  0.00  0.00    -0.000 C 
ENDBRANCH  22  23
ENDBRANCH   3  22
BRANCH   2  29
ATOM     29  C   UNL     1      36.776 -23.383 -15.371  0.00  0.00    +0.134 C 
BRANCH  29  32
ATOM     30  N   UNL     1      38.753 -24.832 -14.929  0.00  0.00    -0.317 N 
ATOM     31  N   UNL     1      37.923 -26.891 -14.973  0.00  0.00    -0.315 N 
ATOM     32  C   UNL     1      37.431 -24.720 -15.179  0.00  0.00    +0.058 C 
ATOM     33  C   UNL     1      36.928 -25.977 -15.206  0.00  0.00    +0.071 C 
ATOM     34  C   UNL     1      39.010 -26.170 -14.811  0.00  0.00    +0.182 C 
ATOM     35  H   UNL     1      39.402 -24.097 -14.848  0.00  0.00    +0.148 HD
ATOM     36  H   UNL     1      37.842 -27.872 -14.936  0.00  0.00    +0.148 HD
ENDBRANCH  29  32
ENDBRANCH   2  29
TORSDOF 7
ENDMDL
MODEL 7
REMARK VINA RESULT:      -3.6      8.003     12.636
REMARK  Name = 448545
REMARK  7 active torsions:
REMARK  status: ('A' for Active; 'I' for Inactive)
REMARK    1  A    between atoms: N_1  and  S_12
REMARK    2  A    between atoms: N_2  and  C_29
REMARK    3  A    between atoms: C_3  and  C_22
REMARK    4  A    between atoms: C_10  and  C_21
REMARK    5  A    between atoms: S_12  and  C_16
REMARK    6  A    between atoms: C_22  and  C_23
REMARK    7  A    between atoms: C_29  and  C_32
REMARK                            x       y       z     vdW  Elec       q    Type
REMARK                         _______ _______ _______ _____ _____    ______ ____
ROOT
ATOM      1  N   UNL     1      33.329 -15.164 -21.384  0.00  0.00    -0.150 NA
ATOM      2  N   UNL     1      33.523 -14.033 -24.240  0.00  0.00    -0.301 N 
ATOM      3  C   UNL     1      33.338 -13.717 -21.763  0.00  0.00    +0.104 C 
ATOM      4  C   UNL     1      34.143 -13.466 -23.039  0.00  0.00    +0.109 C 
ATOM      5  C   UNL     1      32.671 -16.093 -22.339  0.00  0.00    +0.123 C 
ATOM      6  C   UNL     1      33.461 -16.394 -23.591  0.00  0.00    +0.010 C 
ATOM      7  C   UNL     1      33.800 -15.377 -24.513  0.00  0.00    +0.046 C 
ATOM      8  C   UNL     1      33.783 -17.735 -23.871  0.00  0.00    +0.009 C 
ATOM      9  C   UNL     1      34.438 -15.764 -25.709  0.00  0.00    +0.015 C 
ATOM     10  C   UNL     1      34.429 -18.083 -25.053  0.00  0.00    +0.068 C 
ATOM     11  C   UNL     1      34.752 -17.098 -25.976  0.00  0.00    +0.012 C 
ENDROOT
BRANCH   1  12
ATOM     12  S   UNL     1      34.707 -15.761 -20.562  0.00  0.00    +0.069 S 
ATOM     13  O   UNL     1      34.599 -15.441 -19.152  0.00  0.00    -0.152 OA
ATOM     14  O   UNL     1      35.897 -15.411 -21.311  0.00  0.00    -0.152 OA
BRANCH  12  16
ATOM     15  S   UNL     1      35.836 -18.379 -21.209  0.00  0.00    -0.067 S 
ATOM     16  C   UNL     1      34.449 -17.499 -20.737  0.00  0.00    +0.152 C 
ATOM     17  C   UNL     1      33.349 -18.301 -20.569  0.00  0.00    +0.027 C 
ATOM     18  C   UNL     1      33.646 -19.670 -20.835  0.00  0.00    +0.009 C 
ATOM     19  C   UNL     1      34.964 -19.852 -21.193  0.00  0.00    +0.037 C 
ENDBRANCH  12  16
ENDBRANCH   1  12
BRANCH  10  21
ATOM     20  N   UNL     1      35.038 -20.558 -25.527  0.00  0.00    -0.191 NA
ATOM     21  C   UNL     1      34.765 -19.449 -25.315  0.00  0.00    +0.100 C 
ENDBRANCH  10  21
BRANCH   3  22
ATOM     22  C   UNL     1      31.922 -13.146 -21.811  0.00  0.00    +0.046 C 
BRANCH  22  23
ATOM     23  C   UNL     1      31.831 -11.830 -21.086  0.00  0.00    -0.021 C 
ATOM     24  C   UNL     1      31.832 -10.647 -21.812  0.00  0.00    -0.004 C 
ATOM     25  C   UNL     1      31.750 -11.817 -19.699  0.00  0.00    -0.004 C 
ATOM     26  C   UNL     1      31.748  -9.427 -21.141  0.00  0.00    -0.000 C 
ATOM     27  C   UNL     1      31.666 -10.597 -19.029  0.00  0.00    -0.000 C 
ATOM     28  C   UNL     1      31.665  -9.403 -19.748  0.00  0.00    -0.000 C 
ENDBRANCH  22  23
ENDBRANCH   3  22
BRANCH   2  29
ATOM     29  C   UNL     1      33.229 -13.123 -25.339  0.00  0.00    +0.134 C 
BRANCH  29  32
ATOM     30  N   UNL     1      34.862 -11.478 -26.252  0.00  0.00    -0.317 N 
ATOM     31  N   UNL     1      35.015  -9.939 -24.660  0.00  0.00    -0.315 N 
ATOM     32  C   UNL     1      34.040 -11.861 -25.253  0.00  0.00    +0.058 C 
ATOM     33  C   UNL     1      34.135 -10.921 -24.283  0.00  0.00    +0.071 C 
ATOM     34  C   UNL     1      35.436 -10.304 -25.850  0.00  0.00    +0.182 C 
ATOM     35  H   UNL     1      35.018 -11.951 -27.102  0.00  0.00    +0.148 HD
ATOM     36  H   UNL     1      35.274  -9.137 -24.151  0.00  0.00    +0.148 HD
ENDBRANCH  29  32
ENDBRANCH   2  29
TORSDOF 7
ENDMDL
MODEL 8
REMARK VINA RESULT:      -3.5      9.493     13.600
REMARK  Name = 448545
REMARK  7 active torsions:
REMARK  status: ('A' for Active; 'I' for Inactive)
REMARK    1  A    between atoms: N_1  and  S_12
REMARK    2  A    between atoms: N_2  and  C_29
REMARK    3  A    between atoms: C_3  and  C_22
REMARK    4  A    between atoms: C_10  and  C_21
REMARK    5  A    between atoms: S_12  and  C_16
REMARK    6  A    between atoms: C_22  and  C_23
REMARK    7  A    between atoms: C_29  and  C_32
REMARK                            x       y       z     vdW  Elec       q    Type
REMARK                         _______ _______ _______ _____ _____    ______ ____
ROOT
ATOM      1  N   UNL     1      33.673 -12.613 -23.730  0.00  0.00    -0.150 NA
ATOM      2  N   UNL     1      32.146 -12.951 -21.080  0.00  0.00    -0.301 N 
ATOM      3  C   UNL     1      32.644 -11.680 -23.179  0.00  0.00    +0.104 C 
ATOM      4  C   UNL     1      31.603 -12.412 -22.331  0.00  0.00    +0.109 C 
ATOM      5  C   UNL     1      34.534 -13.309 -22.739  0.00  0.00    +0.123 C 
ATOM      6  C   UNL     1      33.867 -14.437 -21.988  0.00  0.00    +0.010 C 
ATOM      7  C   UNL     1      32.752 -14.209 -21.150  0.00  0.00    +0.046 C 
ATOM      8  C   UNL     1      34.437 -15.721 -22.071  0.00  0.00    +0.009 C 
ATOM      9  C   UNL     1      32.264 -15.299 -20.399  0.00  0.00    +0.015 C 
ATOM     10  C   UNL     1      33.921 -16.781 -21.330  0.00  0.00    +0.068 C 
ATOM     11  C   UNL     1      32.838 -16.568 -20.489  0.00  0.00    +0.012 C 
ENDROOT
BRANCH   1  12
ATOM     12  S   UNL     1      33.245 -13.503 -25.130  0.00  0.00    +0.069 S 
ATOM     13  O   UNL     1      31.859 -13.236 -25.461  0.00  0.00    -0.152 OA
ATOM     14  O   UNL     1      33.726 -14.862 -24.995  0.00  0.00    -0.152 OA
BRANCH  12  16
ATOM     15  S   UNL     1      34.809 -11.147 -25.871  0.00  0.00    -0.067 S 
ATOM     16  C   UNL     1      34.248 -12.692 -26.336  0.00  0.00    +0.152 C 
ATOM     17  C   UNL     1      34.677 -13.052 -27.589  0.00  0.00    +0.027 C 
ATOM     18  C   UNL     1      35.484 -12.039 -28.184  0.00  0.00    +0.009 C 
ATOM     19  C   UNL     1      35.637 -10.948 -27.357  0.00  0.00    +0.037 C 
ENDBRANCH  12  16
ENDBRANCH   1  12
BRANCH  10  21
ATOM     20  N   UNL     1      34.972 -19.143 -21.526  0.00  0.00    -0.191 NA
ATOM     21  C   UNL     1      34.501 -18.084 -21.438  0.00  0.00    +0.100 C 
ENDBRANCH  10  21
BRANCH   3  22
ATOM     22  C   UNL     1      33.292 -10.496 -22.463  0.00  0.00    +0.046 C 
BRANCH  22  23
ATOM     23  C   UNL     1      32.886  -9.185 -23.079  0.00  0.00    -0.021 C 
ATOM     24  C   UNL     1      33.863  -8.264 -23.434  0.00  0.00    -0.004 C 
ATOM     25  C   UNL     1      31.540  -8.912 -23.284  0.00  0.00    -0.004 C 
ATOM     26  C   UNL     1      33.487  -7.048 -24.005  0.00  0.00    -0.000 C 
ATOM     27  C   UNL     1      31.165  -7.696 -23.856  0.00  0.00    -0.000 C 
ATOM     28  C   UNL     1      32.137  -6.765 -24.216  0.00  0.00    -0.000 C 
ENDBRANCH  22  23
ENDBRANCH   3  22
BRANCH   2  29
ATOM     29  C   UNL     1      31.519 -12.524 -19.837  0.00  0.00    +0.134 C 
BRANCH  29  32
ATOM     30  N   UNL     1      30.717 -10.167 -19.934  0.00  0.00    -0.317 N 
ATOM     31  N   UNL     1      32.392  -8.998 -19.064  0.00  0.00    -0.315 N 
ATOM     32  C   UNL     1      31.683 -11.050 -19.602  0.00  0.00    +0.058 C 
ATOM     33  C   UNL     1      32.704 -10.334 -19.073  0.00  0.00    +0.071 C 
ATOM     34  C   UNL     1      31.189  -8.931 -19.590  0.00  0.00    +0.182 C 
ATOM     35  H   UNL     1      29.845 -10.373 -20.342  0.00  0.00    +0.148 HD
ATOM     36  H   UNL     1      32.947  -8.254 -18.737  0.00  0.00    +0.148 HD
ENDBRANCH  29  32
ENDBRANCH   2  29
TORSDOF 7
ENDMDL
MODEL 9
REMARK VINA RESULT:      -3.1      9.201     13.648
REMARK  Name = 448545
REMARK  7 active torsions:
REMARK  status: ('A' for Active; 'I' for Inactive)
REMARK    1  A    between atoms: N_1  and  S_12
REMARK    2  A    between atoms: N_2  and  C_29
REMARK    3  A    between atoms: C_3  and  C_22
REMARK    4  A    between atoms: C_10  and  C_21
REMARK    5  A    between atoms: S_12  and  C_16
REMARK    6  A    between atoms: C_22  and  C_23
REMARK    7  A    between atoms: C_29  and  C_32
REMARK                            x       y       z     vdW  Elec       q    Type
REMARK                         _______ _______ _______ _____ _____    ______ ____
ROOT
ATOM      1  N   UNL     1      33.755 -12.820 -23.980  0.00  0.00    -0.150 NA
ATOM      2  N   UNL     1      32.335 -12.470 -21.272  0.00  0.00    -0.301 N 
ATOM      3  C   UNL     1      33.015 -11.604 -23.522  0.00  0.00    +0.104 C 
ATOM      4  C   UNL     1      31.874 -11.957 -22.567  0.00  0.00    +0.109 C 
ATOM      5  C   UNL     1      34.472 -13.592 -22.932  0.00  0.00    +0.123 C 
ATOM      6  C   UNL     1      33.592 -14.428 -22.034  0.00  0.00    +0.010 C 
ATOM      7  C   UNL     1      32.611 -13.839 -21.204  0.00  0.00    +0.046 C 
ATOM      8  C   UNL     1      33.826 -15.815 -21.974  0.00  0.00    +0.009 C 
ATOM      9  C   UNL     1      31.914 -14.682 -20.315  0.00  0.00    +0.015 C 
ATOM     10  C   UNL     1      33.108 -16.624 -21.099  0.00  0.00    +0.068 C 
ATOM     11  C   UNL     1      32.155 -16.056 -20.264  0.00  0.00    +0.012 C 
ENDROOT
BRANCH   1  12
ATOM     12  S   UNL     1      33.050 -13.726 -25.251  0.00  0.00    +0.069 S 
ATOM     13  O   UNL     1      33.419 -13.134 -26.522  0.00  0.00    -0.152 OA
ATOM     14  O   UNL     1      31.662 -13.992 -24.932  0.00  0.00    -0.152 OA
BRANCH  12  16
ATOM     15  S   UNL     1      33.178 -16.595 -25.797  0.00  0.00    -0.067 S 
ATOM     16  C   UNL     1      33.942 -15.242 -25.088  0.00  0.00    +0.152 C 
ATOM     17  C   UNL     1      35.140 -15.562 -24.500  0.00  0.00    +0.027 C 
ATOM     18  C   UNL     1      35.441 -16.949 -24.633  0.00  0.00    +0.009 C 
ATOM     19  C   UNL     1      34.457 -17.628 -25.318  0.00  0.00    +0.037 C 
ENDBRANCH  12  16
ENDBRANCH   1  12
BRANCH  10  21
ATOM     20  N   UNL     1      33.540 -19.179 -21.032  0.00  0.00    -0.191 NA
ATOM     21  C   UNL     1      33.347 -18.033 -21.061  0.00  0.00    +0.100 C 
ENDBRANCH  10  21
BRANCH   3  22
ATOM     22  C   UNL     1      33.969 -10.547 -22.970  0.00  0.00    +0.046 C 
BRANCH  22  23
ATOM     23  C   UNL     1      33.676  -9.185 -23.539  0.00  0.00    -0.021 C 
ATOM     24  C   UNL     1      32.378  -8.867 -23.918  0.00  0.00    -0.004 C 
ATOM     25  C   UNL     1      34.706  -8.264 -23.679  0.00  0.00    -0.004 C 
ATOM     26  C   UNL     1      32.105  -7.605 -24.446  0.00  0.00    -0.000 C 
ATOM     27  C   UNL     1      34.432  -7.003 -24.207  0.00  0.00    -0.000 C 
ATOM     28  C   UNL     1      33.133  -6.673 -24.590  0.00  0.00    -0.000 C 
ENDBRANCH  22  23
ENDBRANCH   3  22
BRANCH   2  29
ATOM     29  C   UNL     1      31.897 -11.764 -20.076  0.00  0.00    +0.134 C 
BRANCH  29  32
ATOM     30  N   UNL     1      32.763  -9.488 -19.553  0.00  0.00    -0.317 N 
ATOM     31  N   UNL     1      31.592  -8.154 -20.887  0.00  0.00    -0.315 N 
ATOM     32  C   UNL     1      31.925 -10.274 -20.261  0.00  0.00    +0.058 C 
ATOM     33  C   UNL     1      31.211  -9.459 -21.073  0.00  0.00    +0.071 C 
ATOM     34  C   UNL     1      32.527  -8.205 -19.965  0.00  0.00    +0.182 C 
ATOM     35  H   UNL     1      33.414  -9.779 -18.874  0.00  0.00    +0.148 HD
ATOM     36  H   UNL     1      31.242  -7.355 -21.343  0.00  0.00    +0.148 HD
ENDBRANCH  29  32
ENDBRANCH   2  29
TORSDOF 7
ENDMDL
