MODEL 1
REMARK VINA RESULT:      -8.8      0.000      0.000
REMARK  Name = 60835
REMARK  6 active torsions:
REMARK  status: ('A' for Active; 'I' for Inactive)
REMARK    1  A    between atoms: C_1  and  C_3
REMARK    2  A    between atoms: C_1  and  O_7
REMARK    3  A    between atoms: C_1  and  C_18
REMARK    4  A    between atoms: O_7  and  C_8
REMARK    5  A    between atoms: C_18  and  C_19
REMARK    6  A    between atoms: C_19  and  N_20
REMARK                            x       y       z     vdW  Elec       q    Type
REMARK                         _______ _______ _______ _____ _____    ______ ____
ROOT
ATOM      1  C   UNL     1      34.955 -16.456 -22.646  0.00  0.00    +0.192 C 
ENDROOT
BRANCH   1   3
ATOM      2  S   UNL     1      33.641 -14.031 -22.537  0.00  0.00    -0.087 S 
ATOM      3  C   UNL     1      33.997 -15.560 -21.893  0.00  0.00    +0.047 C 
ATOM      4  C   UNL     1      33.362 -15.830 -20.723  0.00  0.00    +0.006 C 
ATOM      5  C   UNL     1      32.539 -14.736 -20.326  0.00  0.00    +0.007 C 
ATOM      6  C   UNL     1      32.597 -13.692 -21.222  0.00  0.00    +0.035 C 
ENDBRANCH   1   3
BRANCH   1   7
ATOM      7  O   UNL     1      34.477 -17.793 -22.526  0.00  0.00    -0.474 OA
BRANCH   7   8
ATOM      8  C   UNL     1      35.220 -18.647 -21.760  0.00  0.00    +0.139 C 
ATOM      9  C   UNL     1      34.610 -19.631 -20.965  0.00  0.00    +0.034 C 
ATOM     10  C   UNL     1      35.422 -20.494 -20.189  0.00  0.00    +0.003 C 
ATOM     11  C   UNL     1      36.608 -18.513 -21.790  0.00  0.00    +0.037 C 
ATOM     12  C   UNL     1      33.215 -19.781 -20.924  0.00  0.00    +0.003 C 
ATOM     13  C   UNL     1      36.818 -20.345 -20.231  0.00  0.00    +0.000 C 
ATOM     14  C   UNL     1      37.406 -19.361 -21.026  0.00  0.00    +0.003 C 
ATOM     15  C   UNL     1      34.813 -21.479 -19.394  0.00  0.00    +0.000 C 
ATOM     16  C   UNL     1      32.627 -20.765 -20.128  0.00  0.00    +0.000 C 
ATOM     17  C   UNL     1      33.425 -21.611 -19.364  0.00  0.00    +0.000 C 
ENDBRANCH   7   8
ENDBRANCH   1   7
BRANCH   1  18
ATOM     18  C   UNL     1      35.070 -16.119 -24.138  0.00  0.00    +0.025 C 
BRANCH  18  19
ATOM     19  C   UNL     1      34.593 -17.255 -25.044  0.00  0.00    -0.078 C 
BRANCH  19  20
ATOM     20  N   UNL     1      33.414 -16.838 -25.795  0.00  0.00    +0.382 N 
ATOM     21  C   UNL     1      33.391 -15.393 -25.965  0.00  0.00    -0.106 C 
ATOM     22  H   UNL     1      32.576 -17.128 -25.288  0.00  0.00    -0.085 HD
ATOM     23  H   UNL     1      33.441 -17.276 -26.715  0.00  0.00    -0.085 HD
ENDBRANCH  19  20
ENDBRANCH  18  19
ENDBRANCH   1  18
TORSDOF 6
ENDMDL
MODEL 2
REMARK VINA RESULT:      -8.2      3.927      8.631
REMARK  Name = 60835
REMARK  6 active torsions:
REMARK  status: ('A' for Active; 'I' for Inactive)
REMARK    1  A    between atoms: C_1  and  C_3
REMARK    2  A    between atoms: C_1  and  O_7
REMARK    3  A    between atoms: C_1  and  C_18
REMARK    4  A    between atoms: O_7  and  C_8
REMARK    5  A    between atoms: C_18  and  C_19
REMARK    6  A    between atoms: C_19  and  N_20
REMARK                            x       y       z     vdW  Elec       q    Type
REMARK                         _______ _______ _______ _____ _____    ______ ____
ROOT
ATOM      1  C   UNL     1      33.103 -12.954 -22.989  0.00  0.00    +0.192 C 
ENDROOT
BRANCH   1   3
ATOM      2  S   UNL     1      32.913 -14.295 -25.393  0.00  0.00    -0.087 S 
ATOM      3  C   UNL     1      33.302 -12.915 -24.487  0.00  0.00    +0.047 C 
ATOM      4  C   UNL     1      33.770 -11.879 -25.229  0.00  0.00    +0.006 C 
ATOM      5  C   UNL     1      33.817 -12.222 -26.612  0.00  0.00    +0.007 C 
ATOM      6  C   UNL     1      33.378 -13.508 -26.841  0.00  0.00    +0.035 C 
ENDBRANCH   1   3
BRANCH   1   7
ATOM      7  O   UNL     1      31.855 -12.328 -22.704  0.00  0.00    -0.474 OA
BRANCH   7   8
ATOM      8  C   UNL     1      31.832 -11.440 -21.666  0.00  0.00    +0.139 C 
ATOM      9  C   UNL     1      32.016 -10.064 -21.878  0.00  0.00    +0.034 C 
ATOM     10  C   UNL     1      31.984  -9.183 -20.771  0.00  0.00    +0.003 C 
ATOM     11  C   UNL     1      31.622 -11.941 -20.381  0.00  0.00    +0.037 C 
ATOM     12  C   UNL     1      32.228  -9.542 -23.165  0.00  0.00    +0.003 C 
ATOM     13  C   UNL     1      31.772  -9.704 -19.484  0.00  0.00    +0.000 C 
ATOM     14  C   UNL     1      31.591 -11.074 -19.292  0.00  0.00    +0.003 C 
ATOM     15  C   UNL     1      32.167  -7.806 -20.983  0.00  0.00    +0.000 C 
ATOM     16  C   UNL     1      32.408  -8.172 -23.357  0.00  0.00    +0.000 C 
ATOM     17  C   UNL     1      32.378  -7.306 -22.268  0.00  0.00    +0.000 C 
ENDBRANCH   7   8
ENDBRANCH   1   7
BRANCH   1  18
ATOM     18  C   UNL     1      33.070 -14.374 -22.409  0.00  0.00    +0.025 C 
BRANCH  18  19
ATOM     19  C   UNL     1      34.150 -14.611 -21.352  0.00  0.00    -0.078 C 
BRANCH  19  20
ATOM     20  N   UNL     1      34.679 -15.966 -21.469  0.00  0.00    +0.382 N 
ATOM     21  C   UNL     1      35.019 -16.272 -22.851  0.00  0.00    -0.106 C 
ATOM     22  H   UNL     1      33.974 -16.629 -21.143  0.00  0.00    -0.085 HD
ATOM     23  H   UNL     1      35.523 -16.037 -20.901  0.00  0.00    -0.085 HD
ENDBRANCH  19  20
ENDBRANCH  18  19
ENDBRANCH   1  18
TORSDOF 6
ENDMDL
MODEL 3
REMARK VINA RESULT:      -8.2      7.209     10.548
REMARK  Name = 60835
REMARK  6 active torsions:
REMARK  status: ('A' for Active; 'I' for Inactive)
REMARK    1  A    between atoms: C_1  and  C_3
REMARK    2  A    between atoms: C_1  and  O_7
REMARK    3  A    between atoms: C_1  and  C_18
REMARK    4  A    between atoms: O_7  and  C_8
REMARK    5  A    between atoms: C_18  and  C_19
REMARK    6  A    between atoms: C_19  and  N_20
REMARK                            x       y       z     vdW  Elec       q    Type
REMARK                         _______ _______ _______ _____ _____    ______ ____
ROOT
ATOM      1  C   UNL     1      36.457 -24.267 -14.580  0.00  0.00    +0.192 C 
ENDROOT
BRANCH   1   3
ATOM      2  S   UNL     1      37.426 -23.178 -12.237  0.00  0.00    -0.087 S 
ATOM      3  C   UNL     1      36.295 -24.117 -13.084  0.00  0.00    +0.047 C 
ATOM      4  C   UNL     1      35.327 -24.658 -12.301  0.00  0.00    +0.006 C 
ATOM      5  C   UNL     1      35.511 -24.291 -10.936  0.00  0.00    +0.007 C 
ATOM      6  C   UNL     1      36.615 -23.487 -10.760  0.00  0.00    +0.035 C 
ENDBRANCH   1   3
BRANCH   1   7
ATOM      7  O   UNL     1      36.179 -23.001 -15.172  0.00  0.00    -0.474 OA
BRANCH   7   8
ATOM      8  C   UNL     1      35.136 -22.946 -16.052  0.00  0.00    +0.139 C 
ATOM      9  C   UNL     1      35.293 -22.399 -17.336  0.00  0.00    +0.034 C 
ATOM     10  C   UNL     1      34.183 -22.365 -18.213  0.00  0.00    +0.003 C 
ATOM     11  C   UNL     1      33.903 -23.452 -15.638  0.00  0.00    +0.037 C 
ATOM     12  C   UNL     1      36.526 -21.886 -17.769  0.00  0.00    +0.003 C 
ATOM     13  C   UNL     1      32.949 -22.877 -17.781  0.00  0.00    +0.000 C 
ATOM     14  C   UNL     1      32.812 -23.418 -16.502  0.00  0.00    +0.003 C 
ATOM     15  C   UNL     1      34.339 -21.817 -19.498  0.00  0.00    +0.000 C 
ATOM     16  C   UNL     1      36.664 -21.346 -19.049  0.00  0.00    +0.000 C 
ATOM     17  C   UNL     1      35.572 -21.311 -19.911  0.00  0.00    +0.000 C 
ENDBRANCH   7   8
ENDBRANCH   1   7
BRANCH   1  18
ATOM     18  C   UNL     1      37.866 -24.698 -15.008  0.00  0.00    +0.025 C 
BRANCH  18  19
ATOM     19  C   UNL     1      38.186 -26.146 -14.637  0.00  0.00    -0.078 C 
BRANCH  19  20
ATOM     20  N   UNL     1      39.388 -26.200 -13.812  0.00  0.00    +0.382 N 
ATOM     21  C   UNL     1      40.470 -25.442 -14.422  0.00  0.00    -0.106 C 
ATOM     22  H   UNL     1      39.679 -27.174 -13.709  0.00  0.00    -0.085 HD
ATOM     23  H   UNL     1      39.177 -25.794 -12.901  0.00  0.00    -0.085 HD
ENDBRANCH  19  20
ENDBRANCH  18  19
ENDBRANCH   1  18
TORSDOF 6
ENDMDL
MODEL 4
REMARK VINA RESULT:      -8.1      4.775      8.058
REMARK  Name = 60835
REMARK  6 active torsions:
REMARK  status: ('A' for Active; 'I' for Inactive)
REMARK    1  A    between atoms: C_1  and  C_3
REMARK    2  A    between atoms: C_1  and  O_7
REMARK    3  A    between atoms: C_1  and  C_18
REMARK    4  A    between atoms: O_7  and  C_8
REMARK    5  A    between atoms: C_18  and  C_19
REMARK    6  A    between atoms: C_19  and  N_20
REMARK                            x       y       z     vdW  Elec       q    Type
REMARK                         _______ _______ _______ _____ _____    ______ ____
ROOT
ATOM      1  C   UNL     1      34.208 -22.624 -17.316  0.00  0.00    +0.192 C 
ENDROOT
BRANCH   1   3
ATOM      2  S   UNL     1      35.383 -24.159 -15.346  0.00  0.00    -0.087 S 
ATOM      3  C   UNL     1      35.450 -22.923 -16.507  0.00  0.00    +0.047 C 
ATOM      4  C   UNL     1      36.657 -22.306 -16.590  0.00  0.00    +0.006 C 
ATOM      5  C   UNL     1      37.581 -22.866 -15.661  0.00  0.00    +0.007 C 
ATOM      6  C   UNL     1      37.019 -23.883 -14.921  0.00  0.00    +0.035 C 
ENDBRANCH   1   3
BRANCH   1   7
ATOM      7  O   UNL     1      34.574 -22.656 -18.693  0.00  0.00    -0.474 OA
BRANCH   7   8
ATOM      8  C   UNL     1      34.232 -21.570 -19.448  0.00  0.00    +0.139 C 
ATOM      9  C   UNL     1      35.210 -20.741 -20.019  0.00  0.00    +0.034 C 
ATOM     10  C   UNL     1      34.805 -19.627 -20.795  0.00  0.00    +0.003 C 
ATOM     11  C   UNL     1      32.874 -21.306 -19.635  0.00  0.00    +0.037 C 
ATOM     12  C   UNL     1      36.580 -20.992 -19.842  0.00  0.00    +0.003 C 
ATOM     13  C   UNL     1      33.436 -19.375 -20.973  0.00  0.00    +0.000 C 
ATOM     14  C   UNL     1      32.477 -20.210 -20.397  0.00  0.00    +0.003 C 
ATOM     15  C   UNL     1      35.784 -18.797 -21.367  0.00  0.00    +0.000 C 
ATOM     16  C   UNL     1      37.538 -20.157 -20.417  0.00  0.00    +0.000 C 
ATOM     17  C   UNL     1      37.141 -19.061 -21.178  0.00  0.00    +0.000 C 
ENDBRANCH   7   8
ENDBRANCH   1   7
BRANCH   1  18
ATOM     18  C   UNL     1      33.073 -23.632 -17.098  0.00  0.00    +0.025 C 
BRANCH  18  19
ATOM     19  C   UNL     1      31.954 -23.088 -16.209  0.00  0.00    -0.078 C 
BRANCH  19  20
ATOM     20  N   UNL     1      30.810 -22.696 -17.025  0.00  0.00    +0.382 N 
ATOM     21  C   UNL     1      29.561 -22.932 -16.315  0.00  0.00    -0.106 C 
ATOM     22  H   UNL     1      30.812 -23.241 -17.888  0.00  0.00    -0.085 HD
ATOM     23  H   UNL     1      30.884 -21.700 -17.234  0.00  0.00    -0.085 HD
ENDBRANCH  19  20
ENDBRANCH  18  19
ENDBRANCH   1  18
TORSDOF 6
ENDMDL
MODEL 5
REMARK VINA RESULT:      -8.1      3.006      5.005
REMARK  Name = 60835
REMARK  6 active torsions:
REMARK  status: ('A' for Active; 'I' for Inactive)
REMARK    1  A    between atoms: C_1  and  C_3
REMARK    2  A    between atoms: C_1  and  O_7
REMARK    3  A    between atoms: C_1  and  C_18
REMARK    4  A    between atoms: O_7  and  C_8
REMARK    5  A    between atoms: C_18  and  C_19
REMARK    6  A    between atoms: C_19  and  N_20
REMARK                            x       y       z     vdW  Elec       q    Type
REMARK                         _______ _______ _______ _____ _____    ______ ____
ROOT
ATOM      1  C   UNL     1      33.238 -13.720 -23.630  0.00  0.00    +0.192 C 
ENDROOT
BRANCH   1   3
ATOM      2  S   UNL     1      33.852 -11.965 -25.669  0.00  0.00    -0.087 S 
ATOM      3  C   UNL     1      33.239 -13.447 -25.117  0.00  0.00    +0.047 C 
ATOM      4  C   UNL     1      32.794 -14.265 -26.106  0.00  0.00    +0.006 C 
ATOM      5  C   UNL     1      32.960 -13.657 -27.384  0.00  0.00    +0.007 C 
ATOM      6  C   UNL     1      33.524 -12.404 -27.292  0.00  0.00    +0.035 C 
ENDBRANCH   1   3
BRANCH   1   7
ATOM      7  O   UNL     1      34.536 -14.192 -23.279  0.00  0.00    -0.474 OA
BRANCH   7   8
ATOM      8  C   UNL     1      34.598 -15.359 -22.571  0.00  0.00    +0.139 C 
ATOM      9  C   UNL     1      34.630 -16.604 -23.219  0.00  0.00    +0.034 C 
ATOM     10  C   UNL     1      34.694 -17.786 -22.443  0.00  0.00    +0.003 C 
ATOM     11  C   UNL     1      34.627 -15.279 -21.179  0.00  0.00    +0.037 C 
ATOM     12  C   UNL     1      34.601 -16.704 -24.620  0.00  0.00    +0.003 C 
ATOM     13  C   UNL     1      34.723 -17.688 -21.042  0.00  0.00    +0.000 C 
ATOM     14  C   UNL     1      34.691 -16.442 -20.416  0.00  0.00    +0.003 C 
ATOM     15  C   UNL     1      34.726 -19.032 -23.091  0.00  0.00    +0.000 C 
ATOM     16  C   UNL     1      34.634 -17.950 -25.247  0.00  0.00    +0.000 C 
ATOM     17  C   UNL     1      34.696 -19.112 -24.483  0.00  0.00    +0.000 C 
ENDBRANCH   7   8
ENDBRANCH   1   7
BRANCH   1  18
ATOM     18  C   UNL     1      32.930 -12.483 -22.777  0.00  0.00    +0.025 C 
BRANCH  18  19
ATOM     19  C   UNL     1      31.901 -12.756 -21.680  0.00  0.00    -0.078 C 
BRANCH  19  20
ATOM     20  N   UNL     1      30.860 -11.734 -21.702  0.00  0.00    +0.382 N 
ATOM     21  C   UNL     1      31.382 -10.472 -22.208  0.00  0.00    -0.106 C 
ATOM     22  H   UNL     1      30.509 -11.594 -20.753  0.00  0.00    -0.085 HD
ATOM     23  H   UNL     1      30.109 -12.046 -22.316  0.00  0.00    -0.085 HD
ENDBRANCH  19  20
ENDBRANCH  18  19
ENDBRANCH   1  18
TORSDOF 6
ENDMDL
MODEL 6
REMARK VINA RESULT:      -8.1      3.544      6.077
REMARK  Name = 60835
REMARK  6 active torsions:
REMARK  status: ('A' for Active; 'I' for Inactive)
REMARK    1  A    between atoms: C_1  and  C_3
REMARK    2  A    between atoms: C_1  and  O_7
REMARK    3  A    between atoms: C_1  and  C_18
REMARK    4  A    between atoms: O_7  and  C_8
REMARK    5  A    between atoms: C_18  and  C_19
REMARK    6  A    between atoms: C_19  and  N_20
REMARK                            x       y       z     vdW  Elec       q    Type
REMARK                         _______ _______ _______ _____ _____    ______ ____
ROOT
ATOM      1  C   UNL     1      32.609 -12.024 -23.323  0.00  0.00    +0.192 C 
ENDROOT
BRANCH   1   3
ATOM      2  S   UNL     1      32.809  -9.309 -22.873  0.00  0.00    -0.087 S 
ATOM      3  C   UNL     1      33.366 -10.742 -23.590  0.00  0.00    +0.047 C 
ATOM      4  C   UNL     1      34.474 -10.584 -24.357  0.00  0.00    +0.006 C 
ATOM      5  C   UNL     1      34.897  -9.222 -24.366  0.00  0.00    +0.007 C 
ATOM      6  C   UNL     1      34.081  -8.421 -23.599  0.00  0.00    +0.035 C 
ENDBRANCH   1   3
BRANCH   1   7
ATOM      7  O   UNL     1      33.559 -13.010 -22.927  0.00  0.00    -0.474 OA
BRANCH   7   8
ATOM      8  C   UNL     1      33.675 -14.111 -23.727  0.00  0.00    +0.139 C 
ATOM      9  C   UNL     1      34.177 -15.325 -23.230  0.00  0.00    +0.034 C 
ATOM     10  C   UNL     1      34.279 -16.439 -24.098  0.00  0.00    +0.003 C 
ATOM     11  C   UNL     1      33.280 -13.996 -25.061  0.00  0.00    +0.037 C 
ATOM     12  C   UNL     1      34.579 -15.459 -21.891  0.00  0.00    +0.003 C 
ATOM     13  C   UNL     1      33.877 -16.305 -25.437  0.00  0.00    +0.000 C 
ATOM     14  C   UNL     1      33.380 -15.092 -25.914  0.00  0.00    +0.003 C 
ATOM     15  C   UNL     1      34.781 -17.653 -23.601  0.00  0.00    +0.000 C 
ATOM     16  C   UNL     1      35.076 -16.672 -21.415  0.00  0.00    +0.000 C 
ATOM     17  C   UNL     1      35.177 -17.767 -22.268  0.00  0.00    +0.000 C 
ENDBRANCH   7   8
ENDBRANCH   1   7
BRANCH   1  18
ATOM     18  C   UNL     1      31.556 -11.900 -22.215  0.00  0.00    +0.025 C 
BRANCH  18  19
ATOM     19  C   UNL     1      31.912 -12.699 -20.961  0.00  0.00    -0.078 C 
BRANCH  19  20
ATOM     20  N   UNL     1      31.890 -11.832 -19.788  0.00  0.00    +0.382 N 
ATOM     21  C   UNL     1      30.904 -10.772 -19.946  0.00  0.00    -0.106 C 
ATOM     22  H   UNL     1      32.813 -11.414 -19.664  0.00  0.00    -0.085 HD
ATOM     23  H   UNL     1      31.640 -12.392 -18.973  0.00  0.00    -0.085 HD
ENDBRANCH  19  20
ENDBRANCH  18  19
ENDBRANCH   1  18
TORSDOF 6
ENDMDL
MODEL 7
REMARK VINA RESULT:      -8.0      4.126      8.567
REMARK  Name = 60835
REMARK  6 active torsions:
REMARK  status: ('A' for Active; 'I' for Inactive)
REMARK    1  A    between atoms: C_1  and  C_3
REMARK    2  A    between atoms: C_1  and  O_7
REMARK    3  A    between atoms: C_1  and  C_18
REMARK    4  A    between atoms: O_7  and  C_8
REMARK    5  A    between atoms: C_18  and  C_19
REMARK    6  A    between atoms: C_19  and  N_20
REMARK                            x       y       z     vdW  Elec       q    Type
REMARK                         _______ _______ _______ _____ _____    ______ ____
ROOT
ATOM      1  C   UNL     1      33.262 -13.363 -23.165  0.00  0.00    +0.192 C 
ENDROOT
BRANCH   1   3
ATOM      2  S   UNL     1      34.661 -15.708 -23.562  0.00  0.00    -0.087 S 
ATOM      3  C   UNL     1      33.585 -14.509 -24.096  0.00  0.00    +0.047 C 
ATOM      4  C   UNL     1      33.110 -14.711 -25.351  0.00  0.00    +0.006 C 
ATOM      5  C   UNL     1      33.647 -15.905 -25.914  0.00  0.00    +0.007 C 
ATOM      6  C   UNL     1      34.505 -16.546 -25.048  0.00  0.00    +0.035 C 
ENDBRANCH   1   3
BRANCH   1   7
ATOM      7  O   UNL     1      32.695 -12.318 -23.950  0.00  0.00    -0.474 OA
BRANCH   7   8
ATOM      8  C   UNL     1      33.436 -11.178 -24.088  0.00  0.00    +0.139 C 
ATOM      9  C   UNL     1      33.174 -10.039 -23.310  0.00  0.00    +0.034 C 
ATOM     10  C   UNL     1      33.970  -8.881 -23.489  0.00  0.00    +0.003 C 
ATOM     11  C   UNL     1      34.465 -11.177 -25.031  0.00  0.00    +0.037 C 
ATOM     12  C   UNL     1      32.144 -10.022 -22.356  0.00  0.00    +0.003 C 
ATOM     13  C   UNL     1      35.001  -8.897 -24.442  0.00  0.00    +0.000 C 
ATOM     14  C   UNL     1      35.246 -10.038 -25.207  0.00  0.00    +0.003 C 
ATOM     15  C   UNL     1      33.709  -7.742 -22.710  0.00  0.00    +0.000 C 
ATOM     16  C   UNL     1      31.898  -8.881 -21.591  0.00  0.00    +0.000 C 
ATOM     17  C   UNL     1      32.679  -7.743 -21.769  0.00  0.00    +0.000 C 
ENDBRANCH   7   8
ENDBRANCH   1   7
BRANCH   1  18
ATOM     18  C   UNL     1      32.263 -13.729 -22.060  0.00  0.00    +0.025 C 
BRANCH  18  19
ATOM     19  C   UNL     1      32.892 -13.743 -20.666  0.00  0.00    -0.078 C 
BRANCH  19  20
ATOM     20  N   UNL     1      33.224 -15.110 -20.278  0.00  0.00    +0.382 N 
ATOM     21  C   UNL     1      32.177 -16.034 -20.689  0.00  0.00    -0.106 C 
ATOM     22  H   UNL     1      33.329 -15.153 -19.264  0.00  0.00    -0.085 HD
ATOM     23  H   UNL     1      34.095 -15.377 -20.738  0.00  0.00    -0.085 HD
ENDBRANCH  19  20
ENDBRANCH  18  19
ENDBRANCH   1  18
TORSDOF 6
ENDMDL
MODEL 8
REMARK VINA RESULT:      -8.0      5.778     10.418
REMARK  Name = 60835
REMARK  6 active torsions:
REMARK  status: ('A' for Active; 'I' for Inactive)
REMARK    1  A    between atoms: C_1  and  C_3
REMARK    2  A    between atoms: C_1  and  O_7
REMARK    3  A    between atoms: C_1  and  C_18
REMARK    4  A    between atoms: O_7  and  C_8
REMARK    5  A    between atoms: C_18  and  C_19
REMARK    6  A    between atoms: C_19  and  N_20
REMARK                            x       y       z     vdW  Elec       q    Type
REMARK                         _______ _______ _______ _____ _____    ______ ____
ROOT
ATOM      1  C   UNL     1      32.801 -11.096 -22.837  0.00  0.00    +0.192 C 
ENDROOT
BRANCH   1   3
ATOM      2  S   UNL     1      33.832 -11.853 -25.282  0.00  0.00    -0.087 S 
ATOM      3  C   UNL     1      33.760 -10.787 -23.963  0.00  0.00    +0.047 C 
ATOM      4  C   UNL     1      34.605  -9.729 -24.060  0.00  0.00    +0.006 C 
ATOM      5  C   UNL     1      35.353  -9.783 -25.272  0.00  0.00    +0.007 C 
ATOM      6  C   UNL     1      35.032 -10.887 -26.031  0.00  0.00    +0.035 C 
ENDBRANCH   1   3
BRANCH   1   7
ATOM      7  O   UNL     1      31.738 -10.150 -22.905  0.00  0.00    -0.474 OA
BRANCH   7   8
ATOM      8  C   UNL     1      31.858  -9.029 -22.133  0.00  0.00    +0.139 C 
ATOM      9  C   UNL     1      31.664  -7.747 -22.672  0.00  0.00    +0.034 C 
ATOM     10  C   UNL     1      31.799  -6.616 -21.831  0.00  0.00    +0.003 C 
ATOM     11  C   UNL     1      32.181  -9.195 -20.786  0.00  0.00    +0.037 C 
ATOM     12  C   UNL     1      31.338  -7.561 -24.025  0.00  0.00    +0.003 C 
ATOM     13  C   UNL     1      32.125  -6.801 -20.478  0.00  0.00    +0.000 C 
ATOM     14  C   UNL     1      32.314  -8.083 -19.959  0.00  0.00    +0.003 C 
ATOM     15  C   UNL     1      31.606  -5.333 -22.370  0.00  0.00    +0.000 C 
ATOM     16  C   UNL     1      31.150  -6.280 -24.543  0.00  0.00    +0.000 C 
ATOM     17  C   UNL     1      31.284  -5.168 -23.717  0.00  0.00    +0.000 C 
ENDBRANCH   7   8
ENDBRANCH   1   7
BRANCH   1  18
ATOM     18  C   UNL     1      32.196 -12.504 -22.910  0.00  0.00    +0.025 C 
BRANCH  18  19
ATOM     19  C   UNL     1      32.241 -13.244 -21.573  0.00  0.00    -0.078 C 
BRANCH  19  20
ATOM     20  N   UNL     1      32.655 -14.628 -21.779  0.00  0.00    +0.382 N 
ATOM     21  C   UNL     1      34.106 -14.742 -21.769  0.00  0.00    -0.106 C 
ATOM     22  H   UNL     1      32.300 -14.953 -22.679  0.00  0.00    -0.085 HD
ATOM     23  H   UNL     1      32.278 -15.197 -21.021  0.00  0.00    -0.085 HD
ENDBRANCH  19  20
ENDBRANCH  18  19
ENDBRANCH   1  18
TORSDOF 6
ENDMDL
MODEL 9
REMARK VINA RESULT:      -8.0      7.438     11.964
REMARK  Name = 60835
REMARK  6 active torsions:
REMARK  status: ('A' for Active; 'I' for Inactive)
REMARK    1  A    between atoms: C_1  and  C_3
REMARK    2  A    between atoms: C_1  and  O_7
REMARK    3  A    between atoms: C_1  and  C_18
REMARK    4  A    between atoms: O_7  and  C_8
REMARK    5  A    between atoms: C_18  and  C_19
REMARK    6  A    between atoms: C_19  and  N_20
REMARK                            x       y       z     vdW  Elec       q    Type
REMARK                         _______ _______ _______ _____ _____    ______ ____
ROOT
ATOM      1  C   UNL     1      31.974  -8.948 -22.694  0.00  0.00    +0.192 C 
ENDROOT
BRANCH   1   3
ATOM      2  S   UNL     1      31.402 -11.316 -21.397  0.00  0.00    -0.087 S 
ATOM      3  C   UNL     1      31.871  -9.685 -21.378  0.00  0.00    +0.047 C 
ATOM      4  C   UNL     1      32.112  -9.193 -20.136  0.00  0.00    +0.006 C 
ATOM      5  C   UNL     1      31.906 -10.194 -19.142  0.00  0.00    +0.007 C 
ATOM      6  C   UNL     1      31.518 -11.396 -19.690  0.00  0.00    +0.035 C 
ENDBRANCH   1   3
BRANCH   1   7
ATOM      7  O   UNL     1      32.743  -7.769 -22.467  0.00  0.00    -0.474 OA
BRANCH   7   8
ATOM      8  C   UNL     1      32.137  -6.575 -22.737  0.00  0.00    +0.139 C 
ATOM      9  C   UNL     1      32.431  -5.854 -23.905  0.00  0.00    +0.034 C 
ATOM     10  C   UNL     1      31.777  -4.621 -24.141  0.00  0.00    +0.003 C 
ATOM     11  C   UNL     1      31.212  -6.088 -21.812  0.00  0.00    +0.037 C 
ATOM     12  C   UNL     1      33.359  -6.330 -24.847  0.00  0.00    +0.003 C 
ATOM     13  C   UNL     1      30.849  -4.145 -23.200  0.00  0.00    +0.000 C 
ATOM     14  C   UNL     1      30.569  -4.875 -22.044  0.00  0.00    +0.003 C 
ATOM     15  C   UNL     1      32.071  -3.900 -25.310  0.00  0.00    +0.000 C 
ATOM     16  C   UNL     1      33.639  -5.600 -26.003  0.00  0.00    +0.000 C 
ATOM     17  C   UNL     1      32.996  -4.387 -26.233  0.00  0.00    +0.000 C 
ENDBRANCH   7   8
ENDBRANCH   1   7
BRANCH   1  18
ATOM     18  C   UNL     1      32.655  -9.759 -23.803  0.00  0.00    +0.025 C 
BRANCH  18  19
ATOM     19  C   UNL     1      34.178  -9.622 -23.795  0.00  0.00    -0.078 C 
BRANCH  19  20
ATOM     20  N   UNL     1      34.791 -10.788 -24.421  0.00  0.00    +0.382 N 
ATOM     21  C   UNL     1      33.835 -11.879 -24.533  0.00  0.00    -0.106 C 
ATOM     22  H   UNL     1      35.583 -11.094 -23.854  0.00  0.00    -0.085 HD
ATOM     23  H   UNL     1      35.103 -10.529 -25.357  0.00  0.00    -0.085 HD
ENDBRANCH  19  20
ENDBRANCH  18  19
ENDBRANCH   1  18
TORSDOF 6
ENDMDL
