MODEL 1
REMARK VINA RESULT:     -10.5      0.000      0.000
REMARK  Name = 11701820
REMARK  4 active torsions:
REMARK  status: ('A' for Active; 'I' for Inactive)
REMARK    1  A    between atoms: C_1  and  C_13
REMARK    2  A    between atoms: C_2  and  C_8
REMARK    3  A    between atoms: C_13  and  N_14
REMARK    4  A    between atoms: N_14  and  C_17
REMARK                            x       y       z     vdW  Elec       q    Type
REMARK                         _______ _______ _______ _____ _____    ______ ____
ROOT
ATOM      1  C   UNL     1      34.622 -16.416 -22.659  0.00  0.00    -0.003 C 
ATOM      2  C   UNL     1      34.477 -18.748 -22.044  0.00  0.00    +0.001 C 
ATOM      3  C   UNL     1      34.420 -17.399 -21.691  0.00  0.00    -0.003 C 
ATOM      4  C   UNL     1      34.880 -16.779 -23.980  0.00  0.00    -0.003 C 
ATOM      5  C   UNL     1      34.735 -19.111 -23.365  0.00  0.00    +0.000 C 
ATOM      6  C   UNL     1      34.937 -18.128 -24.334  0.00  0.00    -0.000 C 
ENDROOT
BRANCH   2   8
ATOM      7  N   UNL     1      32.725 -21.035 -19.679  0.00  0.00    -0.242 NA
ATOM      8  C   UNL     1      34.267 -19.769 -21.041  0.00  0.00    +0.019 C 
ATOM      9  C   UNL     1      35.339 -20.453 -20.484  0.00  0.00    +0.003 C 
ATOM     10  C   UNL     1      32.992 -20.092 -20.611  0.00  0.00    +0.099 C 
ATOM     11  C   UNL     1      35.105 -21.430 -19.522  0.00  0.00    +0.021 C 
ATOM     12  C   UNL     1      33.792 -21.681 -19.158  0.00  0.00    +0.099 C 
ENDBRANCH   2   8
BRANCH   1  13
ATOM     13  C   UNL     1      34.560 -14.974 -22.281  0.00  0.00    +0.114 C 
BRANCH  13  14
ATOM     14  N   UNL     1      33.788 -14.180 -23.240  0.00  0.00    -0.327 N 
ATOM     15  H   UNL     1      33.753 -14.479 -24.176  0.00  0.00    +0.147 HD
BRANCH  14  17
ATOM     16  N   UNL     1      32.681 -10.647 -23.190  0.00  0.00    -0.228 NA
ATOM     17  C   UNL     1      33.111 -13.036 -22.889  0.00  0.00    +0.077 C 
ATOM     18  C   UNL     1      33.326 -11.792 -23.505  0.00  0.00    +0.139 C 
ATOM     19  C   UNL     1      32.142 -13.051 -21.869  0.00  0.00    +0.019 C 
ATOM     20  C   UNL     1      31.458 -11.892 -21.517  0.00  0.00    +0.022 C 
ATOM     21  C   UNL     1      31.762 -10.726 -22.202  0.00  0.00    +0.100 C 
ATOM     22  N   UNL     1      34.295 -11.740 -24.538  0.00  0.00    -0.342 N 
ATOM     23  H   UNL     1      34.479 -10.890 -24.997  0.00  0.00    +0.144 HD
ATOM     24  H   UNL     1      34.785 -12.554 -24.795  0.00  0.00    +0.144 HD
ENDBRANCH  14  17
ENDBRANCH  13  14
ENDBRANCH   1  13
TORSDOF 4
ENDMDL
MODEL 2
REMARK VINA RESULT:     -10.3      1.571      2.226
REMARK  Name = 11701820
REMARK  4 active torsions:
REMARK  status: ('A' for Active; 'I' for Inactive)
REMARK    1  A    between atoms: C_1  and  C_13
REMARK    2  A    between atoms: C_2  and  C_8
REMARK    3  A    between atoms: C_13  and  N_14
REMARK    4  A    between atoms: N_14  and  C_17
REMARK                            x       y       z     vdW  Elec       q    Type
REMARK                         _______ _______ _______ _____ _____    ______ ____
ROOT
ATOM      1  C   UNL     1      34.621 -16.564 -22.919  0.00  0.00    -0.003 C 
ATOM      2  C   UNL     1      34.487 -18.854 -22.160  0.00  0.00    +0.001 C 
ATOM      3  C   UNL     1      34.398 -17.486 -21.897  0.00  0.00    -0.003 C 
ATOM      4  C   UNL     1      34.932 -17.007 -24.204  0.00  0.00    -0.003 C 
ATOM      5  C   UNL     1      34.798 -19.297 -23.445  0.00  0.00    +0.000 C 
ATOM      6  C   UNL     1      35.020 -18.374 -24.468  0.00  0.00    -0.000 C 
ENDROOT
BRANCH   2   8
ATOM      7  N   UNL     1      32.690 -20.955 -19.661  0.00  0.00    -0.242 NA
ATOM      8  C   UNL     1      34.256 -19.812 -21.101  0.00  0.00    +0.019 C 
ATOM      9  C   UNL     1      35.312 -20.496 -20.515  0.00  0.00    +0.003 C 
ATOM     10  C   UNL     1      32.976 -20.072 -20.645  0.00  0.00    +0.099 C 
ATOM     11  C   UNL     1      35.059 -21.412 -19.499  0.00  0.00    +0.021 C 
ATOM     12  C   UNL     1      33.742 -21.603 -19.112  0.00  0.00    +0.099 C 
ENDBRANCH   2   8
BRANCH   1  13
ATOM     13  C   UNL     1      34.525 -15.102 -22.638  0.00  0.00    +0.114 C 
BRANCH  13  14
ATOM     14  N   UNL     1      33.346 -14.493 -23.256  0.00  0.00    -0.327 N 
ATOM     15  H   UNL     1      32.505 -14.470 -22.745  0.00  0.00    +0.147 HD
BRANCH  14  17
ATOM     16  N   UNL     1      33.732 -12.047 -26.010  0.00  0.00    -0.228 NA
ATOM     17  C   UNL     1      33.359 -13.951 -24.520  0.00  0.00    +0.077 C 
ATOM     18  C   UNL     1      33.707 -12.616 -24.784  0.00  0.00    +0.139 C 
ATOM     19  C   UNL     1      33.016 -14.724 -25.643  0.00  0.00    +0.019 C 
ATOM     20  C   UNL     1      33.031 -14.174 -26.921  0.00  0.00    +0.022 C 
ATOM     21  C   UNL     1      33.392 -12.842 -27.049  0.00  0.00    +0.100 C 
ATOM     22  N   UNL     1      34.058 -11.807 -23.675  0.00  0.00    -0.342 N 
ATOM     23  H   UNL     1      34.309 -10.866 -23.812  0.00  0.00    +0.144 HD
ATOM     24  H   UNL     1      34.052 -12.186 -22.767  0.00  0.00    +0.144 HD
ENDBRANCH  14  17
ENDBRANCH  13  14
ENDBRANCH   1  13
TORSDOF 4
ENDMDL
MODEL 3
REMARK VINA RESULT:     -10.3      2.373      8.009
REMARK  Name = 11701820
REMARK  4 active torsions:
REMARK  status: ('A' for Active; 'I' for Inactive)
REMARK    1  A    between atoms: C_1  and  C_13
REMARK    2  A    between atoms: C_2  and  C_8
REMARK    3  A    between atoms: C_13  and  N_14
REMARK    4  A    between atoms: N_14  and  C_17
REMARK                            x       y       z     vdW  Elec       q    Type
REMARK                         _______ _______ _______ _____ _____    ______ ____
ROOT
ATOM      1  C   UNL     1      34.370 -16.300 -21.524  0.00  0.00    -0.003 C 
ATOM      2  C   UNL     1      33.503 -14.797 -23.205  0.00  0.00    +0.001 C 
ATOM      3  C   UNL     1      34.346 -15.848 -22.843  0.00  0.00    -0.003 C 
ATOM      4  C   UNL     1      33.552 -15.701 -20.566  0.00  0.00    -0.003 C 
ATOM      5  C   UNL     1      32.685 -14.199 -22.247  0.00  0.00    +0.000 C 
ATOM      6  C   UNL     1      32.708 -14.650 -20.928  0.00  0.00    -0.000 C 
ENDROOT
BRANCH   2   8
ATOM      7  N   UNL     1      33.384 -14.850 -26.930  0.00  0.00    -0.242 NA
ATOM      8  C   UNL     1      33.476 -14.328 -24.574  0.00  0.00    +0.019 C 
ATOM      9  C   UNL     1      33.512 -12.971 -24.864  0.00  0.00    +0.003 C 
ATOM     10  C   UNL     1      33.413 -15.220 -25.630  0.00  0.00    +0.099 C 
ATOM     11  C   UNL     1      33.484 -12.551 -26.189  0.00  0.00    +0.021 C 
ATOM     12  C   UNL     1      33.420 -13.522 -27.177  0.00  0.00    +0.099 C 
ENDBRANCH   2   8
BRANCH   1  13
ATOM     13  C   UNL     1      35.271 -17.425 -21.137  0.00  0.00    +0.114 C 
BRANCH  13  14
ATOM     14  N   UNL     1      34.732 -18.728 -21.527  0.00  0.00    -0.327 N 
ATOM     15  H   UNL     1      34.302 -18.815 -22.408  0.00  0.00    +0.147 HD
BRANCH  14  17
ATOM     16  N   UNL     1      33.688 -21.613 -19.453  0.00  0.00    -0.228 NA
ATOM     17  C   UNL     1      34.798 -19.838 -20.717  0.00  0.00    +0.077 C 
ATOM     18  C   UNL     1      33.664 -20.521 -20.249  0.00  0.00    +0.139 C 
ATOM     19  C   UNL     1      36.037 -20.360 -20.304  0.00  0.00    +0.019 C 
ATOM     20  C   UNL     1      36.102 -21.483 -19.485  0.00  0.00    +0.022 C 
ATOM     21  C   UNL     1      34.909 -22.067 -19.090  0.00  0.00    +0.100 C 
ATOM     22  N   UNL     1      32.398 -20.023 -20.646  0.00  0.00    -0.342 N 
ATOM     23  H   UNL     1      31.576 -20.469 -20.342  0.00  0.00    +0.144 HD
ATOM     24  H   UNL     1      32.341 -19.229 -21.225  0.00  0.00    +0.144 HD
ENDBRANCH  14  17
ENDBRANCH  13  14
ENDBRANCH   1  13
TORSDOF 4
ENDMDL
MODEL 4
REMARK VINA RESULT:     -10.2      3.334      9.152
REMARK  Name = 11701820
REMARK  4 active torsions:
REMARK  status: ('A' for Active; 'I' for Inactive)
REMARK    1  A    between atoms: C_1  and  C_13
REMARK    2  A    between atoms: C_2  and  C_8
REMARK    3  A    between atoms: C_13  and  N_14
REMARK    4  A    between atoms: N_14  and  C_17
REMARK                            x       y       z     vdW  Elec       q    Type
REMARK                         _______ _______ _______ _____ _____    ______ ____
ROOT
ATOM      1  C   UNL     1      34.207 -21.310 -19.548  0.00  0.00    -0.003 C 
ATOM      2  C   UNL     1      35.242 -19.648 -20.962  0.00  0.00    +0.001 C 
ATOM      3  C   UNL     1      34.096 -20.281 -20.482  0.00  0.00    -0.003 C 
ATOM      4  C   UNL     1      35.464 -21.708 -19.094  0.00  0.00    -0.003 C 
ATOM      5  C   UNL     1      36.500 -20.046 -20.508  0.00  0.00    +0.000 C 
ATOM      6  C   UNL     1      36.611 -21.076 -19.574  0.00  0.00    -0.000 C 
ENDROOT
BRANCH   2   8
ATOM      7  N   UNL     1      34.988 -16.209 -22.379  0.00  0.00    -0.242 NA
ATOM      8  C   UNL     1      35.128 -18.579 -21.931  0.00  0.00    +0.019 C 
ATOM      9  C   UNL     1      35.053 -18.852 -23.290  0.00  0.00    +0.003 C 
ATOM     10  C   UNL     1      35.092 -17.256 -21.528  0.00  0.00    +0.099 C 
ATOM     11  C   UNL     1      34.945 -17.803 -24.196  0.00  0.00    +0.021 C 
ATOM     12  C   UNL     1      34.916 -16.511 -23.694  0.00  0.00    +0.099 C 
ENDBRANCH   2   8
BRANCH   1  13
ATOM     13  C   UNL     1      32.980 -21.986 -19.034  0.00  0.00    +0.114 C 
BRANCH  13  14
ATOM     14  N   UNL     1      33.293 -23.092 -18.127  0.00  0.00    -0.327 N 
ATOM     15  H   UNL     1      33.876 -23.815 -18.451  0.00  0.00    +0.147 HD
BRANCH  14  17
ATOM     16  N   UNL     1      33.188 -23.477 -14.445  0.00  0.00    -0.228 NA
ATOM     17  C   UNL     1      32.810 -23.165 -16.841  0.00  0.00    +0.077 C 
ATOM     18  C   UNL     1      33.624 -23.398 -15.721  0.00  0.00    +0.139 C 
ATOM     19  C   UNL     1      31.438 -23.006 -16.574  0.00  0.00    +0.019 C 
ATOM     20  C   UNL     1      30.951 -23.081 -15.272  0.00  0.00    +0.022 C 
ATOM     21  C   UNL     1      31.860 -23.316 -14.253  0.00  0.00    +0.100 C 
ATOM     22  N   UNL     1      35.013 -23.563 -15.954  0.00  0.00    -0.342 N 
ATOM     23  H   UNL     1      35.622 -23.728 -15.200  0.00  0.00    +0.144 HD
ATOM     24  H   UNL     1      35.368 -23.512 -16.871  0.00  0.00    +0.144 HD
ENDBRANCH  14  17
ENDBRANCH  13  14
ENDBRANCH   1  13
TORSDOF 4
ENDMDL
MODEL 5
REMARK VINA RESULT:     -10.0      1.352      7.528
REMARK  Name = 11701820
REMARK  4 active torsions:
REMARK  status: ('A' for Active; 'I' for Inactive)
REMARK    1  A    between atoms: C_1  and  C_13
REMARK    2  A    between atoms: C_2  and  C_8
REMARK    3  A    between atoms: C_13  and  N_14
REMARK    4  A    between atoms: N_14  and  C_17
REMARK                            x       y       z     vdW  Elec       q    Type
REMARK                         _______ _______ _______ _____ _____    ______ ____
ROOT
ATOM      1  C   UNL     1      34.978 -17.704 -23.006  0.00  0.00    -0.003 C 
ATOM      2  C   UNL     1      33.793 -15.603 -23.148  0.00  0.00    +0.001 C 
ATOM      3  C   UNL     1      34.351 -16.626 -22.381  0.00  0.00    -0.003 C 
ATOM      4  C   UNL     1      35.047 -17.760 -24.397  0.00  0.00    -0.003 C 
ATOM      5  C   UNL     1      33.863 -15.659 -24.540  0.00  0.00    +0.000 C 
ATOM      6  C   UNL     1      34.490 -16.737 -25.166  0.00  0.00    -0.000 C 
ENDROOT
BRANCH   2   8
ATOM      7  N   UNL     1      32.118 -12.306 -22.689  0.00  0.00    -0.242 NA
ATOM      8  C   UNL     1      33.143 -14.484 -22.501  0.00  0.00    +0.019 C 
ATOM      9  C   UNL     1      32.914 -14.486 -21.131  0.00  0.00    +0.003 C 
ATOM     10  C   UNL     1      32.731 -13.383 -23.230  0.00  0.00    +0.099 C 
ATOM     11  C   UNL     1      32.286 -13.397 -20.538  0.00  0.00    +0.021 C 
ATOM     12  C   UNL     1      31.911 -12.341 -21.354  0.00  0.00    +0.099 C 
ENDBRANCH   2   8
BRANCH   1  13
ATOM     13  C   UNL     1      35.575 -18.797 -22.185  0.00  0.00    +0.114 C 
BRANCH  13  14
ATOM     14  N   UNL     1      34.939 -18.919 -20.872  0.00  0.00    -0.327 N 
ATOM     15  H   UNL     1      34.702 -18.096 -20.387  0.00  0.00    +0.147 HD
BRANCH  14  17
ATOM     16  N   UNL     1      33.042 -21.842 -19.621  0.00  0.00    -0.228 NA
ATOM     17  C   UNL     1      34.657 -20.131 -20.286  0.00  0.00    +0.077 C 
ATOM     18  C   UNL     1      33.359 -20.658 -20.188  0.00  0.00    +0.139 C 
ATOM     19  C   UNL     1      35.680 -20.926 -19.740  0.00  0.00    +0.019 C 
ATOM     20  C   UNL     1      35.392 -22.152 -19.147  0.00  0.00    +0.022 C 
ATOM     21  C   UNL     1      34.068 -22.560 -19.114  0.00  0.00    +0.100 C 
ATOM     22  N   UNL     1      32.303 -19.882 -20.729  0.00  0.00    -0.342 N 
ATOM     23  H   UNL     1      31.377 -20.211 -20.683  0.00  0.00    +0.144 HD
ATOM     24  H   UNL     1      32.495 -19.014 -21.151  0.00  0.00    +0.144 HD
ENDBRANCH  14  17
ENDBRANCH  13  14
ENDBRANCH   1  13
TORSDOF 4
ENDMDL
MODEL 6
REMARK VINA RESULT:     -10.0      3.621      9.683
REMARK  Name = 11701820
REMARK  4 active torsions:
REMARK  status: ('A' for Active; 'I' for Inactive)
REMARK    1  A    between atoms: C_1  and  C_13
REMARK    2  A    between atoms: C_2  and  C_8
REMARK    3  A    between atoms: C_13  and  N_14
REMARK    4  A    between atoms: N_14  and  C_17
REMARK                            x       y       z     vdW  Elec       q    Type
REMARK                         _______ _______ _______ _____ _____    ______ ____
ROOT
ATOM      1  C   UNL     1      35.563 -21.433 -19.078  0.00  0.00    -0.003 C 
ATOM      2  C   UNL     1      34.627 -19.936 -20.728  0.00  0.00    +0.001 C 
ATOM      3  C   UNL     1      35.726 -20.408 -20.009  0.00  0.00    -0.003 C 
ATOM      4  C   UNL     1      34.300 -21.986 -18.863  0.00  0.00    -0.003 C 
ATOM      5  C   UNL     1      33.365 -20.489 -20.513  0.00  0.00    +0.000 C 
ATOM      6  C   UNL     1      33.201 -21.515 -19.581  0.00  0.00    -0.000 C 
ENDROOT
BRANCH   2   8
ATOM      7  N   UNL     1      35.066 -16.516 -22.142  0.00  0.00    -0.242 NA
ATOM      8  C   UNL     1      34.796 -18.874 -21.695  0.00  0.00    +0.019 C 
ATOM      9  C   UNL     1      34.855 -19.149 -23.055  0.00  0.00    +0.003 C 
ATOM     10  C   UNL     1      34.905 -17.555 -21.291  0.00  0.00    +0.099 C 
ATOM     11  C   UNL     1      35.018 -18.107 -23.961  0.00  0.00    +0.021 C 
ATOM     12  C   UNL     1      35.118 -16.820 -23.457  0.00  0.00    +0.099 C 
ENDBRANCH   2   8
BRANCH   1  13
ATOM     13  C   UNL     1      36.738 -21.938 -18.310  0.00  0.00    +0.114 C 
BRANCH  13  14
ATOM     14  N   UNL     1      36.600 -21.715 -16.870  0.00  0.00    -0.327 N 
ATOM     15  H   UNL     1      36.753 -20.809 -16.518  0.00  0.00    +0.147 HD
BRANCH  14  17
ATOM     16  N   UNL     1      36.903 -24.643 -14.623  0.00  0.00    -0.228 NA
ATOM     17  C   UNL     1      36.266 -22.715 -15.987  0.00  0.00    +0.077 C 
ATOM     18  C   UNL     1      37.191 -23.648 -15.491  0.00  0.00    +0.139 C 
ATOM     19  C   UNL     1      34.947 -22.860 -15.522  0.00  0.00    +0.019 C 
ATOM     20  C   UNL     1      34.612 -23.872 -14.628  0.00  0.00    +0.022 C 
ATOM     21  C   UNL     1      35.618 -24.730 -14.214  0.00  0.00    +0.100 C 
ATOM     22  N   UNL     1      38.532 -23.531 -15.938  0.00  0.00    -0.342 N 
ATOM     23  H   UNL     1      39.214 -24.163 -15.617  0.00  0.00    +0.144 HD
ATOM     24  H   UNL     1      38.780 -22.819 -16.570  0.00  0.00    +0.144 HD
ENDBRANCH  14  17
ENDBRANCH  13  14
ENDBRANCH   1  13
TORSDOF 4
ENDMDL
MODEL 7
REMARK VINA RESULT:      -9.9      9.447     12.627
REMARK  Name = 11701820
REMARK  4 active torsions:
REMARK  status: ('A' for Active; 'I' for Inactive)
REMARK    1  A    between atoms: C_1  and  C_13
REMARK    2  A    between atoms: C_2  and  C_8
REMARK    3  A    between atoms: C_13  and  N_14
REMARK    4  A    between atoms: N_14  and  C_17
REMARK                            x       y       z     vdW  Elec       q    Type
REMARK                         _______ _______ _______ _____ _____    ______ ____
ROOT
ATOM      1  C   UNL     1      34.378 -23.613 -14.570  0.00  0.00    -0.003 C 
ATOM      2  C   UNL     1      32.381 -23.424 -15.916  0.00  0.00    +0.001 C 
ATOM      3  C   UNL     1      32.989 -23.665 -14.684  0.00  0.00    -0.003 C 
ATOM      4  C   UNL     1      35.159 -23.319 -15.687  0.00  0.00    -0.003 C 
ATOM      5  C   UNL     1      33.162 -23.130 -17.033  0.00  0.00    +0.000 C 
ATOM      6  C   UNL     1      34.551 -23.077 -16.920  0.00  0.00    -0.000 C 
ENDROOT
BRANCH   2   8
ATOM      7  N   UNL     1      28.904 -22.499 -16.892  0.00  0.00    -0.242 NA
ATOM      8  C   UNL     1      30.939 -23.477 -16.035  0.00  0.00    +0.019 C 
ATOM      9  C   UNL     1      30.212 -24.503 -15.446  0.00  0.00    +0.003 C 
ATOM     10  C   UNL     1      30.248 -22.508 -16.740  0.00  0.00    +0.099 C 
ATOM     11  C   UNL     1      28.828 -24.528 -15.579  0.00  0.00    +0.021 C 
ATOM     12  C   UNL     1      28.228 -23.511 -16.305  0.00  0.00    +0.099 C 
ENDBRANCH   2   8
BRANCH   1  13
ATOM     13  C   UNL     1      35.028 -23.870 -13.252  0.00  0.00    +0.114 C 
BRANCH  13  14
ATOM     14  N   UNL     1      35.613 -25.210 -13.172  0.00  0.00    -0.327 N 
ATOM     15  H   UNL     1      35.058 -25.945 -12.828  0.00  0.00    +0.147 HD
BRANCH  14  17
ATOM     16  N   UNL     1      38.481 -26.692 -14.986  0.00  0.00    -0.228 NA
ATOM     17  C   UNL     1      36.904 -25.487 -13.557  0.00  0.00    +0.077 C 
ATOM     18  C   UNL     1      37.228 -26.393 -14.580  0.00  0.00    +0.139 C 
ATOM     19  C   UNL     1      37.996 -24.861 -12.930  0.00  0.00    +0.019 C 
ATOM     20  C   UNL     1      39.302 -25.143 -13.321  0.00  0.00    +0.022 C 
ATOM     21  C   UNL     1      39.489 -26.058 -14.345  0.00  0.00    +0.100 C 
ATOM     22  N   UNL     1      36.151 -27.042 -15.234  0.00  0.00    -0.342 N 
ATOM     23  H   UNL     1      36.330 -27.685 -15.957  0.00  0.00    +0.144 HD
ATOM     24  H   UNL     1      35.223 -26.850 -14.966  0.00  0.00    +0.144 HD
ENDBRANCH  14  17
ENDBRANCH  13  14
ENDBRANCH   1  13
TORSDOF 4
ENDMDL
MODEL 8
REMARK VINA RESULT:      -9.9      5.318      8.800
REMARK  Name = 11701820
REMARK  4 active torsions:
REMARK  status: ('A' for Active; 'I' for Inactive)
REMARK    1  A    between atoms: C_1  and  C_13
REMARK    2  A    between atoms: C_2  and  C_8
REMARK    3  A    between atoms: C_13  and  N_14
REMARK    4  A    between atoms: N_14  and  C_17
REMARK                            x       y       z     vdW  Elec       q    Type
REMARK                         _______ _______ _______ _____ _____    ______ ____
ROOT
ATOM      1  C   UNL     1      36.375 -22.387 -16.719  0.00  0.00    -0.003 C 
ATOM      2  C   UNL     1      34.835 -23.388 -15.150  0.00  0.00    +0.001 C 
ATOM      3  C   UNL     1      35.075 -22.746 -16.365  0.00  0.00    -0.003 C 
ATOM      4  C   UNL     1      37.436 -22.670 -15.859  0.00  0.00    -0.003 C 
ATOM      5  C   UNL     1      35.895 -23.671 -14.290  0.00  0.00    +0.000 C 
ATOM      6  C   UNL     1      37.196 -23.312 -14.643  0.00  0.00    -0.000 C 
ENDROOT
BRANCH   2   8
ATOM      7  N   UNL     1      32.007 -24.892 -13.243  0.00  0.00    -0.242 NA
ATOM      8  C   UNL     1      33.486 -23.762 -14.783  0.00  0.00    +0.019 C 
ATOM      9  C   UNL     1      32.402 -23.380 -15.561  0.00  0.00    +0.003 C 
ATOM     10  C   UNL     1      33.241 -24.510 -13.645  0.00  0.00    +0.099 C 
ATOM     11  C   UNL     1      31.117 -23.753 -15.182  0.00  0.00    +0.021 C 
ATOM     12  C   UNL     1      30.975 -24.503 -14.024  0.00  0.00    +0.099 C 
ENDBRANCH   2   8
BRANCH   1  13
ATOM     13  C   UNL     1      36.632 -21.702 -18.019  0.00  0.00    +0.114 C 
BRANCH  13  14
ATOM     14  N   UNL     1      35.669 -22.088 -19.052  0.00  0.00    -0.327 N 
ATOM     15  H   UNL     1      35.568 -23.043 -19.266  0.00  0.00    +0.147 HD
BRANCH  14  17
ATOM     16  N   UNL     1      32.706 -20.308 -20.379  0.00  0.00    -0.228 NA
ATOM     17  C   UNL     1      34.900 -21.176 -19.736  0.00  0.00    +0.077 C 
ATOM     18  C   UNL     1      33.496 -21.185 -19.721  0.00  0.00    +0.139 C 
ATOM     19  C   UNL     1      35.494 -20.162 -20.508  0.00  0.00    +0.019 C 
ATOM     20  C   UNL     1      34.714 -19.241 -21.199  0.00  0.00    +0.022 C 
ATOM     21  C   UNL     1      33.336 -19.357 -21.103  0.00  0.00    +0.100 C 
ATOM     22  N   UNL     1      32.863 -22.195 -18.953  0.00  0.00    -0.342 N 
ATOM     23  H   UNL     1      31.881 -22.239 -18.913  0.00  0.00    +0.144 HD
ATOM     24  H   UNL     1      33.405 -22.851 -18.460  0.00  0.00    +0.144 HD
ENDBRANCH  14  17
ENDBRANCH  13  14
ENDBRANCH   1  13
TORSDOF 4
ENDMDL
MODEL 9
REMARK VINA RESULT:      -9.8      1.744      7.867
REMARK  Name = 11701820
REMARK  4 active torsions:
REMARK  status: ('A' for Active; 'I' for Inactive)
REMARK    1  A    between atoms: C_1  and  C_13
REMARK    2  A    between atoms: C_2  and  C_8
REMARK    3  A    between atoms: C_13  and  N_14
REMARK    4  A    between atoms: N_14  and  C_17
REMARK                            x       y       z     vdW  Elec       q    Type
REMARK                         _______ _______ _______ _____ _____    ______ ____
ROOT
ATOM      1  C   UNL     1      34.581 -16.151 -22.635  0.00  0.00    -0.003 C 
ATOM      2  C   UNL     1      33.638 -14.116 -23.533  0.00  0.00    +0.001 C 
ATOM      3  C   UNL     1      34.156 -14.835 -22.456  0.00  0.00    -0.003 C 
ATOM      4  C   UNL     1      34.487 -16.749 -23.891  0.00  0.00    -0.003 C 
ATOM      5  C   UNL     1      33.545 -14.714 -24.789  0.00  0.00    +0.000 C 
ATOM      6  C   UNL     1      33.970 -16.031 -24.969  0.00  0.00    -0.000 C 
ENDROOT
BRANCH   2   8
ATOM      7  N   UNL     1      31.732 -11.190 -22.230  0.00  0.00    -0.242 NA
ATOM      8  C   UNL     1      33.197 -12.750 -23.348  0.00  0.00    +0.019 C 
ATOM      9  C   UNL     1      33.776 -11.710 -24.065  0.00  0.00    +0.003 C 
ATOM     10  C   UNL     1      32.189 -12.443 -22.452  0.00  0.00    +0.099 C 
ATOM     11  C   UNL     1      33.332 -10.408 -23.865  0.00  0.00    +0.021 C 
ATOM     12  C   UNL     1      32.316 -10.203 -22.944  0.00  0.00    +0.099 C 
ENDBRANCH   2   8
BRANCH   1  13
ATOM     13  C   UNL     1      35.136 -16.919 -21.483  0.00  0.00    +0.114 C 
BRANCH  13  14
ATOM     14  N   UNL     1      35.343 -18.332 -21.804  0.00  0.00    -0.327 N 
ATOM     15  H   UNL     1      35.906 -18.561 -22.578  0.00  0.00    +0.147 HD
BRANCH  14  17
ATOM     16  N   UNL     1      35.020 -21.220 -19.510  0.00  0.00    -0.228 NA
ATOM     17  C   UNL     1      34.785 -19.355 -21.074  0.00  0.00    +0.077 C 
ATOM     18  C   UNL     1      35.531 -20.206 -20.242  0.00  0.00    +0.139 C 
ATOM     19  C   UNL     1      33.403 -19.610 -21.123  0.00  0.00    +0.019 C 
ATOM     20  C   UNL     1      32.841 -20.646 -20.383  0.00  0.00    +0.022 C 
ATOM     21  C   UNL     1      33.686 -21.415 -19.599  0.00  0.00    +0.100 C 
ATOM     22  N   UNL     1      36.928 -19.978 -20.168  0.00  0.00    -0.342 N 
ATOM     23  H   UNL     1      37.490 -20.549 -19.598  0.00  0.00    +0.144 HD
ATOM     24  H   UNL     1      37.336 -19.247 -20.687  0.00  0.00    +0.144 HD
ENDBRANCH  14  17
ENDBRANCH  13  14
ENDBRANCH   1  13
TORSDOF 4
ENDMDL
