MODEL 1
REMARK VINA RESULT:      -6.7      0.000      0.000
REMARK  Name = 11914
REMARK  4 active torsions:
REMARK  status: ('A' for Active; 'I' for Inactive)
REMARK    1  A    between atoms: C_1  and  C_2
REMARK    2  A    between atoms: C_1  and  O_8
REMARK    3  A    between atoms: C_1  and  C_11
REMARK    4  A    between atoms: C_11  and  O_12
REMARK                            x       y       z     vdW  Elec       q    Type
REMARK                         _______ _______ _______ _____ _____    ______ ____
ROOT
ATOM      1  C   UNL     1      34.602 -18.553 -21.457  0.00  0.00    +0.232 C 
ENDROOT
BRANCH   1   2
ATOM      2  C   UNL     1      34.558 -19.817 -20.667  0.00  0.00    +0.015 C 
ATOM      3  C   UNL     1      35.744 -20.465 -20.322  0.00  0.00    -0.001 C 
ATOM      4  C   UNL     1      33.331 -20.352 -20.274  0.00  0.00    -0.001 C 
ATOM      5  C   UNL     1      35.703 -21.648 -19.582  0.00  0.00    -0.000 C 
ATOM      6  C   UNL     1      33.291 -21.534 -19.535  0.00  0.00    -0.000 C 
ATOM      7  C   UNL     1      34.476 -22.182 -19.189  0.00  0.00    -0.000 C 
ENDBRANCH   1   2
BRANCH   1   8
ATOM      8  O   UNL     1      35.318 -17.552 -20.738  0.00  0.00    -0.371 OA
ATOM      9  H   UNL     1      35.783 -17.961 -19.991  0.00  0.00    +0.211 HD
ENDBRANCH   1   8
BRANCH   1  11
ATOM     10  O   UNL     1      34.805 -19.426 -23.725  0.00  0.00    -0.247 OA
ATOM     11  C   UNL     1      35.248 -18.717 -22.830  0.00  0.00    +0.345 C 
BRANCH  11  12
ATOM     12  O   UNL     1      36.400 -18.011 -22.959  0.00  0.00    -0.478 OA
ATOM     13  H   UNL     1      37.049 -18.044 -22.284  0.00  0.00    +0.295 HD
ENDBRANCH  11  12
ENDBRANCH   1  11
TORSDOF 4
ENDMDL
MODEL 2
REMARK VINA RESULT:      -6.5      8.199      9.100
REMARK  Name = 11914
REMARK  4 active torsions:
REMARK  status: ('A' for Active; 'I' for Inactive)
REMARK    1  A    between atoms: C_1  and  C_2
REMARK    2  A    between atoms: C_1  and  O_8
REMARK    3  A    between atoms: C_1  and  C_11
REMARK    4  A    between atoms: C_11  and  O_12
REMARK                            x       y       z     vdW  Elec       q    Type
REMARK                         _______ _______ _______ _____ _____    ______ ____
ROOT
ATOM      1  C   UNL     1      28.221 -23.150 -17.082  0.00  0.00    +0.232 C 
ENDROOT
BRANCH   1   2
ATOM      2  C   UNL     1      29.195 -23.517 -16.014  0.00  0.00    +0.015 C 
ATOM      3  C   UNL     1      30.224 -22.638 -15.678  0.00  0.00    -0.001 C 
ATOM      4  C   UNL     1      29.076 -24.739 -15.353  0.00  0.00    -0.001 C 
ATOM      5  C   UNL     1      31.134 -22.981 -14.678  0.00  0.00    -0.000 C 
ATOM      6  C   UNL     1      29.987 -25.081 -14.353  0.00  0.00    -0.000 C 
ATOM      7  C   UNL     1      31.016 -24.203 -14.016  0.00  0.00    -0.000 C 
ENDBRANCH   1   2
BRANCH   1   8
ATOM      8  O   UNL     1      27.615 -24.326 -17.617  0.00  0.00    -0.371 OA
ATOM      9  H   UNL     1      26.740 -24.105 -17.972  0.00  0.00    +0.211 HD
ENDBRANCH   1   8
BRANCH   1  11
ATOM     10  O   UNL     1      26.485 -22.362 -15.562  0.00  0.00    -0.247 OA
ATOM     11  C   UNL     1      27.116 -22.214 -16.601  0.00  0.00    +0.345 C 
BRANCH  11  12
ATOM     12  O   UNL     1      26.872 -21.196 -17.466  0.00  0.00    -0.478 OA
ATOM     13  H   UNL     1      27.135 -21.270 -18.363  0.00  0.00    +0.295 HD
ENDBRANCH  11  12
ENDBRANCH   1  11
TORSDOF 4
ENDMDL
MODEL 3
REMARK VINA RESULT:      -6.5      1.068      1.943
REMARK  Name = 11914
REMARK  4 active torsions:
REMARK  status: ('A' for Active; 'I' for Inactive)
REMARK    1  A    between atoms: C_1  and  C_2
REMARK    2  A    between atoms: C_1  and  O_8
REMARK    3  A    between atoms: C_1  and  C_11
REMARK    4  A    between atoms: C_11  and  O_12
REMARK                            x       y       z     vdW  Elec       q    Type
REMARK                         _______ _______ _______ _____ _____    ______ ____
ROOT
ATOM      1  C   UNL     1      35.649 -18.543 -21.813  0.00  0.00    +0.232 C 
ENDROOT
BRANCH   1   2
ATOM      2  C   UNL     1      35.007 -19.602 -20.983  0.00  0.00    +0.015 C 
ATOM      3  C   UNL     1      35.796 -20.529 -20.303  0.00  0.00    -0.001 C 
ATOM      4  C   UNL     1      33.617 -19.666 -20.888  0.00  0.00    -0.001 C 
ATOM      5  C   UNL     1      35.194 -21.519 -19.526  0.00  0.00    -0.000 C 
ATOM      6  C   UNL     1      33.016 -20.657 -20.111  0.00  0.00    -0.000 C 
ATOM      7  C   UNL     1      33.804 -21.583 -19.431  0.00  0.00    -0.000 C 
ENDBRANCH   1   2
BRANCH   1   8
ATOM      8  O   UNL     1      35.400 -18.787 -23.196  0.00  0.00    -0.371 OA
ATOM      9  H   UNL     1      35.384 -19.743 -23.357  0.00  0.00    +0.211 HD
ENDBRANCH   1   8
BRANCH   1  11
ATOM     10  O   UNL     1      35.197 -16.639 -20.358  0.00  0.00    -0.247 OA
ATOM     11  C   UNL     1      35.168 -17.134 -21.478  0.00  0.00    +0.345 C 
BRANCH  11  12
ATOM     12  O   UNL     1      34.667 -16.476 -22.556  0.00  0.00    -0.478 OA
ATOM     13  H   UNL     1      35.156 -16.445 -23.354  0.00  0.00    +0.295 HD
ENDBRANCH  11  12
ENDBRANCH   1  11
TORSDOF 4
ENDMDL
MODEL 4
REMARK VINA RESULT:      -6.2      1.696      2.866
REMARK  Name = 11914
REMARK  4 active torsions:
REMARK  status: ('A' for Active; 'I' for Inactive)
REMARK    1  A    between atoms: C_1  and  C_2
REMARK    2  A    between atoms: C_1  and  O_8
REMARK    3  A    between atoms: C_1  and  C_11
REMARK    4  A    between atoms: C_11  and  O_12
REMARK                            x       y       z     vdW  Elec       q    Type
REMARK                         _______ _______ _______ _____ _____    ______ ____
ROOT
ATOM      1  C   UNL     1      34.717 -17.295 -23.371  0.00  0.00    +0.232 C 
ENDROOT
BRANCH   1   2
ATOM      2  C   UNL     1      35.045 -18.297 -22.316  0.00  0.00    +0.015 C 
ATOM      3  C   UNL     1      34.032 -19.066 -21.746  0.00  0.00    -0.001 C 
ATOM      4  C   UNL     1      36.366 -18.465 -21.901  0.00  0.00    -0.001 C 
ATOM      5  C   UNL     1      34.339 -20.004 -20.760  0.00  0.00    -0.000 C 
ATOM      6  C   UNL     1      36.673 -19.402 -20.914  0.00  0.00    -0.000 C 
ATOM      7  C   UNL     1      35.660 -20.172 -20.344  0.00  0.00    -0.000 C 
ENDBRANCH   1   2
BRANCH   1   8
ATOM      8  O   UNL     1      35.694 -16.256 -23.379  0.00  0.00    -0.371 OA
ATOM      9  H   UNL     1      36.306 -16.394 -24.119  0.00  0.00    +0.211 HD
ENDBRANCH   1   8
BRANCH   1  11
ATOM     10  O   UNL     1      34.451 -19.080 -25.011  0.00  0.00    -0.247 OA
ATOM     11  C   UNL     1      34.637 -17.893 -24.772  0.00  0.00    +0.345 C 
BRANCH  11  12
ATOM     12  O   UNL     1      34.824 -16.970 -25.751  0.00  0.00    -0.478 OA
ATOM     13  H   UNL     1      34.936 -17.246 -26.640  0.00  0.00    +0.295 HD
ENDBRANCH  11  12
ENDBRANCH   1  11
TORSDOF 4
ENDMDL
MODEL 5
REMARK VINA RESULT:      -6.1      8.821      9.955
REMARK  Name = 11914
REMARK  4 active torsions:
REMARK  status: ('A' for Active; 'I' for Inactive)
REMARK    1  A    between atoms: C_1  and  C_2
REMARK    2  A    between atoms: C_1  and  O_8
REMARK    3  A    between atoms: C_1  and  C_11
REMARK    4  A    between atoms: C_11  and  O_12
REMARK                            x       y       z     vdW  Elec       q    Type
REMARK                         _______ _______ _______ _____ _____    ______ ____
ROOT
ATOM      1  C   UNL     1      39.171 -26.069 -14.020  0.00  0.00    +0.232 C 
ENDROOT
BRANCH   1   2
ATOM      2  C   UNL     1      38.162 -25.089 -13.524  0.00  0.00    +0.015 C 
ATOM      3  C   UNL     1      38.199 -24.661 -12.198  0.00  0.00    -0.001 C 
ATOM      4  C   UNL     1      37.182 -24.601 -14.388  0.00  0.00    -0.001 C 
ATOM      5  C   UNL     1      37.256 -23.743 -11.735  0.00  0.00    -0.000 C 
ATOM      6  C   UNL     1      36.239 -23.683 -13.924  0.00  0.00    -0.000 C 
ATOM      7  C   UNL     1      36.276 -23.255 -12.598  0.00  0.00    -0.000 C 
ENDBRANCH   1   2
BRANCH   1   8
ATOM      8  O   UNL     1      38.536 -27.055 -14.832  0.00  0.00    -0.371 OA
ATOM      9  H   UNL     1      38.641 -27.928 -14.422  0.00  0.00    +0.211 HD
ENDBRANCH   1   8
BRANCH   1  11
ATOM     10  O   UNL     1      41.017 -24.528 -14.420  0.00  0.00    -0.247 OA
ATOM     11  C   UNL     1      40.294 -25.428 -14.829  0.00  0.00    +0.345 C 
BRANCH  11  12
ATOM     12  O   UNL     1      40.402 -25.941 -16.082  0.00  0.00    -0.478 OA
ATOM     13  H   UNL     1      40.952 -26.683 -16.239  0.00  0.00    +0.295 HD
ENDBRANCH  11  12
ENDBRANCH   1  11
TORSDOF 4
ENDMDL
MODEL 6
REMARK VINA RESULT:      -6.1      3.026      4.455
REMARK  Name = 11914
REMARK  4 active torsions:
REMARK  status: ('A' for Active; 'I' for Inactive)
REMARK    1  A    between atoms: C_1  and  C_2
REMARK    2  A    between atoms: C_1  and  O_8
REMARK    3  A    between atoms: C_1  and  C_11
REMARK    4  A    between atoms: C_11  and  O_12
REMARK                            x       y       z     vdW  Elec       q    Type
REMARK                         _______ _______ _______ _____ _____    ______ ____
ROOT
ATOM      1  C   UNL     1      33.607 -21.420 -19.450  0.00  0.00    +0.232 C 
ENDROOT
BRANCH   1   2
ATOM      2  C   UNL     1      34.601 -20.523 -20.105  0.00  0.00    +0.015 C 
ATOM      3  C   UNL     1      34.169 -19.496 -20.943  0.00  0.00    -0.001 C 
ATOM      4  C   UNL     1      35.965 -20.711 -19.879  0.00  0.00    -0.001 C 
ATOM      5  C   UNL     1      35.100 -18.656 -21.555  0.00  0.00    -0.000 C 
ATOM      6  C   UNL     1      36.895 -19.871 -20.492  0.00  0.00    -0.000 C 
ATOM      7  C   UNL     1      36.463 -18.845 -21.329  0.00  0.00    -0.000 C 
ENDBRANCH   1   2
BRANCH   1   8
ATOM      8  O   UNL     1      32.490 -21.625 -20.313  0.00  0.00    -0.371 OA
ATOM      9  H   UNL     1      31.970 -22.380 -19.994  0.00  0.00    +0.211 HD
ENDBRANCH   1   8
BRANCH   1  11
ATOM     10  O   UNL     1      34.149 -23.773 -19.786  0.00  0.00    -0.247 OA
ATOM     11  C   UNL     1      34.177 -22.782 -19.067  0.00  0.00    +0.345 C 
BRANCH  11  12
ATOM     12  O   UNL     1      34.706 -22.801 -17.816  0.00  0.00    -0.478 OA
ATOM     13  H   UNL     1      35.199 -23.543 -17.526  0.00  0.00    +0.295 HD
ENDBRANCH  11  12
ENDBRANCH   1  11
TORSDOF 4
ENDMDL
MODEL 7
REMARK VINA RESULT:      -6.0      1.423      1.955
REMARK  Name = 11914
REMARK  4 active torsions:
REMARK  status: ('A' for Active; 'I' for Inactive)
REMARK    1  A    between atoms: C_1  and  C_2
REMARK    2  A    between atoms: C_1  and  O_8
REMARK    3  A    between atoms: C_1  and  C_11
REMARK    4  A    between atoms: C_11  and  O_12
REMARK                            x       y       z     vdW  Elec       q    Type
REMARK                         _______ _______ _______ _____ _____    ______ ____
ROOT
ATOM      1  C   UNL     1      34.406 -17.052 -21.621  0.00  0.00    +0.232 C 
ENDROOT
BRANCH   1   2
ATOM      2  C   UNL     1      34.730 -18.415 -21.109  0.00  0.00    +0.015 C 
ATOM      3  C   UNL     1      36.059 -18.790 -20.917  0.00  0.00    -0.001 C 
ATOM      4  C   UNL     1      33.702 -19.314 -20.824  0.00  0.00    -0.001 C 
ATOM      5  C   UNL     1      36.360 -20.065 -20.437  0.00  0.00    -0.000 C 
ATOM      6  C   UNL     1      34.005 -20.589 -20.345  0.00  0.00    -0.000 C 
ATOM      7  C   UNL     1      35.333 -20.964 -20.152  0.00  0.00    -0.000 C 
ENDBRANCH   1   2
BRANCH   1   8
ATOM      8  O   UNL     1      35.005 -16.062 -20.788  0.00  0.00    -0.371 OA
ATOM      9  H   UNL     1      35.217 -15.278 -21.319  0.00  0.00    +0.211 HD
ENDBRANCH   1   8
BRANCH   1  11
ATOM     10  O   UNL     1      35.402 -15.790 -23.454  0.00  0.00    -0.247 OA
ATOM     11  C   UNL     1      34.867 -16.817 -23.057  0.00  0.00    +0.345 C 
BRANCH  11  12
ATOM     12  O   UNL     1      34.595 -17.865 -23.876  0.00  0.00    -0.478 OA
ATOM     13  H   UNL     1      34.324 -17.711 -24.760  0.00  0.00    +0.295 HD
ENDBRANCH  11  12
ENDBRANCH   1  11
TORSDOF 4
ENDMDL
MODEL 8
REMARK VINA RESULT:      -5.9      4.339      5.597
REMARK  Name = 11914
REMARK  4 active torsions:
REMARK  status: ('A' for Active; 'I' for Inactive)
REMARK    1  A    between atoms: C_1  and  C_2
REMARK    2  A    between atoms: C_1  and  O_8
REMARK    3  A    between atoms: C_1  and  C_11
REMARK    4  A    between atoms: C_11  and  O_12
REMARK                            x       y       z     vdW  Elec       q    Type
REMARK                         _______ _______ _______ _____ _____    ______ ____
ROOT
ATOM      1  C   UNL     1      34.068 -14.380 -22.646  0.00  0.00    +0.232 C 
ENDROOT
BRANCH   1   2
ATOM      2  C   UNL     1      34.431 -15.713 -23.208  0.00  0.00    +0.015 C 
ATOM      3  C   UNL     1      35.077 -16.655 -22.408  0.00  0.00    -0.001 C 
ATOM      4  C   UNL     1      34.126 -16.016 -24.535  0.00  0.00    -0.001 C 
ATOM      5  C   UNL     1      35.416 -17.902 -22.934  0.00  0.00    -0.000 C 
ATOM      6  C   UNL     1      34.466 -17.263 -25.061  0.00  0.00    -0.000 C 
ATOM      7  C   UNL     1      35.111 -18.205 -24.261  0.00  0.00    -0.000 C 
ENDBRANCH   1   2
BRANCH   1   8
ATOM      8  O   UNL     1      34.284 -13.363 -23.621  0.00  0.00    -0.371 OA
ATOM      9  H   UNL     1      33.796 -12.564 -23.367  0.00  0.00    +0.211 HD
ENDBRANCH   1   8
BRANCH   1  11
ATOM     10  O   UNL     1      32.085 -15.106 -21.426  0.00  0.00    -0.247 OA
ATOM     11  C   UNL     1      32.619 -14.296 -22.173  0.00  0.00    +0.345 C 
BRANCH  11  12
ATOM     12  O   UNL     1      31.956 -13.230 -22.692  0.00  0.00    -0.478 OA
ATOM     13  H   UNL     1      32.430 -12.469 -22.963  0.00  0.00    +0.295 HD
ENDBRANCH  11  12
ENDBRANCH   1  11
TORSDOF 4
ENDMDL
MODEL 9
REMARK VINA RESULT:      -5.9      4.310      5.283
REMARK  Name = 11914
REMARK  4 active torsions:
REMARK  status: ('A' for Active; 'I' for Inactive)
REMARK    1  A    between atoms: C_1  and  C_2
REMARK    2  A    between atoms: C_1  and  O_8
REMARK    3  A    between atoms: C_1  and  C_11
REMARK    4  A    between atoms: C_11  and  O_12
REMARK                            x       y       z     vdW  Elec       q    Type
REMARK                         _______ _______ _______ _____ _____    ______ ____
ROOT
ATOM      1  C   UNL     1      35.308 -16.353 -23.745  0.00  0.00    +0.232 C 
ENDROOT
BRANCH   1   2
ATOM      2  C   UNL     1      34.421 -15.670 -22.761  0.00  0.00    +0.015 C 
ATOM      3  C   UNL     1      34.594 -15.892 -21.395  0.00  0.00    -0.001 C 
ATOM      4  C   UNL     1      33.418 -14.808 -23.206  0.00  0.00    -0.001 C 
ATOM      5  C   UNL     1      33.764 -15.252 -20.474  0.00  0.00    -0.000 C 
ATOM      6  C   UNL     1      32.588 -14.169 -22.284  0.00  0.00    -0.000 C 
ATOM      7  C   UNL     1      32.761 -14.391 -20.919  0.00  0.00    -0.000 C 
ENDBRANCH   1   2
BRANCH   1   8
ATOM      8  O   UNL     1      36.014 -17.418 -23.112  0.00  0.00    -0.371 OA
ATOM      9  H   UNL     1      36.580 -17.861 -23.762  0.00  0.00    +0.211 HD
ENDBRANCH   1   8
BRANCH   1  11
ATOM     10  O   UNL     1      34.309 -16.290 -25.969  0.00  0.00    -0.247 OA
ATOM     11  C   UNL     1      34.558 -16.919 -24.948  0.00  0.00    +0.345 C 
BRANCH  11  12
ATOM     12  O   UNL     1      34.158 -18.203 -24.764  0.00  0.00    -0.478 OA
ATOM     13  H   UNL     1      34.151 -18.800 -25.486  0.00  0.00    +0.295 HD
ENDBRANCH  11  12
ENDBRANCH   1  11
TORSDOF 4
ENDMDL
