MODEL 1
REMARK VINA RESULT:      -7.8      0.000      0.000
REMARK  Name = 38853
REMARK  7 active torsions:
REMARK  status: ('A' for Active; 'I' for Inactive)
REMARK    1  A    between atoms: C_1  and  C_2
REMARK    2  A    between atoms: C_1  and  C_12
REMARK    3  A    between atoms: C_5  and  O_8
REMARK    4  A    between atoms: C_7  and  O_10
REMARK    5  A    between atoms: C_12  and  N_14
REMARK    6  A    between atoms: C_12  and  C_19
REMARK    7  A    between atoms: C_19  and  O_20
REMARK                            x       y       z     vdW  Elec       q    Type
REMARK                         _______ _______ _______ _____ _____    ______ ____
ROOT
ATOM      1  C   UNL     1      34.369 -18.180 -21.841  0.00  0.00    +0.017 C 
ENDROOT
BRANCH   1   2
ATOM      2  C   UNL     1      34.610 -19.391 -20.969  0.00  0.00    -0.020 C 
ATOM      3  C   UNL     1      33.526 -20.119 -20.508  0.00  0.00    +0.035 C 
ATOM      4  C   UNL     1      35.909 -19.745 -20.648  0.00  0.00    -0.001 C 
ATOM      5  C   UNL     1      33.749 -21.236 -19.702  0.00  0.00    +0.167 C 
ATOM      6  C   UNL     1      36.132 -20.862 -19.843  0.00  0.00    +0.039 C 
ATOM      7  C   UNL     1      35.052 -21.608 -19.371  0.00  0.00    +0.167 C 
BRANCH   5   8
ATOM      8  O   UNL     1      32.686 -21.957 -19.249  0.00  0.00    -0.503 OA
ATOM      9  H   UNL     1      32.570 -22.092 -18.329  0.00  0.00    +0.292 HD
ENDBRANCH   5   8
BRANCH   7  10
ATOM     10  O   UNL     1      35.282 -22.698 -18.585  0.00  0.00    -0.503 OA
ATOM     11  H   UNL     1      36.020 -23.250 -18.754  0.00  0.00    +0.292 HD
ENDBRANCH   7  10
ENDBRANCH   1   2
BRANCH   1  12
ATOM     12  C   UNL     1      35.119 -18.173 -23.195  0.00  0.00    +0.047 C 
ATOM     13  C   UNL     1      34.815 -19.430 -24.025  0.00  0.00    -0.011 C 
BRANCH  12  14
ATOM     14  N   UNL     1      36.565 -18.189 -22.932  0.00  0.00    +0.390 N 
ATOM     15  H   UNL     1      36.902 -17.232 -22.823  0.00  0.00    -0.088 HD
ATOM     16  H   UNL     1      37.049 -18.633 -23.713  0.00  0.00    -0.088 HD
ATOM     17  H   UNL     1      36.749 -18.713 -22.077  0.00  0.00    -0.088 HD
ENDBRANCH  12  14
BRANCH  12  19
ATOM     18  O   UNL     1      34.042 -16.882 -24.965  0.00  0.00    -0.253 OA
ATOM     19  C   UNL     1      34.819 -16.916 -24.016  0.00  0.00    +0.295 C 
BRANCH  19  20
ATOM     20  O   UNL     1      35.509 -15.818 -23.613  0.00  0.00    -0.482 OA
ATOM     21  H   UNL     1      35.049 -15.041 -23.363  0.00  0.00    +0.295 HD
ENDBRANCH  19  20
ENDBRANCH  12  19
ENDBRANCH   1  12
TORSDOF 7
ENDMDL
MODEL 2
REMARK VINA RESULT:      -7.8      0.659      1.682
REMARK  Name = 38853
REMARK  7 active torsions:
REMARK  status: ('A' for Active; 'I' for Inactive)
REMARK    1  A    between atoms: C_1  and  C_2
REMARK    2  A    between atoms: C_1  and  C_12
REMARK    3  A    between atoms: C_5  and  O_8
REMARK    4  A    between atoms: C_7  and  O_10
REMARK    5  A    between atoms: C_12  and  N_14
REMARK    6  A    between atoms: C_12  and  C_19
REMARK    7  A    between atoms: C_19  and  O_20
REMARK                            x       y       z     vdW  Elec       q    Type
REMARK                         _______ _______ _______ _____ _____    ______ ____
ROOT
ATOM      1  C   UNL     1      34.358 -18.089 -21.743  0.00  0.00    +0.017 C 
ENDROOT
BRANCH   1   2
ATOM      2  C   UNL     1      34.373 -19.369 -20.940  0.00  0.00    -0.020 C 
ATOM      3  C   UNL     1      35.585 -19.896 -20.531  0.00  0.00    +0.035 C 
ATOM      4  C   UNL     1      33.173 -19.989 -20.631  0.00  0.00    -0.001 C 
ATOM      5  C   UNL     1      35.599 -21.079 -19.790  0.00  0.00    +0.167 C 
ATOM      6  C   UNL     1      33.187 -21.170 -19.891  0.00  0.00    +0.039 C 
ATOM      7  C   UNL     1      34.400 -21.715 -19.470  0.00  0.00    +0.167 C 
BRANCH   5   8
ATOM      8  O   UNL     1      36.790 -21.601 -19.384  0.00  0.00    -0.503 OA
ATOM      9  H   UNL     1      37.005 -22.490 -19.584  0.00  0.00    +0.292 HD
ENDBRANCH   5   8
BRANCH   7  10
ATOM     10  O   UNL     1      34.401 -22.870 -18.746  0.00  0.00    -0.503 OA
ATOM     11  H   UNL     1      34.222 -22.847 -17.827  0.00  0.00    +0.292 HD
ENDBRANCH   7  10
ENDBRANCH   1   2
BRANCH   1  12
ATOM     12  C   UNL     1      35.104 -18.142 -23.099  0.00  0.00    +0.047 C 
ATOM     13  C   UNL     1      34.770 -19.418 -23.887  0.00  0.00    -0.011 C 
BRANCH  12  14
ATOM     14  N   UNL     1      36.550 -18.182 -22.838  0.00  0.00    +0.390 N 
ATOM     15  H   UNL     1      36.975 -18.929 -23.388  0.00  0.00    -0.088 HD
ATOM     16  H   UNL     1      36.712 -18.356 -21.846  0.00  0.00    -0.088 HD
ATOM     17  H   UNL     1      36.967 -17.288 -23.099  0.00  0.00    -0.088 HD
ENDBRANCH  12  14
BRANCH  12  19
ATOM     18  O   UNL     1      34.083 -16.897 -24.933  0.00  0.00    -0.253 OA
ATOM     19  C   UNL     1      34.828 -16.907 -23.960  0.00  0.00    +0.295 C 
BRANCH  19  20
ATOM     20  O   UNL     1      35.504 -15.797 -23.562  0.00  0.00    -0.482 OA
ATOM     21  H   UNL     1      36.361 -15.878 -23.192  0.00  0.00    +0.295 HD
ENDBRANCH  19  20
ENDBRANCH  12  19
ENDBRANCH   1  12
TORSDOF 7
ENDMDL
MODEL 3
REMARK VINA RESULT:      -7.2      1.469      1.889
REMARK  Name = 38853
REMARK  7 active torsions:
REMARK  status: ('A' for Active; 'I' for Inactive)
REMARK    1  A    between atoms: C_1  and  C_2
REMARK    2  A    between atoms: C_1  and  C_12
REMARK    3  A    between atoms: C_5  and  O_8
REMARK    4  A    between atoms: C_7  and  O_10
REMARK    5  A    between atoms: C_12  and  N_14
REMARK    6  A    between atoms: C_12  and  C_19
REMARK    7  A    between atoms: C_19  and  O_20
REMARK                            x       y       z     vdW  Elec       q    Type
REMARK                         _______ _______ _______ _____ _____    ______ ____
ROOT
ATOM      1  C   UNL     1      34.243 -19.069 -22.523  0.00  0.00    +0.017 C 
ENDROOT
BRANCH   1   2
ATOM      2  C   UNL     1      34.484 -19.980 -21.341  0.00  0.00    -0.020 C 
ATOM      3  C   UNL     1      33.399 -20.478 -20.640  0.00  0.00    +0.035 C 
ATOM      4  C   UNL     1      35.783 -20.298 -20.984  0.00  0.00    -0.001 C 
ATOM      5  C   UNL     1      33.621 -21.319 -19.548  0.00  0.00    +0.167 C 
ATOM      6  C   UNL     1      36.005 -21.138 -19.894  0.00  0.00    +0.039 C 
ATOM      7  C   UNL     1      34.925 -21.650 -19.177  0.00  0.00    +0.167 C 
BRANCH   5   8
ATOM      8  O   UNL     1      32.557 -21.813 -18.856  0.00  0.00    -0.503 OA
ATOM      9  H   UNL     1      32.382 -22.733 -18.860  0.00  0.00    +0.292 HD
ENDBRANCH   5   8
BRANCH   7  10
ATOM     10  O   UNL     1      35.153 -22.471 -18.113  0.00  0.00    -0.503 OA
ATOM     11  H   UNL     1      35.864 -23.081 -18.137  0.00  0.00    +0.292 HD
ENDBRANCH   7  10
ENDBRANCH   1   2
BRANCH   1  12
ATOM     12  C   UNL     1      34.973 -17.704 -22.472  0.00  0.00    +0.047 C 
ATOM     13  C   UNL     1      34.684 -16.852 -23.717  0.00  0.00    -0.011 C 
BRANCH  12  14
ATOM     14  N   UNL     1      36.424 -17.946 -22.463  0.00  0.00    +0.390 N 
ATOM     15  H   UNL     1      36.601 -18.951 -22.484  0.00  0.00    -0.088 HD
ATOM     16  H   UNL     1      36.830 -17.548 -21.616  0.00  0.00    -0.088 HD
ATOM     17  H   UNL     1      36.846 -17.509 -23.281  0.00  0.00    -0.088 HD
ENDBRANCH  12  14
BRANCH  12  19
ATOM     18  O   UNL     1      35.409 -16.748 -20.269  0.00  0.00    -0.253 OA
ATOM     19  C   UNL     1      34.635 -16.914 -21.205  0.00  0.00    +0.295 C 
BRANCH  19  20
ATOM     20  O   UNL     1      33.372 -16.412 -21.191  0.00  0.00    -0.482 OA
ATOM     21  H   UNL     1      33.211 -15.540 -21.492  0.00  0.00    +0.295 HD
ENDBRANCH  19  20
ENDBRANCH  12  19
ENDBRANCH   1  12
TORSDOF 7
ENDMDL
MODEL 4
REMARK VINA RESULT:      -7.0      2.956      5.778
REMARK  Name = 38853
REMARK  7 active torsions:
REMARK  status: ('A' for Active; 'I' for Inactive)
REMARK    1  A    between atoms: C_1  and  C_2
REMARK    2  A    between atoms: C_1  and  C_12
REMARK    3  A    between atoms: C_5  and  O_8
REMARK    4  A    between atoms: C_7  and  O_10
REMARK    5  A    between atoms: C_12  and  N_14
REMARK    6  A    between atoms: C_12  and  C_19
REMARK    7  A    between atoms: C_19  and  O_20
REMARK                            x       y       z     vdW  Elec       q    Type
REMARK                         _______ _______ _______ _____ _____    ______ ____
ROOT
ATOM      1  C   UNL     1      35.294 -17.035 -20.945  0.00  0.00    +0.017 C 
ENDROOT
BRANCH   1   2
ATOM      2  C   UNL     1      34.335 -15.962 -21.407  0.00  0.00    -0.020 C 
ATOM      3  C   UNL     1      34.272 -15.645 -22.753  0.00  0.00    +0.035 C 
ATOM      4  C   UNL     1      33.541 -15.317 -20.474  0.00  0.00    -0.001 C 
ATOM      5  C   UNL     1      33.387 -14.654 -23.179  0.00  0.00    +0.167 C 
ATOM      6  C   UNL     1      32.656 -14.327 -20.900  0.00  0.00    +0.039 C 
ATOM      7  C   UNL     1      32.579 -13.995 -22.252  0.00  0.00    +0.167 C 
BRANCH   5   8
ATOM      8  O   UNL     1      33.320 -14.340 -24.503  0.00  0.00    -0.503 OA
ATOM      9  H   UNL     1      32.693 -13.713 -24.804  0.00  0.00    +0.292 HD
ENDBRANCH   5   8
BRANCH   7  10
ATOM     10  O   UNL     1      31.710 -13.027 -22.657  0.00  0.00    -0.503 OA
ATOM     11  H   UNL     1      31.999 -12.351 -23.238  0.00  0.00    +0.292 HD
ENDBRANCH   7  10
ENDBRANCH   1   2
BRANCH   1  12
ATOM     12  C   UNL     1      34.932 -18.480 -21.366  0.00  0.00    +0.047 C 
ATOM     13  C   UNL     1      33.464 -18.816 -21.059  0.00  0.00    -0.011 C 
BRANCH  12  14
ATOM     14  N   UNL     1      35.746 -19.418 -20.578  0.00  0.00    +0.390 N 
ATOM     15  H   UNL     1      35.134 -20.029 -20.038  0.00  0.00    -0.088 HD
ATOM     16  H   UNL     1      36.349 -18.894 -19.944  0.00  0.00    -0.088 HD
ATOM     17  H   UNL     1      36.320 -19.980 -21.206  0.00  0.00    -0.088 HD
ENDBRANCH  12  14
BRANCH  12  19
ATOM     18  O   UNL     1      34.481 -19.347 -23.603  0.00  0.00    -0.253 OA
ATOM     19  C   UNL     1      35.232 -18.745 -22.844  0.00  0.00    +0.295 C 
BRANCH  19  20
ATOM     20  O   UNL     1      36.434 -18.263 -23.255  0.00  0.00    -0.482 OA
ATOM     21  H   UNL     1      36.949 -17.734 -22.679  0.00  0.00    +0.295 HD
ENDBRANCH  19  20
ENDBRANCH  12  19
ENDBRANCH   1  12
TORSDOF 7
ENDMDL
MODEL 5
REMARK VINA RESULT:      -7.0      8.006      9.876
REMARK  Name = 38853
REMARK  7 active torsions:
REMARK  status: ('A' for Active; 'I' for Inactive)
REMARK    1  A    between atoms: C_1  and  C_2
REMARK    2  A    between atoms: C_1  and  C_12
REMARK    3  A    between atoms: C_5  and  O_8
REMARK    4  A    between atoms: C_7  and  O_10
REMARK    5  A    between atoms: C_12  and  N_14
REMARK    6  A    between atoms: C_12  and  C_19
REMARK    7  A    between atoms: C_19  and  O_20
REMARK                            x       y       z     vdW  Elec       q    Type
REMARK                         _______ _______ _______ _____ _____    ______ ____
ROOT
ATOM      1  C   UNL     1      37.893 -23.972 -14.132  0.00  0.00    +0.017 C 
ENDROOT
BRANCH   1   2
ATOM      2  C   UNL     1      36.423 -23.885 -14.474  0.00  0.00    -0.020 C 
ATOM      3  C   UNL     1      35.491 -24.388 -13.583  0.00  0.00    +0.035 C 
ATOM      4  C   UNL     1      36.040 -23.306 -15.672  0.00  0.00    -0.001 C 
ATOM      5  C   UNL     1      34.134 -24.309 -13.899  0.00  0.00    +0.167 C 
ATOM      6  C   UNL     1      34.685 -23.226 -15.988  0.00  0.00    +0.039 C 
ATOM      7  C   UNL     1      33.731 -23.727 -15.102  0.00  0.00    +0.167 C 
BRANCH   5   8
ATOM      8  O   UNL     1      33.213 -24.801 -13.025  0.00  0.00    -0.503 OA
ATOM      9  H   UNL     1      33.000 -24.321 -12.250  0.00  0.00    +0.292 HD
ENDBRANCH   5   8
BRANCH   7  10
ATOM     10  O   UNL     1      32.409 -23.643 -15.421  0.00  0.00    -0.503 OA
ATOM     11  H   UNL     1      32.128 -23.068 -16.105  0.00  0.00    +0.292 HD
ENDBRANCH   7  10
ENDBRANCH   1   2
BRANCH   1  12
ATOM     12  C   UNL     1      38.531 -25.375 -14.280  0.00  0.00    +0.047 C 
ATOM     13  C   UNL     1      37.683 -26.300 -15.166  0.00  0.00    -0.011 C 
BRANCH  12  14
ATOM     14  N   UNL     1      38.587 -26.008 -12.954  0.00  0.00    +0.390 N 
ATOM     15  H   UNL     1      38.619 -27.022 -13.062  0.00  0.00    -0.088 HD
ATOM     16  H   UNL     1      37.758 -25.750 -12.418  0.00  0.00    -0.088 HD
ATOM     17  H   UNL     1      39.422 -25.692 -12.461  0.00  0.00    -0.088 HD
ENDBRANCH  12  14
BRANCH  12  19
ATOM     18  O   UNL     1      40.895 -24.772 -14.221  0.00  0.00    -0.253 OA
ATOM     19  C   UNL     1      39.964 -25.306 -14.814  0.00  0.00    +0.295 C 
BRANCH  19  20
ATOM     20  O   UNL     1      40.125 -25.882 -16.033  0.00  0.00    -0.482 OA
ATOM     21  H   UNL     1      40.872 -25.668 -16.557  0.00  0.00    +0.295 HD
ENDBRANCH  19  20
ENDBRANCH  12  19
ENDBRANCH   1  12
TORSDOF 7
ENDMDL
MODEL 6
REMARK VINA RESULT:      -7.0      2.789      6.000
REMARK  Name = 38853
REMARK  7 active torsions:
REMARK  status: ('A' for Active; 'I' for Inactive)
REMARK    1  A    between atoms: C_1  and  C_2
REMARK    2  A    between atoms: C_1  and  C_12
REMARK    3  A    between atoms: C_5  and  O_8
REMARK    4  A    between atoms: C_7  and  O_10
REMARK    5  A    between atoms: C_12  and  N_14
REMARK    6  A    between atoms: C_12  and  C_19
REMARK    7  A    between atoms: C_19  and  O_20
REMARK                            x       y       z     vdW  Elec       q    Type
REMARK                         _______ _______ _______ _____ _____    ______ ____
ROOT
ATOM      1  C   UNL     1      35.277 -17.444 -21.143  0.00  0.00    +0.017 C 
ENDROOT
BRANCH   1   2
ATOM      2  C   UNL     1      34.363 -16.317 -21.567  0.00  0.00    -0.020 C 
ATOM      3  C   UNL     1      34.266 -15.994 -22.909  0.00  0.00    +0.035 C 
ATOM      4  C   UNL     1      33.642 -15.631 -20.603  0.00  0.00    -0.001 C 
ATOM      5  C   UNL     1      33.423 -14.953 -23.300  0.00  0.00    +0.167 C 
ATOM      6  C   UNL     1      32.800 -14.591 -20.994  0.00  0.00    +0.039 C 
ATOM      7  C   UNL     1      32.689 -14.252 -22.342  0.00  0.00    +0.167 C 
BRANCH   5   8
ATOM      8  O   UNL     1      33.322 -14.632 -24.620  0.00  0.00    -0.503 OA
ATOM      9  H   UNL     1      32.596 -14.942 -25.124  0.00  0.00    +0.292 HD
ENDBRANCH   5   8
BRANCH   7  10
ATOM     10  O   UNL     1      31.861 -13.235 -22.713  0.00  0.00    -0.503 OA
ATOM     11  H   UNL     1      31.777 -12.478 -22.167  0.00  0.00    +0.292 HD
ENDBRANCH   7  10
ENDBRANCH   1   2
BRANCH   1  12
ATOM     12  C   UNL     1      34.736 -18.873 -21.396  0.00  0.00    +0.047 C 
ATOM     13  C   UNL     1      34.784 -19.249 -22.886  0.00  0.00    -0.011 C 
BRANCH  12  14
ATOM     14  N   UNL     1      33.320 -18.916 -21.003  0.00  0.00    +0.390 N 
ATOM     15  H   UNL     1      32.845 -19.655 -21.522  0.00  0.00    -0.088 HD
ATOM     16  H   UNL     1      32.881 -18.019 -21.212  0.00  0.00    -0.088 HD
ATOM     17  H   UNL     1      33.251 -19.104 -20.003  0.00  0.00    -0.088 HD
ENDBRANCH  12  14
BRANCH  12  19
ATOM     18  O   UNL     1      34.988 -21.000 -20.226  0.00  0.00    -0.253 OA
ATOM     19  C   UNL     1      35.473 -19.926 -20.565  0.00  0.00    +0.295 C 
BRANCH  19  20
ATOM     20  O   UNL     1      36.733 -19.562 -20.209  0.00  0.00    -0.482 OA
ATOM     21  H   UNL     1      36.997 -19.607 -19.311  0.00  0.00    +0.295 HD
ENDBRANCH  19  20
ENDBRANCH  12  19
ENDBRANCH   1  12
TORSDOF 7
ENDMDL
MODEL 7
REMARK VINA RESULT:      -6.8      5.950      9.415
REMARK  Name = 38853
REMARK  7 active torsions:
REMARK  status: ('A' for Active; 'I' for Inactive)
REMARK    1  A    between atoms: C_1  and  C_2
REMARK    2  A    between atoms: C_1  and  C_12
REMARK    3  A    between atoms: C_5  and  O_8
REMARK    4  A    between atoms: C_7  and  O_10
REMARK    5  A    between atoms: C_12  and  N_14
REMARK    6  A    between atoms: C_12  and  C_19
REMARK    7  A    between atoms: C_19  and  O_20
REMARK                            x       y       z     vdW  Elec       q    Type
REMARK                         _______ _______ _______ _____ _____    ______ ____
ROOT
ATOM      1  C   UNL     1      35.394 -23.435 -14.096  0.00  0.00    +0.017 C 
ENDROOT
BRANCH   1   2
ATOM      2  C   UNL     1      34.773 -23.220 -15.457  0.00  0.00    -0.020 C 
ATOM      3  C   UNL     1      35.564 -22.763 -16.497  0.00  0.00    +0.035 C 
ATOM      4  C   UNL     1      33.425 -23.483 -15.635  0.00  0.00    -0.001 C 
ATOM      5  C   UNL     1      34.990 -22.563 -17.753  0.00  0.00    +0.167 C 
ATOM      6  C   UNL     1      32.852 -23.284 -16.890  0.00  0.00    +0.039 C 
ATOM      7  C   UNL     1      33.634 -22.825 -17.950  0.00  0.00    +0.167 C 
BRANCH   5   8
ATOM      8  O   UNL     1      35.765 -22.116 -18.780  0.00  0.00    -0.503 OA
ATOM      9  H   UNL     1      36.523 -22.600 -19.041  0.00  0.00    +0.292 HD
ENDBRANCH   5   8
BRANCH   7  10
ATOM     10  O   UNL     1      33.063 -22.635 -19.172  0.00  0.00    -0.503 OA
ATOM     11  H   UNL     1      32.312 -23.137 -19.422  0.00  0.00    +0.292 HD
ENDBRANCH   7  10
ENDBRANCH   1   2
BRANCH   1  12
ATOM     12  C   UNL     1      36.190 -24.752 -13.926  0.00  0.00    +0.047 C 
ATOM     13  C   UNL     1      37.659 -24.593 -14.349  0.00  0.00    -0.011 C 
BRANCH  12  14
ATOM     14  N   UNL     1      35.610 -25.770 -14.816  0.00  0.00    +0.390 N 
ATOM     15  H   UNL     1      34.596 -25.667 -14.834  0.00  0.00    -0.088 HD
ATOM     16  H   UNL     1      35.852 -26.699 -14.473  0.00  0.00    -0.088 HD
ATOM     17  H   UNL     1      35.981 -25.648 -15.758  0.00  0.00    -0.088 HD
ENDBRANCH  12  14
BRANCH  12  19
ATOM     18  O   UNL     1      36.988 -25.969 -11.967  0.00  0.00    -0.253 OA
ATOM     19  C   UNL     1      36.111 -25.296 -12.498  0.00  0.00    +0.295 C 
BRANCH  19  20
ATOM     20  O   UNL     1      34.957 -24.982 -11.853  0.00  0.00    -0.482 OA
ATOM     21  H   UNL     1      34.986 -24.512 -11.044  0.00  0.00    +0.295 HD
ENDBRANCH  19  20
ENDBRANCH  12  19
ENDBRANCH   1  12
TORSDOF 7
ENDMDL
MODEL 8
REMARK VINA RESULT:      -6.8      8.956     10.405
REMARK  Name = 38853
REMARK  7 active torsions:
REMARK  status: ('A' for Active; 'I' for Inactive)
REMARK    1  A    between atoms: C_1  and  C_2
REMARK    2  A    between atoms: C_1  and  C_12
REMARK    3  A    between atoms: C_5  and  O_8
REMARK    4  A    between atoms: C_7  and  O_10
REMARK    5  A    between atoms: C_12  and  N_14
REMARK    6  A    between atoms: C_12  and  C_19
REMARK    7  A    between atoms: C_19  and  O_20
REMARK                            x       y       z     vdW  Elec       q    Type
REMARK                         _______ _______ _______ _____ _____    ______ ____
ROOT
ATOM      1  C   UNL     1      33.619 -24.925 -14.074  0.00  0.00    +0.017 C 
ENDROOT
BRANCH   1   2
ATOM      2  C   UNL     1      34.817 -24.310 -13.389  0.00  0.00    -0.020 C 
ATOM      3  C   UNL     1      34.980 -24.486 -12.026  0.00  0.00    +0.035 C 
ATOM      4  C   UNL     1      35.726 -23.582 -14.138  0.00  0.00    -0.001 C 
ATOM      5  C   UNL     1      36.086 -23.917 -11.392  0.00  0.00    +0.167 C 
ATOM      6  C   UNL     1      36.831 -23.014 -13.505  0.00  0.00    +0.039 C 
ATOM      7  C   UNL     1      37.012 -23.182 -12.133  0.00  0.00    +0.167 C 
BRANCH   5   8
ATOM      8  O   UNL     1      36.252 -24.090 -10.051  0.00  0.00    -0.503 OA
ATOM      9  H   UNL     1      36.113 -23.372  -9.466  0.00  0.00    +0.292 HD
ENDBRANCH   5   8
BRANCH   7  10
ATOM     10  O   UNL     1      38.096 -22.623 -11.526  0.00  0.00    -0.503 OA
ATOM     11  H   UNL     1      38.005 -22.214 -10.687  0.00  0.00    +0.292 HD
ENDBRANCH   7  10
ENDBRANCH   1   2
BRANCH   1  12
ATOM     12  C   UNL     1      32.371 -24.014 -14.184  0.00  0.00    +0.047 C 
ATOM     13  C   UNL     1      32.306 -23.291 -15.539  0.00  0.00    -0.011 C 
BRANCH  12  14
ATOM     14  N   UNL     1      32.465 -22.964 -13.158  0.00  0.00    +0.390 N 
ATOM     15  H   UNL     1      31.898 -23.226 -12.351  0.00  0.00    -0.088 HD
ATOM     16  H   UNL     1      32.123 -22.083 -13.541  0.00  0.00    -0.088 HD
ATOM     17  H   UNL     1      33.437 -22.856 -12.870  0.00  0.00    -0.088 HD
ENDBRANCH  12  14
BRANCH  12  19
ATOM     18  O   UNL     1      30.490 -25.448 -14.785  0.00  0.00    -0.253 OA
ATOM     19  C   UNL     1      31.071 -24.781 -13.935  0.00  0.00    +0.295 C 
BRANCH  19  20
ATOM     20  O   UNL     1      30.587 -24.649 -12.672  0.00  0.00    -0.482 OA
ATOM     21  H   UNL     1      30.261 -25.398 -12.214  0.00  0.00    +0.295 HD
ENDBRANCH  19  20
ENDBRANCH  12  19
ENDBRANCH   1  12
TORSDOF 7
ENDMDL
MODEL 9
REMARK VINA RESULT:      -6.8      7.786     10.217
REMARK  Name = 38853
REMARK  7 active torsions:
REMARK  status: ('A' for Active; 'I' for Inactive)
REMARK    1  A    between atoms: C_1  and  C_2
REMARK    2  A    between atoms: C_1  and  C_12
REMARK    3  A    between atoms: C_5  and  O_8
REMARK    4  A    between atoms: C_7  and  O_10
REMARK    5  A    between atoms: C_12  and  N_14
REMARK    6  A    between atoms: C_12  and  C_19
REMARK    7  A    between atoms: C_19  and  O_20
REMARK                            x       y       z     vdW  Elec       q    Type
REMARK                         _______ _______ _______ _____ _____    ______ ____
ROOT
ATOM      1  C   UNL     1      37.292 -23.828 -13.978  0.00  0.00    +0.017 C 
ENDROOT
BRANCH   1   2
ATOM      2  C   UNL     1      35.844 -23.783 -14.413  0.00  0.00    -0.020 C 
ATOM      3  C   UNL     1      34.876 -24.338 -13.595  0.00  0.00    +0.035 C 
ATOM      4  C   UNL     1      35.518 -23.188 -15.620  0.00  0.00    -0.001 C 
ATOM      5  C   UNL     1      33.540 -24.297 -13.996  0.00  0.00    +0.167 C 
ATOM      6  C   UNL     1      34.183 -23.146 -16.020  0.00  0.00    +0.039 C 
ATOM      7  C   UNL     1      33.194 -23.700 -15.209  0.00  0.00    +0.167 C 
BRANCH   5   8
ATOM      8  O   UNL     1      32.582 -24.840 -13.194  0.00  0.00    -0.503 OA
ATOM      9  H   UNL     1      32.332 -25.736 -13.303  0.00  0.00    +0.292 HD
ENDBRANCH   5   8
BRANCH   7  10
ATOM     10  O   UNL     1      31.893 -23.653 -15.611  0.00  0.00    -0.503 OA
ATOM     11  H   UNL     1      31.681 -23.380 -16.482  0.00  0.00    +0.292 HD
ENDBRANCH   7  10
ENDBRANCH   1   2
BRANCH   1  12
ATOM     12  C   UNL     1      37.960 -25.224 -14.028  0.00  0.00    +0.047 C 
ATOM     13  C   UNL     1      39.493 -25.128 -13.975  0.00  0.00    -0.011 C 
BRANCH  12  14
ATOM     14  N   UNL     1      37.628 -25.858 -15.313  0.00  0.00    +0.390 N 
ATOM     15  H   UNL     1      37.933 -26.832 -15.300  0.00  0.00    -0.088 HD
ATOM     16  H   UNL     1      38.102 -25.364 -16.069  0.00  0.00    -0.088 HD
ATOM     17  H   UNL     1      36.620 -25.819 -15.461  0.00  0.00    -0.088 HD
ENDBRANCH  12  14
BRANCH  12  19
ATOM     18  O   UNL     1      37.646 -25.960 -11.722  0.00  0.00    -0.253 OA
ATOM     19  C   UNL     1      37.453 -26.148 -12.918  0.00  0.00    +0.295 C 
BRANCH  19  20
ATOM     20  O   UNL     1      36.769 -27.230 -13.373  0.00  0.00    -0.482 OA
ATOM     21  H   UNL     1      36.436 -27.240 -14.249  0.00  0.00    +0.295 HD
ENDBRANCH  19  20
ENDBRANCH  12  19
ENDBRANCH   1  12
TORSDOF 7
ENDMDL
