MODEL 1
REMARK VINA RESULT:     -12.3      0.000      0.000
REMARK  Name = 20843156
REMARK  7 active torsions:
REMARK  status: ('A' for Active; 'I' for Inactive)
REMARK    1  A    between atoms: N_3  and  C_34
REMARK    2  A    between atoms: C_5  and  C_28
REMARK    3  A    between atoms: C_9  and  C_16
REMARK    4  A    between atoms: C_17  and  C_24
REMARK    5  A    between atoms: C_34  and  C_35
REMARK    6  A    between atoms: C_35  and  C_36
REMARK    7  A    between atoms: C_36  and  O_37
REMARK                            x       y       z     vdW  Elec       q    Type
REMARK                         _______ _______ _______ _____ _____    ______ ____
ROOT
ATOM      1  O   UNL     1      33.917 -16.799 -20.769  0.00  0.00    -0.464 OA
ATOM      2  O   UNL     1      35.580 -18.254 -23.574  0.00  0.00    -0.270 OA
ATOM      3  N   UNL     1      34.647 -16.127 -23.419  0.00  0.00    -0.253 N 
ATOM      4  C   UNL     1      33.999 -15.182 -22.574  0.00  0.00    +0.088 C 
ATOM      5  C   UNL     1      35.036 -17.423 -21.374  0.00  0.00    +0.264 C 
ATOM      6  C   UNL     1      35.097 -17.344 -22.901  0.00  0.00    +0.274 C 
ATOM      7  C   UNL     1      33.658 -15.554 -21.270  0.00  0.00    +0.153 C 
ATOM      8  C   UNL     1      33.645 -13.898 -23.015  0.00  0.00    +0.015 C 
ATOM      9  C   UNL     1      32.968 -13.015 -22.169  0.00  0.00    -0.007 C 
ATOM     10  C   UNL     1      32.963 -14.680 -20.431  0.00  0.00    +0.038 C 
ATOM     11  C   UNL     1      32.626 -13.406 -20.878  0.00  0.00    -0.000 C 
ENDROOT
BRANCH   9  16
ATOM     12  N   UNL     1      31.206  -9.744 -22.490  0.00  0.00    -0.337 NA
ATOM     13  N   UNL     1      32.985  -9.825 -24.114  0.00  0.00    -0.317 NA
ATOM     14  N   UNL     1      34.381 -11.728 -24.275  0.00  0.00    -0.335 N 
ATOM     15  N   UNL     1      31.594  -7.943 -23.942  0.00  0.00    -0.283 N 
ATOM     16  C   UNL     1      32.615 -11.691 -22.638  0.00  0.00    +0.138 C 
ATOM     17  C   UNL     1      31.569 -10.980 -22.086  0.00  0.00    +0.112 C 
ATOM     18  C   UNL     1      33.294 -11.057 -23.659  0.00  0.00    +0.178 C 
ATOM     19  C   UNL     1      31.946  -9.234 -23.493  0.00  0.00    +0.196 C 
ATOM     20  H   UNL     1      34.878 -11.292 -25.005  0.00  0.00    +0.144 HD
ATOM     21  H   UNL     1      34.639 -12.628 -23.972  0.00  0.00    +0.144 HD
ATOM     22  H   UNL     1      30.843  -7.465 -23.525  0.00  0.00    +0.156 HD
ATOM     23  H   UNL     1      32.102  -7.521 -24.673  0.00  0.00    +0.156 HD
BRANCH  17  24
ATOM     24  C   UNL     1      30.752 -11.552 -20.973  0.00  0.00    +0.056 C 
ATOM     25  C   UNL     1      30.873 -10.737 -19.690  0.00  0.00    +0.008 C 
ENDBRANCH  17  24
ENDBRANCH   9  16
BRANCH   5  28
ATOM     26  F   UNL     1      32.619 -21.467 -20.154  0.00  0.00    -0.204 F 
ATOM     27  F   UNL     1      37.351 -21.461 -19.944  0.00  0.00    -0.204 F 
ATOM     28  C   UNL     1      35.018 -18.843 -20.908  0.00  0.00    +0.031 C 
ATOM     29  C   UNL     1      36.217 -19.500 -20.638  0.00  0.00    +0.029 C 
ATOM     30  C   UNL     1      33.803 -19.504 -20.746  0.00  0.00    +0.029 C 
ATOM     31  C   UNL     1      33.786 -20.829 -20.311  0.00  0.00    +0.142 C 
ATOM     32  C   UNL     1      36.200 -20.826 -20.203  0.00  0.00    +0.142 C 
ATOM     33  C   UNL     1      34.985 -21.490 -20.040  0.00  0.00    +0.059 C 
ENDBRANCH   5  28
BRANCH   3  34
ATOM     34  C   UNL     1      34.818 -15.835 -24.837  0.00  0.00    +0.101 C 
BRANCH  34  35
ATOM     35  C   UNL     1      33.666 -16.358 -25.683  0.00  0.00    +0.054 C 
BRANCH  35  36
ATOM     36  C   UNL     1      32.845 -15.243 -26.320  0.00  0.00    +0.144 C 
BRANCH  36  37
ATOM     37  O   UNL     1      33.640 -14.594 -27.304  0.00  0.00    -0.351 OA
ATOM     38  C   UNL     1      33.433 -13.188 -27.299  0.00  0.00    +0.174 C 
ENDBRANCH  36  37
ENDBRANCH  35  36
ENDBRANCH  34  35
ENDBRANCH   3  34
TORSDOF 7
ENDMDL
MODEL 2
REMARK VINA RESULT:     -12.1      0.719      1.876
REMARK  Name = 20843156
REMARK  7 active torsions:
REMARK  status: ('A' for Active; 'I' for Inactive)
REMARK    1  A    between atoms: N_3  and  C_34
REMARK    2  A    between atoms: C_5  and  C_28
REMARK    3  A    between atoms: C_9  and  C_16
REMARK    4  A    between atoms: C_17  and  C_24
REMARK    5  A    between atoms: C_34  and  C_35
REMARK    6  A    between atoms: C_35  and  C_36
REMARK    7  A    between atoms: C_36  and  O_37
REMARK                            x       y       z     vdW  Elec       q    Type
REMARK                         _______ _______ _______ _____ _____    ______ ____
ROOT
ATOM      1  O   UNL     1      33.809 -16.629 -20.825  0.00  0.00    -0.464 OA
ATOM      2  O   UNL     1      35.435 -18.044 -23.672  0.00  0.00    -0.270 OA
ATOM      3  N   UNL     1      34.467 -15.935 -23.488  0.00  0.00    -0.253 N 
ATOM      4  C   UNL     1      33.821 -15.004 -22.626  0.00  0.00    +0.088 C 
ATOM      5  C   UNL     1      34.926 -17.230 -21.457  0.00  0.00    +0.264 C 
ATOM      6  C   UNL     1      34.951 -17.145 -22.985  0.00  0.00    +0.274 C 
ATOM      7  C   UNL     1      33.516 -15.388 -21.316  0.00  0.00    +0.153 C 
ATOM      8  C   UNL     1      33.433 -13.726 -23.054  0.00  0.00    +0.015 C 
ATOM      9  C   UNL     1      32.759 -12.859 -22.189  0.00  0.00    -0.007 C 
ATOM     10  C   UNL     1      32.824 -14.529 -20.457  0.00  0.00    +0.038 C 
ATOM     11  C   UNL     1      32.453 -13.260 -20.892  0.00  0.00    -0.000 C 
ENDROOT
BRANCH   9  16
ATOM     12  N   UNL     1      32.789  -9.619 -24.036  0.00  0.00    -0.337 NA
ATOM     13  N   UNL     1      30.862  -9.665 -22.589  0.00  0.00    -0.317 NA
ATOM     14  N   UNL     1      30.433 -11.543 -21.216  0.00  0.00    -0.335 N 
ATOM     15  N   UNL     1      31.298  -7.809 -23.957  0.00  0.00    -0.283 N 
ATOM     16  C   UNL     1      32.372 -11.540 -22.645  0.00  0.00    +0.138 C 
ATOM     17  C   UNL     1      33.113 -10.848 -23.581  0.00  0.00    +0.112 C 
ATOM     18  C   UNL     1      31.245 -10.892 -22.180  0.00  0.00    +0.178 C 
ATOM     19  C   UNL     1      31.668  -9.095 -23.505  0.00  0.00    +0.196 C 
ATOM     20  H   UNL     1      29.626 -11.097 -20.872  0.00  0.00    +0.144 HD
ATOM     21  H   UNL     1      30.678 -12.439 -20.892  0.00  0.00    +0.144 HD
ATOM     22  H   UNL     1      31.851  -7.345 -24.626  0.00  0.00    +0.156 HD
ATOM     23  H   UNL     1      30.487  -7.377 -23.603  0.00  0.00    +0.156 HD
BRANCH  17  24
ATOM     24  C   UNL     1      34.356 -11.436 -24.166  0.00  0.00    +0.056 C 
ATOM     25  C   UNL     1      35.062 -10.471 -25.112  0.00  0.00    +0.008 C 
ENDBRANCH  17  24
ENDBRANCH   9  16
BRANCH   5  28
ATOM     26  F   UNL     1      32.611 -21.329 -20.220  0.00  0.00    -0.204 F 
ATOM     27  F   UNL     1      37.344 -21.223 -20.073  0.00  0.00    -0.204 F 
ATOM     28  C   UNL     1      34.944 -18.652 -20.997  0.00  0.00    +0.031 C 
ATOM     29  C   UNL     1      36.160 -19.285 -20.745  0.00  0.00    +0.029 C 
ATOM     30  C   UNL     1      33.746 -19.340 -20.821  0.00  0.00    +0.029 C 
ATOM     31  C   UNL     1      33.763 -20.666 -20.390  0.00  0.00    +0.142 C 
ATOM     32  C   UNL     1      36.177 -20.611 -20.314  0.00  0.00    +0.142 C 
ATOM     33  C   UNL     1      34.978 -21.302 -20.138  0.00  0.00    +0.059 C 
ENDBRANCH   5  28
BRANCH   3  34
ATOM     34  C   UNL     1      34.600 -15.635 -24.908  0.00  0.00    +0.101 C 
BRANCH  34  35
ATOM     35  C   UNL     1      33.448 -16.191 -25.733  0.00  0.00    +0.054 C 
BRANCH  35  36
ATOM     36  C   UNL     1      32.702 -15.112 -26.509  0.00  0.00    +0.144 C 
BRANCH  36  37
ATOM     37  O   UNL     1      33.622 -14.441 -27.359  0.00  0.00    -0.351 OA
ATOM     38  C   UNL     1      33.429 -13.033 -27.330  0.00  0.00    +0.174 C 
ENDBRANCH  36  37
ENDBRANCH  35  36
ENDBRANCH  34  35
ENDBRANCH   3  34
TORSDOF 7
ENDMDL
MODEL 3
REMARK VINA RESULT:     -10.6      2.837      5.609
REMARK  Name = 20843156
REMARK  7 active torsions:
REMARK  status: ('A' for Active; 'I' for Inactive)
REMARK    1  A    between atoms: N_3  and  C_34
REMARK    2  A    between atoms: C_5  and  C_28
REMARK    3  A    between atoms: C_9  and  C_16
REMARK    4  A    between atoms: C_17  and  C_24
REMARK    5  A    between atoms: C_34  and  C_35
REMARK    6  A    between atoms: C_35  and  C_36
REMARK    7  A    between atoms: C_36  and  O_37
REMARK                            x       y       z     vdW  Elec       q    Type
REMARK                         _______ _______ _______ _____ _____    ______ ____
ROOT
ATOM      1  O   UNL     1      34.065 -13.189 -23.949  0.00  0.00    -0.464 OA
ATOM      2  O   UNL     1      32.038 -14.809 -21.495  0.00  0.00    -0.270 OA
ATOM      3  N   UNL     1      32.025 -12.559 -22.092  0.00  0.00    -0.253 N 
ATOM      4  C   UNL     1      32.555 -11.566 -22.964  0.00  0.00    +0.088 C 
ATOM      5  C   UNL     1      33.138 -14.184 -23.552  0.00  0.00    +0.264 C 
ATOM      6  C   UNL     1      32.372 -13.902 -22.257  0.00  0.00    +0.274 C 
ATOM      7  C   UNL     1      33.561 -11.921 -23.869  0.00  0.00    +0.153 C 
ATOM      8  C   UNL     1      32.139 -10.227 -22.921  0.00  0.00    +0.015 C 
ATOM      9  C   UNL     1      32.718  -9.274 -23.763  0.00  0.00    -0.007 C 
ATOM     10  C   UNL     1      34.154 -10.964 -24.697  0.00  0.00    +0.038 C 
ATOM     11  C   UNL     1      33.726  -9.641 -24.650  0.00  0.00    -0.000 C 
ENDROOT
BRANCH   9  16
ATOM     12  N   UNL     1      32.763  -5.548 -23.907  0.00  0.00    -0.337 NA
ATOM     13  N   UNL     1      30.529  -6.272 -23.368  0.00  0.00    -0.317 NA
ATOM     14  N   UNL     1      30.025  -8.574 -23.171  0.00  0.00    -0.335 N 
ATOM     15  N   UNL     1      31.041  -3.991 -23.568  0.00  0.00    -0.283 N 
ATOM     16  C   UNL     1      32.273  -7.897 -23.710  0.00  0.00    +0.138 C 
ATOM     17  C   UNL     1      33.135  -6.845 -23.945  0.00  0.00    +0.112 C 
ATOM     18  C   UNL     1      30.968  -7.546 -23.424  0.00  0.00    +0.178 C 
ATOM     19  C   UNL     1      31.465  -5.337 -23.618  0.00  0.00    +0.196 C 
ATOM     20  H   UNL     1      29.090  -8.344 -22.965  0.00  0.00    +0.144 HD
ATOM     21  H   UNL     1      30.306  -9.517 -23.202  0.00  0.00    +0.144 HD
ATOM     22  H   UNL     1      31.684  -3.266 -23.742  0.00  0.00    +0.156 HD
ATOM     23  H   UNL     1      30.102  -3.777 -23.362  0.00  0.00    +0.156 HD
BRANCH  17  24
ATOM     24  C   UNL     1      34.574  -7.086 -24.266  0.00  0.00    +0.056 C 
ATOM     25  C   UNL     1      35.016  -6.349 -25.525  0.00  0.00    +0.008 C 
ENDBRANCH  17  24
ENDBRANCH   9  16
BRANCH   5  28
ATOM     26  F   UNL     1      34.964 -18.226 -25.558  0.00  0.00    -0.204 F 
ATOM     27  F   UNL     1      35.748 -17.378 -20.964  0.00  0.00    -0.204 F 
ATOM     28  C   UNL     1      33.918 -15.456 -23.450  0.00  0.00    +0.031 C 
ATOM     29  C   UNL     1      34.479 -15.830 -22.230  0.00  0.00    +0.029 C 
ATOM     30  C   UNL     1      34.080 -16.262 -24.573  0.00  0.00    +0.029 C 
ATOM     31  C   UNL     1      34.807 -17.449 -24.478  0.00  0.00    +0.142 C 
ATOM     32  C   UNL     1      35.206 -17.017 -22.135  0.00  0.00    +0.142 C 
ATOM     33  C   UNL     1      35.370 -17.825 -23.258  0.00  0.00    +0.059 C 
ENDBRANCH   5  28
BRANCH   3  34
ATOM     34  C   UNL     1      31.137 -12.168 -21.004  0.00  0.00    +0.101 C 
BRANCH  34  35
ATOM     35  C   UNL     1      31.896 -11.735 -19.758  0.00  0.00    +0.054 C 
BRANCH  35  36
ATOM     36  C   UNL     1      31.377 -10.425 -19.176  0.00  0.00    +0.144 C 
BRANCH  36  37
ATOM     37  O   UNL     1      32.447  -9.489 -19.132  0.00  0.00    -0.351 OA
ATOM     38  C   UNL     1      32.202  -8.376 -19.981  0.00  0.00    +0.174 C 
ENDBRANCH  36  37
ENDBRANCH  35  36
ENDBRANCH  34  35
ENDBRANCH   3  34
TORSDOF 7
ENDMDL
MODEL 4
REMARK VINA RESULT:     -10.4      4.794      9.055
REMARK  Name = 20843156
REMARK  7 active torsions:
REMARK  status: ('A' for Active; 'I' for Inactive)
REMARK    1  A    between atoms: N_3  and  C_34
REMARK    2  A    between atoms: C_5  and  C_28
REMARK    3  A    between atoms: C_9  and  C_16
REMARK    4  A    between atoms: C_17  and  C_24
REMARK    5  A    between atoms: C_34  and  C_35
REMARK    6  A    between atoms: C_35  and  C_36
REMARK    7  A    between atoms: C_36  and  O_37
REMARK                            x       y       z     vdW  Elec       q    Type
REMARK                         _______ _______ _______ _____ _____    ______ ____
ROOT
ATOM      1  O   UNL     1      32.055 -10.126 -22.341  0.00  0.00    -0.464 OA
ATOM      2  O   UNL     1      34.325  -7.989 -24.083  0.00  0.00    -0.270 OA
ATOM      3  N   UNL     1      34.272 -10.316 -24.089  0.00  0.00    -0.253 N 
ATOM      4  C   UNL     1      33.587 -11.482 -23.643  0.00  0.00    +0.088 C 
ATOM      5  C   UNL     1      32.336  -9.071 -23.244  0.00  0.00    +0.264 C 
ATOM      6  C   UNL     1      33.754  -9.047 -23.819  0.00  0.00    +0.274 C 
ATOM      7  C   UNL     1      32.494 -11.343 -22.781  0.00  0.00    +0.153 C 
ATOM      8  C   UNL     1      33.996 -12.776 -23.998  0.00  0.00    +0.015 C 
ATOM      9  C   UNL     1      33.324 -13.897 -23.501  0.00  0.00    -0.007 C 
ATOM     10  C   UNL     1      31.836 -12.463 -22.268  0.00  0.00    +0.038 C 
ATOM     11  C   UNL     1      32.246 -13.741 -22.636  0.00  0.00    -0.000 C 
ENDROOT
BRANCH   9  16
ATOM     12  N   UNL     1      34.910 -17.268 -23.341  0.00  0.00    -0.337 NA
ATOM     13  N   UNL     1      33.854 -17.014 -25.492  0.00  0.00    -0.317 NA
ATOM     14  N   UNL     1      32.714 -15.016 -26.044  0.00  0.00    -0.335 N 
ATOM     15  N   UNL     1      34.987 -18.991 -24.932  0.00  0.00    -0.283 N 
ATOM     16  C   UNL     1      33.755 -15.226 -23.882  0.00  0.00    +0.138 C 
ATOM     17  C   UNL     1      34.489 -16.024 -23.028  0.00  0.00    +0.112 C 
ATOM     18  C   UNL     1      33.464 -15.779 -25.113  0.00  0.00    +0.178 C 
ATOM     19  C   UNL     1      34.562 -17.694 -24.570  0.00  0.00    +0.196 C 
ATOM     20  H   UNL     1      32.496 -15.394 -26.927  0.00  0.00    +0.144 HD
ATOM     21  H   UNL     1      32.410 -14.111 -25.806  0.00  0.00    +0.144 HD
ATOM     22  H   UNL     1      35.508 -19.533 -24.297  0.00  0.00    +0.156 HD
ATOM     23  H   UNL     1      34.760 -19.354 -25.819  0.00  0.00    +0.156 HD
BRANCH  17  24
ATOM     24  C   UNL     1      34.871 -15.546 -21.665  0.00  0.00    +0.056 C 
ATOM     25  C   UNL     1      34.041 -16.204 -20.568  0.00  0.00    +0.008 C 
ENDBRANCH  17  24
ENDBRANCH   9  16
BRANCH   5  28
ATOM     26  F   UNL     1      32.706  -6.263 -19.286  0.00  0.00    -0.204 F 
ATOM     27  F   UNL     1      30.239  -4.683 -23.008  0.00  0.00    -0.204 F 
ATOM     28  C   UNL     1      32.033  -7.806 -22.507  0.00  0.00    +0.031 C 
ATOM     29  C   UNL     1      31.262  -6.816 -23.115  0.00  0.00    +0.029 C 
ATOM     30  C   UNL     1      32.521  -7.622 -21.216  0.00  0.00    +0.029 C 
ATOM     31  C   UNL     1      32.237  -6.442 -20.528  0.00  0.00    +0.142 C 
ATOM     32  C   UNL     1      30.979  -5.637 -22.426  0.00  0.00    +0.142 C 
ATOM     33  C   UNL     1      31.466  -5.449 -21.134  0.00  0.00    +0.059 C 
ENDBRANCH   5  28
BRANCH   3  34
ATOM     34  C   UNL     1      35.533 -10.447 -24.809  0.00  0.00    +0.101 C 
BRANCH  34  35
ATOM     35  C   UNL     1      35.387 -10.167 -26.298  0.00  0.00    +0.054 C 
BRANCH  35  36
ATOM     36  C   UNL     1      35.308 -11.439 -27.133  0.00  0.00    +0.144 C 
BRANCH  36  37
ATOM     37  O   UNL     1      34.020 -12.017 -26.967  0.00  0.00    -0.351 OA
ATOM     38  C   UNL     1      33.890 -13.224 -27.706  0.00  0.00    +0.174 C 
ENDBRANCH  36  37
ENDBRANCH  35  36
ENDBRANCH  34  35
ENDBRANCH   3  34
TORSDOF 7
ENDMDL
MODEL 5
REMARK VINA RESULT:     -10.2      8.291     13.071
REMARK  Name = 20843156
REMARK  7 active torsions:
REMARK  status: ('A' for Active; 'I' for Inactive)
REMARK    1  A    between atoms: N_3  and  C_34
REMARK    2  A    between atoms: C_5  and  C_28
REMARK    3  A    between atoms: C_9  and  C_16
REMARK    4  A    between atoms: C_17  and  C_24
REMARK    5  A    between atoms: C_34  and  C_35
REMARK    6  A    between atoms: C_35  and  C_36
REMARK    7  A    between atoms: C_36  and  O_37
REMARK                            x       y       z     vdW  Elec       q    Type
REMARK                         _______ _______ _______ _____ _____    ______ ____
ROOT
ATOM      1  O   UNL     1      31.595 -23.865 -14.968  0.00  0.00    -0.464 OA
ATOM      2  O   UNL     1      31.603 -22.094 -18.070  0.00  0.00    -0.270 OA
ATOM      3  N   UNL     1      33.426 -23.012 -16.950  0.00  0.00    -0.253 N 
ATOM      4  C   UNL     1      33.860 -23.779 -15.831  0.00  0.00    +0.088 C 
ATOM      5  C   UNL     1      31.156 -23.678 -16.303  0.00  0.00    +0.264 C 
ATOM      6  C   UNL     1      32.063 -22.818 -17.186  0.00  0.00    +0.274 C 
ATOM      7  C   UNL     1      32.921 -24.182 -14.876  0.00  0.00    +0.153 C 
ATOM      8  C   UNL     1      35.207 -24.109 -15.622  0.00  0.00    +0.015 C 
ATOM      9  C   UNL     1      35.598 -24.824 -14.487  0.00  0.00    -0.007 C 
ATOM     10  C   UNL     1      33.313 -24.879 -13.731  0.00  0.00    +0.038 C 
ATOM     11  C   UNL     1      34.652 -25.207 -13.541  0.00  0.00    -0.000 C 
ENDROOT
BRANCH   9  16
ATOM     12  N   UNL     1      39.141 -24.634 -13.341  0.00  0.00    -0.337 NA
ATOM     13  N   UNL     1      38.860 -26.637 -14.651  0.00  0.00    -0.317 NA
ATOM     14  N   UNL     1      36.758 -27.174 -15.591  0.00  0.00    -0.335 N 
ATOM     15  N   UNL     1      40.940 -26.092 -13.712  0.00  0.00    -0.283 N 
ATOM     16  C   UNL     1      36.992 -25.161 -14.289  0.00  0.00    +0.138 C 
ATOM     17  C   UNL     1      37.836 -24.357 -13.551  0.00  0.00    +0.112 C 
ATOM     18  C   UNL     1      37.565 -26.300 -14.820  0.00  0.00    +0.178 C 
ATOM     19  C   UNL     1      39.580 -25.772 -13.910  0.00  0.00    +0.196 C 
ATOM     20  H   UNL     1      37.148 -27.991 -15.978  0.00  0.00    +0.144 HD
ATOM     21  H   UNL     1      35.807 -26.965 -15.738  0.00  0.00    +0.144 HD
ATOM     22  H   UNL     1      41.514 -25.496 -13.179  0.00  0.00    +0.156 HD
ATOM     23  H   UNL     1      41.316 -26.914 -14.105  0.00  0.00    +0.156 HD
BRANCH  17  24
ATOM     24  C   UNL     1      37.343 -23.095 -12.921  0.00  0.00    +0.056 C 
ATOM     25  C   UNL     1      37.040 -23.271 -11.437  0.00  0.00    +0.008 C 
ENDBRANCH  17  24
ENDBRANCH   9  16
BRANCH   5  28
ATOM     26  F   UNL     1      26.815 -22.679 -18.263  0.00  0.00    -0.204 F 
ATOM     27  F   UNL     1      27.690 -21.345 -13.804  0.00  0.00    -0.204 F 
ATOM     28  C   UNL     1      29.784 -23.092 -16.208  0.00  0.00    +0.031 C 
ATOM     29  C   UNL     1      29.371 -22.480 -15.027  0.00  0.00    +0.029 C 
ATOM     30  C   UNL     1      28.924 -23.161 -17.301  0.00  0.00    +0.029 C 
ATOM     31  C   UNL     1      27.644 -22.614 -17.213  0.00  0.00    +0.142 C 
ATOM     32  C   UNL     1      28.091 -21.933 -14.939  0.00  0.00    +0.142 C 
ATOM     33  C   UNL     1      27.227 -22.000 -16.031  0.00  0.00    +0.059 C 
ENDBRANCH   5  28
BRANCH   3  34
ATOM     34  C   UNL     1      34.409 -22.403 -17.837  0.00  0.00    +0.101 C 
BRANCH  34  35
ATOM     35  C   UNL     1      34.171 -22.752 -19.299  0.00  0.00    +0.054 C 
BRANCH  35  36
ATOM     36  C   UNL     1      34.725 -21.702 -20.255  0.00  0.00    +0.144 C 
BRANCH  36  37
ATOM     37  O   UNL     1      34.163 -20.440 -19.923  0.00  0.00    -0.351 OA
ATOM     38  C   UNL     1      32.962 -20.196 -20.643  0.00  0.00    +0.174 C 
ENDBRANCH  36  37
ENDBRANCH  35  36
ENDBRANCH  34  35
ENDBRANCH   3  34
TORSDOF 7
ENDMDL
MODEL 6
REMARK VINA RESULT:     -10.1      4.867      9.329
REMARK  Name = 20843156
REMARK  7 active torsions:
REMARK  status: ('A' for Active; 'I' for Inactive)
REMARK    1  A    between atoms: N_3  and  C_34
REMARK    2  A    between atoms: C_5  and  C_28
REMARK    3  A    between atoms: C_9  and  C_16
REMARK    4  A    between atoms: C_17  and  C_24
REMARK    5  A    between atoms: C_34  and  C_35
REMARK    6  A    between atoms: C_35  and  C_36
REMARK    7  A    between atoms: C_36  and  O_37
REMARK                            x       y       z     vdW  Elec       q    Type
REMARK                         _______ _______ _______ _____ _____    ______ ____
ROOT
ATOM      1  O   UNL     1      31.801  -9.817 -22.563  0.00  0.00    -0.464 OA
ATOM      2  O   UNL     1      34.074  -7.925 -24.565  0.00  0.00    -0.270 OA
ATOM      3  N   UNL     1      34.172 -10.195 -24.061  0.00  0.00    -0.253 N 
ATOM      4  C   UNL     1      33.528 -11.291 -23.418  0.00  0.00    +0.088 C 
ATOM      5  C   UNL     1      32.093  -8.962 -23.654  0.00  0.00    +0.264 C 
ATOM      6  C   UNL     1      33.551  -8.945 -24.116  0.00  0.00    +0.274 C 
ATOM      7  C   UNL     1      32.356 -11.060 -22.690  0.00  0.00    +0.153 C 
ATOM      8  C   UNL     1      34.049 -12.592 -23.447  0.00  0.00    +0.015 C 
ATOM      9  C   UNL     1      33.411 -13.632 -22.765  0.00  0.00    -0.007 C 
ATOM     10  C   UNL     1      31.729 -12.094 -21.990  0.00  0.00    +0.038 C 
ATOM     11  C   UNL     1      32.252 -13.382 -22.035  0.00  0.00    -0.000 C 
ENDROOT
BRANCH   9  16
ATOM     12  N   UNL     1      34.446 -16.973 -24.056  0.00  0.00    -0.337 NA
ATOM     13  N   UNL     1      35.046 -16.826 -21.727  0.00  0.00    -0.317 NA
ATOM     14  N   UNL     1      34.577 -14.869 -20.485  0.00  0.00    -0.335 N 
ATOM     15  N   UNL     1      35.506 -18.762 -22.970  0.00  0.00    -0.283 N 
ATOM     16  C   UNL     1      33.959 -14.971 -22.810  0.00  0.00    +0.138 C 
ATOM     17  C   UNL     1      33.945 -15.722 -23.968  0.00  0.00    +0.112 C 
ATOM     18  C   UNL     1      34.528 -15.581 -21.710  0.00  0.00    +0.178 C 
ATOM     19  C   UNL     1      34.973 -17.456 -22.915  0.00  0.00    +0.196 C 
ATOM     20  H   UNL     1      34.979 -15.287 -19.689  0.00  0.00    +0.144 HD
ATOM     21  H   UNL     1      34.211 -13.957 -20.431  0.00  0.00    +0.144 HD
ATOM     22  H   UNL     1      35.479 -19.269 -23.813  0.00  0.00    +0.156 HD
ATOM     23  H   UNL     1      35.905 -19.166 -22.165  0.00  0.00    +0.156 HD
BRANCH  17  24
ATOM     24  C   UNL     1      33.359 -15.180 -25.231  0.00  0.00    +0.056 C 
ATOM     25  C   UNL     1      32.974 -16.285 -26.209  0.00  0.00    +0.008 C 
ENDBRANCH  17  24
ENDBRANCH   9  16
BRANCH   5  28
ATOM     26  F   UNL     1      30.400  -4.529 -24.738  0.00  0.00    -0.204 F 
ATOM     27  F   UNL     1      31.233  -5.632 -20.208  0.00  0.00    -0.204 F 
ATOM     28  C   UNL     1      31.644  -7.597 -23.239  0.00  0.00    +0.031 C 
ATOM     29  C   UNL     1      31.649  -7.245 -21.891  0.00  0.00    +0.029 C 
ATOM     30  C   UNL     1      31.223  -6.683 -24.201  0.00  0.00    +0.029 C 
ATOM     31  C   UNL     1      30.805  -5.410 -23.814  0.00  0.00    +0.142 C 
ATOM     32  C   UNL     1      31.231  -5.972 -21.503  0.00  0.00    +0.142 C 
ATOM     33  C   UNL     1      30.809  -5.055 -22.465  0.00  0.00    +0.059 C 
ENDBRANCH   5  28
BRANCH   3  34
ATOM     34  C   UNL     1      35.498 -10.373 -24.640  0.00  0.00    +0.101 C 
BRANCH  34  35
ATOM     35  C   UNL     1      35.489 -10.273 -26.159  0.00  0.00    +0.054 C 
BRANCH  35  36
ATOM     36  C   UNL     1      35.145 -11.594 -26.837  0.00  0.00    +0.144 C 
BRANCH  36  37
ATOM     37  O   UNL     1      33.752 -11.834 -26.692  0.00  0.00    -0.351 OA
ATOM     38  C   UNL     1      33.326 -12.931 -27.489  0.00  0.00    +0.174 C 
ENDBRANCH  36  37
ENDBRANCH  35  36
ENDBRANCH  34  35
ENDBRANCH   3  34
TORSDOF 7
ENDMDL
MODEL 7
REMARK VINA RESULT:      -9.7      3.356      6.514
REMARK  Name = 20843156
REMARK  7 active torsions:
REMARK  status: ('A' for Active; 'I' for Inactive)
REMARK    1  A    between atoms: N_3  and  C_34
REMARK    2  A    between atoms: C_5  and  C_28
REMARK    3  A    between atoms: C_9  and  C_16
REMARK    4  A    between atoms: C_17  and  C_24
REMARK    5  A    between atoms: C_34  and  C_35
REMARK    6  A    between atoms: C_35  and  C_36
REMARK    7  A    between atoms: C_36  and  O_37
REMARK                            x       y       z     vdW  Elec       q    Type
REMARK                         _______ _______ _______ _____ _____    ______ ____
ROOT
ATOM      1  O   UNL     1      34.190 -11.901 -23.757  0.00  0.00    -0.464 OA
ATOM      2  O   UNL     1      31.552 -13.677 -22.131  0.00  0.00    -0.270 OA
ATOM      3  N   UNL     1      31.741 -11.377 -22.439  0.00  0.00    -0.253 N 
ATOM      4  C   UNL     1      32.503 -10.323 -23.018  0.00  0.00    +0.088 C 
ATOM      5  C   UNL     1      33.172 -12.886 -23.738  0.00  0.00    +0.264 C 
ATOM      6  C   UNL     1      32.095 -12.709 -22.666  0.00  0.00    +0.274 C 
ATOM      7  C   UNL     1      33.707 -10.626 -23.662  0.00  0.00    +0.153 C 
ATOM      8  C   UNL     1      32.116  -8.977 -22.927  0.00  0.00    +0.015 C 
ATOM      9  C   UNL     1      32.916  -7.967 -23.468  0.00  0.00    -0.007 C 
ATOM     10  C   UNL     1      34.517  -9.615 -24.185  0.00  0.00    +0.038 C 
ATOM     11  C   UNL     1      34.117  -8.285 -24.096  0.00  0.00    -0.000 C 
ENDROOT
BRANCH   9  16
ATOM     12  N   UNL     1      32.169  -4.437 -24.410  0.00  0.00    -0.337 NA
ATOM     13  N   UNL     1      31.632  -4.745 -22.081  0.00  0.00    -0.317 NA
ATOM     14  N   UNL     1      31.948  -6.845 -21.041  0.00  0.00    -0.335 N 
ATOM     15  N   UNL     1      31.323  -2.666 -23.125  0.00  0.00    -0.283 N 
ATOM     16  C   UNL     1      32.499  -6.584 -23.370  0.00  0.00    +0.138 C 
ATOM     17  C   UNL     1      32.549  -5.732 -24.455  0.00  0.00    +0.112 C 
ATOM     18  C   UNL     1      32.027  -6.029 -22.198  0.00  0.00    +0.178 C 
ATOM     19  C   UNL     1      31.728  -4.016 -23.210  0.00  0.00    +0.196 C 
ATOM     20  H   UNL     1      31.614  -6.468 -20.195  0.00  0.00    +0.144 HD
ATOM     21  H   UNL     1      32.226  -7.788 -21.084  0.00  0.00    +0.144 HD
ATOM     22  H   UNL     1      31.372  -2.087 -23.919  0.00  0.00    +0.156 HD
ATOM     23  H   UNL     1      30.991  -2.304 -22.272  0.00  0.00    +0.156 HD
BRANCH  17  24
ATOM     24  C   UNL     1      33.040  -6.206 -25.784  0.00  0.00    +0.056 C 
ATOM     25  C   UNL     1      33.733  -5.100 -26.572  0.00  0.00    +0.008 C 
ENDBRANCH  17  24
ENDBRANCH   9  16
BRANCH   5  28
ATOM     26  F   UNL     1      35.355 -16.247 -20.975  0.00  0.00    -0.204 F 
ATOM     27  F   UNL     1      34.972 -16.992 -25.637  0.00  0.00    -0.204 F 
ATOM     28  C   UNL     1      33.872 -14.199 -23.586  0.00  0.00    +0.031 C 
ATOM     29  C   UNL     1      34.100 -14.997 -24.705  0.00  0.00    +0.029 C 
ATOM     30  C   UNL     1      34.294 -14.618 -22.327  0.00  0.00    +0.029 C 
ATOM     31  C   UNL     1      34.948 -15.842 -22.185  0.00  0.00    +0.142 C 
ATOM     32  C   UNL     1      34.753 -16.221 -24.564  0.00  0.00    +0.142 C 
ATOM     33  C   UNL     1      35.177 -16.644 -23.304  0.00  0.00    +0.059 C 
ENDBRANCH   5  28
BRANCH   3  34
ATOM     34  C   UNL     1      30.603 -11.064 -21.585  0.00  0.00    +0.101 C 
BRANCH  34  35
ATOM     35  C   UNL     1      30.956 -11.100 -20.104  0.00  0.00    +0.054 C 
BRANCH  35  36
ATOM     36  C   UNL     1      31.910  -9.984 -19.697  0.00  0.00    +0.144 C 
BRANCH  36  37
ATOM     37  O   UNL     1      32.096 -10.032 -18.289  0.00  0.00    -0.351 OA
ATOM     38  C   UNL     1      31.338 -11.079 -17.697  0.00  0.00    +0.174 C 
ENDBRANCH  36  37
ENDBRANCH  35  36
ENDBRANCH  34  35
ENDBRANCH   3  34
TORSDOF 7
ENDMDL
MODEL 8
REMARK VINA RESULT:      -9.4      6.519     11.718
REMARK  Name = 20843156
REMARK  7 active torsions:
REMARK  status: ('A' for Active; 'I' for Inactive)
REMARK    1  A    between atoms: N_3  and  C_34
REMARK    2  A    between atoms: C_5  and  C_28
REMARK    3  A    between atoms: C_9  and  C_16
REMARK    4  A    between atoms: C_17  and  C_24
REMARK    5  A    between atoms: C_34  and  C_35
REMARK    6  A    between atoms: C_35  and  C_36
REMARK    7  A    between atoms: C_36  and  O_37
REMARK                            x       y       z     vdW  Elec       q    Type
REMARK                         _______ _______ _______ _____ _____    ______ ____
ROOT
ATOM      1  O   UNL     1      36.152 -20.376 -19.589  0.00  0.00    -0.464 OA
ATOM      2  O   UNL     1      32.765 -20.973 -20.550  0.00  0.00    -0.270 OA
ATOM      3  N   UNL     1      33.943 -21.958 -18.801  0.00  0.00    -0.253 N 
ATOM      4  C   UNL     1      35.165 -21.991 -18.072  0.00  0.00    +0.088 C 
ATOM      5  C   UNL     1      34.833 -19.935 -19.861  0.00  0.00    +0.264 C 
ATOM      6  C   UNL     1      33.748 -21.012 -19.810  0.00  0.00    +0.274 C 
ATOM      7  C   UNL     1      36.232 -21.191 -18.495  0.00  0.00    +0.153 C 
ATOM      8  C   UNL     1      35.361 -22.834 -16.968  0.00  0.00    +0.015 C 
ATOM      9  C   UNL     1      36.592 -22.871 -16.308  0.00  0.00    -0.007 C 
ATOM     10  C   UNL     1      37.470 -21.242 -17.848  0.00  0.00    +0.038 C 
ATOM     11  C   UNL     1      37.647 -22.076 -16.749  0.00  0.00    -0.000 C 
ENDROOT
BRANCH   9  16
ATOM     12  N   UNL     1      35.872 -24.820 -13.212  0.00  0.00    -0.337 NA
ATOM     13  N   UNL     1      38.175 -25.171 -13.827  0.00  0.00    -0.317 NA
ATOM     14  N   UNL     1      39.083 -24.123 -15.743  0.00  0.00    -0.335 N 
ATOM     15  N   UNL     1      37.262 -26.206 -11.929  0.00  0.00    -0.283 N 
ATOM     16  C   UNL     1      36.775 -23.742 -15.166  0.00  0.00    +0.138 C 
ATOM     17  C   UNL     1      35.747 -24.013 -14.288  0.00  0.00    +0.112 C 
ATOM     18  C   UNL     1      37.979 -24.356 -14.883  0.00  0.00    +0.178 C 
ATOM     19  C   UNL     1      37.094 -25.358 -13.044  0.00  0.00    +0.196 C 
ATOM     20  H   UNL     1      39.949 -24.552 -15.557  0.00  0.00    +0.144 HD
ATOM     21  H   UNL     1      38.981 -23.535 -16.525  0.00  0.00    +0.144 HD
ATOM     22  H   UNL     1      36.506 -26.377 -11.323  0.00  0.00    +0.156 HD
ATOM     23  H   UNL     1      38.136 -26.628 -11.757  0.00  0.00    +0.156 HD
BRANCH  17  24
ATOM     24  C   UNL     1      34.391 -23.413 -14.480  0.00  0.00    +0.056 C 
ATOM     25  C   UNL     1      33.349 -24.035 -13.558  0.00  0.00    +0.008 C 
ENDBRANCH  17  24
ENDBRANCH   9  16
BRANCH   5  28
ATOM     26  F   UNL     1      34.937 -15.958 -22.666  0.00  0.00    -0.204 F 
ATOM     27  F   UNL     1      35.027 -20.226 -24.718  0.00  0.00    -0.204 F 
ATOM     28  C   UNL     1      34.886 -19.287 -21.208  0.00  0.00    +0.031 C 
ATOM     29  C   UNL     1      34.932 -20.076 -22.356  0.00  0.00    +0.029 C 
ATOM     30  C   UNL     1      34.887 -17.898 -21.310  0.00  0.00    +0.029 C 
ATOM     31  C   UNL     1      34.935 -17.294 -22.566  0.00  0.00    +0.142 C 
ATOM     32  C   UNL     1      34.980 -19.471 -23.612  0.00  0.00    +0.142 C 
ATOM     33  C   UNL     1      34.982 -18.081 -23.717  0.00  0.00    +0.059 C 
ENDBRANCH   5  28
BRANCH   3  34
ATOM     34  C   UNL     1      32.899 -22.934 -18.510  0.00  0.00    +0.101 C 
BRANCH  34  35
ATOM     35  C   UNL     1      31.935 -22.454 -17.434  0.00  0.00    +0.054 C 
BRANCH  35  36
ATOM     36  C   UNL     1      31.405 -23.590 -16.567  0.00  0.00    +0.144 C 
BRANCH  36  37
ATOM     37  O   UNL     1      30.379 -23.082 -15.725  0.00  0.00    -0.351 OA
ATOM     38  C   UNL     1      29.193 -22.802 -16.457  0.00  0.00    +0.174 C 
ENDBRANCH  36  37
ENDBRANCH  35  36
ENDBRANCH  34  35
ENDBRANCH   3  34
TORSDOF 7
ENDMDL
MODEL 9
REMARK VINA RESULT:      -9.3      6.610     12.027
REMARK  Name = 20843156
REMARK  7 active torsions:
REMARK  status: ('A' for Active; 'I' for Inactive)
REMARK    1  A    between atoms: N_3  and  C_34
REMARK    2  A    between atoms: C_5  and  C_28
REMARK    3  A    between atoms: C_9  and  C_16
REMARK    4  A    between atoms: C_17  and  C_24
REMARK    5  A    between atoms: C_34  and  C_35
REMARK    6  A    between atoms: C_35  and  C_36
REMARK    7  A    between atoms: C_36  and  O_37
REMARK                            x       y       z     vdW  Elec       q    Type
REMARK                         _______ _______ _______ _____ _____    ______ ____
ROOT
ATOM      1  O   UNL     1      36.222 -20.403 -19.449  0.00  0.00    -0.464 OA
ATOM      2  O   UNL     1      32.886 -21.064 -20.540  0.00  0.00    -0.270 OA
ATOM      3  N   UNL     1      34.007 -22.012 -18.733  0.00  0.00    -0.253 N 
ATOM      4  C   UNL     1      35.200 -22.018 -17.955  0.00  0.00    +0.088 C 
ATOM      5  C   UNL     1      34.908 -19.986 -19.779  0.00  0.00    +0.264 C 
ATOM      6  C   UNL     1      33.839 -21.080 -19.760  0.00  0.00    +0.274 C 
ATOM      7  C   UNL     1      36.270 -21.205 -18.343  0.00  0.00    +0.153 C 
ATOM      8  C   UNL     1      35.364 -22.846 -16.835  0.00  0.00    +0.015 C 
ATOM      9  C   UNL     1      36.568 -22.855 -16.126  0.00  0.00    -0.007 C 
ATOM     10  C   UNL     1      37.481 -21.229 -17.647  0.00  0.00    +0.038 C 
ATOM     11  C   UNL     1      37.627 -22.049 -16.532  0.00  0.00    -0.000 C 
ENDROOT
BRANCH   9  16
ATOM     12  N   UNL     1      38.056 -25.243 -13.678  0.00  0.00    -0.337 NA
ATOM     13  N   UNL     1      35.842 -24.651 -12.931  0.00  0.00    -0.317 NA
ATOM     14  N   UNL     1      34.512 -23.148 -14.182  0.00  0.00    -0.335 N 
ATOM     15  N   UNL     1      37.173 -26.141 -11.699  0.00  0.00    -0.283 N 
ATOM     16  C   UNL     1      36.718 -23.712 -14.968  0.00  0.00    +0.138 C 
ATOM     17  C   UNL     1      37.872 -24.434 -14.744  0.00  0.00    +0.112 C 
ATOM     18  C   UNL     1      35.727 -23.861 -14.018  0.00  0.00    +0.178 C 
ATOM     19  C   UNL     1      37.016 -25.303 -12.825  0.00  0.00    +0.196 C 
ATOM     20  H   UNL     1      33.794 -23.242 -13.515  0.00  0.00    +0.144 HD
ATOM     21  H   UNL     1      34.388 -22.560 -14.961  0.00  0.00    +0.144 HD
ATOM     22  H   UNL     1      38.010 -26.642 -11.571  0.00  0.00    +0.156 HD
ATOM     23  H   UNL     1      36.445 -26.223 -11.041  0.00  0.00    +0.156 HD
BRANCH  17  24
ATOM     24  C   UNL     1      39.022 -24.363 -15.695  0.00  0.00    +0.056 C 
ATOM     25  C   UNL     1      40.193 -25.233 -15.251  0.00  0.00    +0.008 C 
ENDBRANCH  17  24
ENDBRANCH   9  16
BRANCH   5  28
ATOM     26  F   UNL     1      35.049 -20.318 -24.633  0.00  0.00    -0.204 F 
ATOM     27  F   UNL     1      35.318 -16.045 -22.608  0.00  0.00    -0.204 F 
ATOM     28  C   UNL     1      35.005 -19.352 -21.130  0.00  0.00    +0.031 C 
ATOM     29  C   UNL     1      35.119 -17.967 -21.240  0.00  0.00    +0.029 C 
ATOM     30  C   UNL     1      34.981 -20.147 -22.273  0.00  0.00    +0.029 C 
ATOM     31  C   UNL     1      35.072 -19.555 -23.533  0.00  0.00    +0.142 C 
ATOM     32  C   UNL     1      35.210 -17.376 -22.500  0.00  0.00    +0.142 C 
ATOM     33  C   UNL     1      35.186 -18.169 -23.646  0.00  0.00    +0.059 C 
ENDBRANCH   5  28
BRANCH   3  34
ATOM     34  C   UNL     1      32.968 -23.002 -18.474  0.00  0.00    +0.101 C 
BRANCH  34  35
ATOM     35  C   UNL     1      31.949 -22.522 -17.450  0.00  0.00    +0.054 C 
BRANCH  35  36
ATOM     36  C   UNL     1      31.729 -23.523 -16.322  0.00  0.00    +0.144 C 
BRANCH  36  37
ATOM     37  O   UNL     1      31.635 -22.814 -15.094  0.00  0.00    -0.351 OA
ATOM     38  C   UNL     1      30.856 -23.523 -14.139  0.00  0.00    +0.174 C 
ENDBRANCH  36  37
ENDBRANCH  35  36
ENDBRANCH  34  35
ENDBRANCH   3  34
TORSDOF 7
ENDMDL
