MODEL 1
REMARK VINA RESULT:      -8.2      0.000      0.000
REMARK  Name = 5288535
REMARK  11 active torsions:
REMARK  status: ('A' for Active; 'I' for Inactive)
REMARK    1  A    between atoms: N_2  and  C_11
REMARK    2  A    between atoms: C_3  and  C_18
REMARK    3  A    between atoms: C_10  and  C_17
REMARK    4  A    between atoms: C_18  and  C_19
REMARK    5  A    between atoms: C_19  and  C_20
REMARK    6  A    between atoms: C_20  and  C_21
REMARK    7  A    between atoms: C_21  and  C_22
REMARK    8  A    between atoms: C_22  and  N_24
REMARK    9  A    between atoms: C_22  and  C_34
REMARK   10  A    between atoms: C_25  and  C_27
REMARK   11  A    between atoms: C_27  and  N_28
REMARK                            x       y       z     vdW  Elec       q    Type
REMARK                         _______ _______ _______ _____ _____    ______ ____
ROOT
ATOM      1  O   UNK A   0      32.465 -23.011 -17.495  0.00  0.00    -0.275 OA
ATOM      2  N   UNK A   1      34.545 -23.640 -16.679  0.00  0.00    -0.296 N 
ATOM      3  C   UNK A   0      33.692 -22.975 -17.553  0.00  0.00    +0.223 C 
ATOM      4  H   UNK A   1      35.516 -23.550 -16.807  0.00  0.00    +0.150 HD
ENDROOT
BRANCH   2  11
ATOM      5  S   UNK A   1      36.834 -24.834 -15.021  0.00  0.00    -0.118 S 
ATOM      6  O   UNK A   1      33.147 -22.723 -13.949  0.00  0.00    -0.273 OA
ATOM      7  N   UNK A   1      34.664 -24.493 -13.591  0.00  0.00    -0.260 N 
ATOM      8  C   UNK A   1      35.076 -25.276 -14.756  0.00  0.00    +0.151 C 
ATOM      9  C   UNK A   1      36.927 -23.735 -13.521  0.00  0.00    +0.068 C 
ATOM     10  C   UNK A   1      35.683 -24.057 -12.657  0.00  0.00    +0.189 C 
ATOM     11  C   UNK A   1      34.048 -24.475 -15.573  0.00  0.00    +0.178 C 
ATOM     12  C   UNK A   1      33.777 -23.706 -14.263  0.00  0.00    +0.247 C 
ATOM     13  C   UNK A   1      36.895 -22.278 -14.014  0.00  0.00    +0.013 C 
ATOM     14  C   UNK A   1      38.263 -23.983 -12.810  0.00  0.00    +0.013 C 
BRANCH  10  17
ATOM     15  O   UNK A   2      36.679 -26.080 -11.980  0.00  0.00    -0.244 OA
ATOM     16  O   UNK A   2      35.320 -24.960 -10.519  0.00  0.00    -0.244 OA
ATOM     17  C   UNK A   1      35.918 -25.141 -11.617  0.00  0.00    +0.383 C 
ENDBRANCH  10  17
ENDBRANCH   2  11
BRANCH   3  18
ATOM     18  C   UNK A   0      34.459 -22.209 -18.617  0.00  0.00    +0.085 C 
BRANCH  18  19
ATOM     19  C   UNK A   0      33.639 -21.908 -19.870  0.00  0.00    +0.010 C 
BRANCH  19  20
ATOM     20  C   UNK A   0      33.223 -20.436 -19.955  0.00  0.00    +0.003 C 
BRANCH  20  21
ATOM     21  C   UNK A   0      33.772 -19.780 -21.230  0.00  0.00    +0.031 C 
BRANCH  21  22
ATOM     22  C   UNK A   0      34.753 -18.632 -20.962  0.00  0.00    +0.176 C 
BRANCH  22  24
ATOM     23  O   UNK A   1      34.940 -15.864 -20.224  0.00  0.00    -0.277 OA
ATOM     24  N   UNK A   2      34.450 -17.495 -21.803  0.00  0.00    -0.298 N 
ATOM     25  C   UNK A   1      34.573 -16.191 -21.350  0.00  0.00    +0.201 C 
ATOM     26  H   UNK A   2      34.146 -17.651 -22.726  0.00  0.00    +0.150 HD
BRANCH  25  27
ATOM     27  C   UNK A   1      34.199 -15.197 -22.420  0.00  0.00    +0.001 C 
BRANCH  27  28
ATOM     28  N   UNK A   1      34.706 -15.612 -23.749  0.00  0.00    +0.386 N 
ATOM     29  H   UNK A   1      35.464 -14.991 -24.033  0.00  0.00    -0.089 HD
ATOM     30  H   UNK A   1      33.951 -15.562 -24.432  0.00  0.00    -0.089 HD
ATOM     31  H   UNK A   1      35.054 -16.570 -23.695  0.00  0.00    -0.089 HD
ENDBRANCH  27  28
ENDBRANCH  25  27
ENDBRANCH  22  24
BRANCH  22  34
ATOM     32  O   UNK A   2      36.651 -19.725 -20.033  0.00  0.00    -0.244 OA
ATOM     33  O   UNK A   2      36.896 -18.577 -21.987  0.00  0.00    -0.244 OA
ATOM     34  C   UNK A   0      36.243 -19.025 -21.002  0.00  0.00    +0.382 C 
ENDBRANCH  22  34
ENDBRANCH  21  22
ENDBRANCH  20  21
ENDBRANCH  19  20
ENDBRANCH  18  19
ENDBRANCH   3  18
TORSDOF 11
ENDMDL
MODEL 2
REMARK VINA RESULT:      -8.1      4.263      6.195
REMARK  Name = 5288535
REMARK  11 active torsions:
REMARK  status: ('A' for Active; 'I' for Inactive)
REMARK    1  A    between atoms: N_2  and  C_11
REMARK    2  A    between atoms: C_3  and  C_18
REMARK    3  A    between atoms: C_10  and  C_17
REMARK    4  A    between atoms: C_18  and  C_19
REMARK    5  A    between atoms: C_19  and  C_20
REMARK    6  A    between atoms: C_20  and  C_21
REMARK    7  A    between atoms: C_21  and  C_22
REMARK    8  A    between atoms: C_22  and  N_24
REMARK    9  A    between atoms: C_22  and  C_34
REMARK   10  A    between atoms: C_25  and  C_27
REMARK   11  A    between atoms: C_27  and  N_28
REMARK                            x       y       z     vdW  Elec       q    Type
REMARK                         _______ _______ _______ _____ _____    ______ ____
ROOT
ATOM      1  O   UNK A   0      34.164 -22.677 -14.884  0.00  0.00    -0.275 OA
ATOM      2  N   UNK A   1      34.564 -24.947 -14.611  0.00  0.00    -0.296 N 
ATOM      3  C   UNK A   0      33.896 -23.754 -14.358  0.00  0.00    +0.223 C 
ATOM      4  H   UNK A   1      34.275 -25.760 -14.138  0.00  0.00    +0.150 HD
ENDROOT
BRANCH   2  11
ATOM      5  S   UNK A   1      37.102 -23.612 -13.517  0.00  0.00    -0.118 S 
ATOM      6  O   UNK A   1      36.334 -27.501 -15.384  0.00  0.00    -0.273 OA
ATOM      7  N   UNK A   1      37.659 -25.561 -15.177  0.00  0.00    -0.260 N 
ATOM      8  C   UNK A   1      36.977 -24.269 -15.223  0.00  0.00    +0.151 C 
ATOM      9  C   UNK A   1      38.130 -25.035 -12.897  0.00  0.00    +0.068 C 
ATOM     10  C   UNK A   1      38.655 -25.780 -14.148  0.00  0.00    +0.189 C 
ATOM     11  C   UNK A   1      35.688 -25.037 -15.557  0.00  0.00    +0.178 C 
ATOM     12  C   UNK A   1      36.545 -26.311 -15.414  0.00  0.00    +0.247 C 
ATOM     13  C   UNK A   1      37.209 -25.940 -12.061  0.00  0.00    +0.013 C 
ATOM     14  C   UNK A   1      39.236 -24.485 -11.987  0.00  0.00    +0.013 C 
BRANCH  10  17
ATOM     15  O   UNK A   2      39.991 -24.197 -15.268  0.00  0.00    -0.244 OA
ATOM     16  O   UNK A   2      40.982 -26.040 -14.343  0.00  0.00    -0.244 OA
ATOM     17  C   UNK A   1      40.009 -25.289 -14.636  0.00  0.00    +0.383 C 
ENDBRANCH  10  17
ENDBRANCH   2  11
BRANCH   3  18
ATOM     18  C   UNK A   0      32.798 -23.932 -13.323  0.00  0.00    +0.085 C 
BRANCH  18  19
ATOM     19  C   UNK A   0      31.666 -24.851 -13.778  0.00  0.00    +0.010 C 
BRANCH  19  20
ATOM     20  C   UNK A   0      30.362 -24.088 -14.036  0.00  0.00    +0.003 C 
BRANCH  20  21
ATOM     21  C   UNK A   0      30.611 -22.852 -14.912  0.00  0.00    +0.031 C 
BRANCH  21  22
ATOM     22  C   UNK A   0      30.320 -23.081 -16.401  0.00  0.00    +0.176 C 
BRANCH  22  24
ATOM     23  O   UNK A   1      32.831 -24.156 -17.285  0.00  0.00    -0.277 OA
ATOM     24  N   UNK A   2      31.303 -22.407 -17.222  0.00  0.00    -0.298 N 
ATOM     25  C   UNK A   1      32.490 -23.017 -17.596  0.00  0.00    +0.201 C 
ATOM     26  H   UNK A   2      31.124 -21.488 -17.523  0.00  0.00    +0.150 HD
BRANCH  25  27
ATOM     27  C   UNK A   1      33.335 -22.104 -18.448  0.00  0.00    +0.001 C 
BRANCH  27  28
ATOM     28  N   UNK A   1      32.851 -22.066 -19.849  0.00  0.00    +0.386 N 
ATOM     29  H   UNK A   1      33.445 -22.658 -20.429  0.00  0.00    -0.089 HD
ATOM     30  H   UNK A   1      32.884 -21.107 -20.194  0.00  0.00    -0.089 HD
ATOM     31  H   UNK A   1      31.890 -22.409 -19.886  0.00  0.00    -0.089 HD
ENDBRANCH  27  28
ENDBRANCH  25  27
ENDBRANCH  22  24
BRANCH  22  34
ATOM     32  O   UNK A   2      28.308 -21.822 -16.236  0.00  0.00    -0.244 OA
ATOM     33  O   UNK A   2      28.401 -23.546 -17.724  0.00  0.00    -0.244 OA
ATOM     34  C   UNK A   0      28.872 -22.780 -16.835  0.00  0.00    +0.382 C 
ENDBRANCH  22  34
ENDBRANCH  21  22
ENDBRANCH  20  21
ENDBRANCH  19  20
ENDBRANCH  18  19
ENDBRANCH   3  18
TORSDOF 11
ENDMDL
MODEL 3
REMARK VINA RESULT:      -8.0      2.064      2.944
REMARK  Name = 5288535
REMARK  11 active torsions:
REMARK  status: ('A' for Active; 'I' for Inactive)
REMARK    1  A    between atoms: N_2  and  C_11
REMARK    2  A    between atoms: C_3  and  C_18
REMARK    3  A    between atoms: C_10  and  C_17
REMARK    4  A    between atoms: C_18  and  C_19
REMARK    5  A    between atoms: C_19  and  C_20
REMARK    6  A    between atoms: C_20  and  C_21
REMARK    7  A    between atoms: C_21  and  C_22
REMARK    8  A    between atoms: C_22  and  N_24
REMARK    9  A    between atoms: C_22  and  C_34
REMARK   10  A    between atoms: C_25  and  C_27
REMARK   11  A    between atoms: C_27  and  N_28
REMARK                            x       y       z     vdW  Elec       q    Type
REMARK                         _______ _______ _______ _____ _____    ______ ____
ROOT
ATOM      1  O   UNK A   0      37.159 -20.410 -17.706  0.00  0.00    -0.275 OA
ATOM      2  N   UNK A   1      36.945 -22.642 -17.112  0.00  0.00    -0.296 N 
ATOM      3  C   UNK A   0      36.782 -21.551 -17.958  0.00  0.00    +0.223 C 
ATOM      4  H   UNK A   1      36.609 -23.520 -17.402  0.00  0.00    +0.150 HD
ENDROOT
BRANCH   2  11
ATOM      5  S   UNK A   1      34.922 -22.672 -14.805  0.00  0.00    -0.118 S 
ATOM      6  O   UNK A   1      38.656 -24.844 -15.536  0.00  0.00    -0.273 OA
ATOM      7  N   UNK A   1      37.246 -23.639 -14.080  0.00  0.00    -0.260 N 
ATOM      8  C   UNK A   1      36.711 -22.365 -14.558  0.00  0.00    +0.151 C 
ATOM      9  C   UNK A   1      34.991 -24.418 -14.164  0.00  0.00    +0.068 C 
ATOM     10  C   UNK A   1      36.345 -24.565 -13.425  0.00  0.00    +0.189 C 
ATOM     11  C   UNK A   1      37.602 -22.533 -15.799  0.00  0.00    +0.178 C 
ATOM     12  C   UNK A   1      38.018 -23.881 -15.177  0.00  0.00    +0.247 C 
ATOM     13  C   UNK A   1      34.920 -25.359 -15.379  0.00  0.00    +0.013 C 
ATOM     14  C   UNK A   1      33.765 -24.667 -13.277  0.00  0.00    +0.013 C 
BRANCH  10  17
ATOM     15  O   UNK A   2      36.510 -23.044 -11.635  0.00  0.00    -0.244 OA
ATOM     16  O   UNK A   2      35.987 -25.229 -11.200  0.00  0.00    -0.244 OA
ATOM     17  C   UNK A   1      36.275 -24.246 -11.940  0.00  0.00    +0.383 C 
ENDBRANCH  10  17
ENDBRANCH   2  11
BRANCH   3  18
ATOM     18  C   UNK A   0      36.051 -21.932 -19.234  0.00  0.00    +0.085 C 
BRANCH  18  19
ATOM     19  C   UNK A   0      35.731 -20.742 -20.137  0.00  0.00    +0.010 C 
BRANCH  19  20
ATOM     20  C   UNK A   0      34.232 -20.422 -20.171  0.00  0.00    +0.003 C 
BRANCH  20  21
ATOM     21  C   UNK A   0      33.874 -19.589 -21.410  0.00  0.00    +0.031 C 
BRANCH  21  22
ATOM     22  C   UNK A   0      34.584 -18.231 -21.469  0.00  0.00    +0.176 C 
BRANCH  22  24
ATOM     23  O   UNK A   1      35.026 -15.676 -20.237  0.00  0.00    -0.277 OA
ATOM     24  N   UNK A   2      33.629 -17.150 -21.364  0.00  0.00    -0.298 N 
ATOM     25  C   UNK A   1      33.942 -15.950 -20.746  0.00  0.00    +0.201 C 
ATOM     26  H   UNK A   2      32.728 -17.271 -21.741  0.00  0.00    +0.150 HD
BRANCH  25  27
ATOM     27  C   UNK A   1      32.775 -14.995 -20.772  0.00  0.00    +0.001 C 
BRANCH  27  28
ATOM     28  N   UNK A   1      32.567 -14.428 -22.125  0.00  0.00    +0.386 N 
ATOM     29  H   UNK A   1      31.571 -14.428 -22.344  0.00  0.00    -0.089 HD
ATOM     30  H   UNK A   1      33.067 -14.993 -22.811  0.00  0.00    -0.089 HD
ATOM     31  H   UNK A   1      32.920 -13.470 -22.150  0.00  0.00    -0.089 HD
ENDBRANCH  27  28
ENDBRANCH  25  27
ENDBRANCH  22  24
BRANCH  22  34
ATOM     32  O   UNK A   2      35.029 -17.720 -23.750  0.00  0.00    -0.244 OA
ATOM     33  O   UNK A   2      36.772 -18.295 -22.398  0.00  0.00    -0.244 OA
ATOM     34  C   UNK A   0      35.557 -18.055 -22.652  0.00  0.00    +0.382 C 
ENDBRANCH  22  34
ENDBRANCH  21  22
ENDBRANCH  20  21
ENDBRANCH  19  20
ENDBRANCH  18  19
ENDBRANCH   3  18
TORSDOF 11
ENDMDL
MODEL 4
REMARK VINA RESULT:      -7.8      6.936     14.324
REMARK  Name = 5288535
REMARK  11 active torsions:
REMARK  status: ('A' for Active; 'I' for Inactive)
REMARK    1  A    between atoms: N_2  and  C_11
REMARK    2  A    between atoms: C_3  and  C_18
REMARK    3  A    between atoms: C_10  and  C_17
REMARK    4  A    between atoms: C_18  and  C_19
REMARK    5  A    between atoms: C_19  and  C_20
REMARK    6  A    between atoms: C_20  and  C_21
REMARK    7  A    between atoms: C_21  and  C_22
REMARK    8  A    between atoms: C_22  and  N_24
REMARK    9  A    between atoms: C_22  and  C_34
REMARK   10  A    between atoms: C_25  and  C_27
REMARK   11  A    between atoms: C_27  and  N_28
REMARK                            x       y       z     vdW  Elec       q    Type
REMARK                         _______ _______ _______ _____ _____    ______ ____
ROOT
ATOM      1  O   UNK A   0      32.670 -13.296 -23.885  0.00  0.00    -0.275 OA
ATOM      2  N   UNK A   1      32.888 -11.252 -22.810  0.00  0.00    -0.296 N 
ATOM      3  C   UNK A   0      32.733 -12.633 -22.854  0.00  0.00    +0.223 C 
ATOM      4  H   UNK A   1      32.927 -10.808 -21.932  0.00  0.00    +0.150 HD
ENDROOT
BRANCH   2  11
ATOM      5  S   UNK A   1      31.091  -8.768 -22.682  0.00  0.00    -0.118 S 
ATOM      6  O   UNK A   1      35.298  -9.364 -23.749  0.00  0.00    -0.273 OA
ATOM      7  N   UNK A   1      33.203  -8.371 -24.180  0.00  0.00    -0.260 N 
ATOM      8  C   UNK A   1      32.030  -9.243 -24.182  0.00  0.00    +0.151 C 
ATOM      9  C   UNK A   1      32.254  -7.390 -22.221  0.00  0.00    +0.068 C 
ATOM     10  C   UNK A   1      33.126  -7.110 -23.471  0.00  0.00    +0.189 C 
ATOM     11  C   UNK A   1      32.995 -10.430 -24.026  0.00  0.00    +0.178 C 
ATOM     12  C   UNK A   1      34.113  -9.368 -23.985  0.00  0.00    +0.247 C 
ATOM     13  C   UNK A   1      33.115  -7.886 -21.047  0.00  0.00    +0.013 C 
ATOM     14  C   UNK A   1      31.430  -6.185 -21.752  0.00  0.00    +0.013 C 
BRANCH  10  17
ATOM     15  O   UNK A   2      31.307  -5.892 -24.339  0.00  0.00    -0.244 OA
ATOM     16  O   UNK A   2      33.419  -5.435 -25.092  0.00  0.00    -0.244 OA
ATOM     17  C   UNK A   1      32.559  -6.041 -24.391  0.00  0.00    +0.383 C 
ENDBRANCH  10  17
ENDBRANCH   2  11
BRANCH   3  18
ATOM     18  C   UNK A   0      32.622 -13.232 -21.462  0.00  0.00    +0.085 C 
BRANCH  18  19
ATOM     19  C   UNK A   0      32.412 -14.745 -21.459  0.00  0.00    +0.010 C 
BRANCH  19  20
ATOM     20  C   UNK A   0      33.138 -15.433 -20.297  0.00  0.00    +0.003 C 
BRANCH  20  21
ATOM     21  C   UNK A   0      34.543 -15.888 -20.717  0.00  0.00    +0.031 C 
BRANCH  21  22
ATOM     22  C   UNK A   0      34.545 -17.097 -21.662  0.00  0.00    +0.176 C 
BRANCH  22  24
ATOM     23  O   UNK A   1      33.435 -19.728 -21.369  0.00  0.00    -0.277 OA
ATOM     24  N   UNK A   2      35.182 -18.234 -21.034  0.00  0.00    -0.298 N 
ATOM     25  C   UNK A   1      34.558 -19.468 -20.943  0.00  0.00    +0.201 C 
ATOM     26  H   UNK A   2      36.086 -18.128 -20.660  0.00  0.00    +0.150 HD
BRANCH  25  27
ATOM     27  C   UNK A   1      35.433 -20.479 -20.248  0.00  0.00    +0.001 C 
BRANCH  27  28
ATOM     28  N   UNK A   1      36.749 -19.901 -19.886  0.00  0.00    +0.386 N 
ATOM     29  H   UNK A   1      36.790 -19.756 -18.876  0.00  0.00    -0.089 HD
ATOM     30  H   UNK A   1      36.871 -19.008 -20.363  0.00  0.00    -0.089 HD
ATOM     31  H   UNK A   1      37.491 -20.542 -20.167  0.00  0.00    -0.089 HD
ENDBRANCH  27  28
ENDBRANCH  25  27
ENDBRANCH  22  24
BRANCH  22  34
ATOM     32  O   UNK A   2      35.283 -15.600 -23.357  0.00  0.00    -0.244 OA
ATOM     33  O   UNK A   2      35.242 -17.833 -23.812  0.00  0.00    -0.244 OA
ATOM     34  C   UNK A   0      35.085 -16.815 -23.078  0.00  0.00    +0.382 C 
ENDBRANCH  22  34
ENDBRANCH  21  22
ENDBRANCH  20  21
ENDBRANCH  19  20
ENDBRANCH  18  19
ENDBRANCH   3  18
TORSDOF 11
ENDMDL
MODEL 5
REMARK VINA RESULT:      -7.8      7.964     15.114
REMARK  Name = 5288535
REMARK  11 active torsions:
REMARK  status: ('A' for Active; 'I' for Inactive)
REMARK    1  A    between atoms: N_2  and  C_11
REMARK    2  A    between atoms: C_3  and  C_18
REMARK    3  A    between atoms: C_10  and  C_17
REMARK    4  A    between atoms: C_18  and  C_19
REMARK    5  A    between atoms: C_19  and  C_20
REMARK    6  A    between atoms: C_20  and  C_21
REMARK    7  A    between atoms: C_21  and  C_22
REMARK    8  A    between atoms: C_22  and  N_24
REMARK    9  A    between atoms: C_22  and  C_34
REMARK   10  A    between atoms: C_25  and  C_27
REMARK   11  A    between atoms: C_27  and  N_28
REMARK                            x       y       z     vdW  Elec       q    Type
REMARK                         _______ _______ _______ _____ _____    ______ ____
ROOT
ATOM      1  O   UNK A   0      33.280 -11.951 -24.324  0.00  0.00    -0.275 OA
ATOM      2  N   UNK A   1      32.762 -10.110 -23.008  0.00  0.00    -0.296 N 
ATOM      3  C   UNK A   0      32.917 -11.470 -23.253  0.00  0.00    +0.223 C 
ATOM      4  H   UNK A   1      32.466  -9.822 -22.116  0.00  0.00    +0.150 HD
ENDROOT
BRANCH   2  11
ATOM      5  S   UNK A   1      30.590  -7.944 -23.055  0.00  0.00    -0.118 S 
ATOM      6  O   UNK A   1      34.969  -7.790 -23.011  0.00  0.00    -0.273 OA
ATOM      7  N   UNK A   1      32.907  -7.024 -23.862  0.00  0.00    -0.260 N 
ATOM      8  C   UNK A   1      31.938  -8.030 -24.292  0.00  0.00    +0.151 C 
ATOM      9  C   UNK A   1      31.349  -6.521 -22.123  0.00  0.00    +0.068 C 
ATOM     10  C   UNK A   1      32.441  -5.922 -23.044  0.00  0.00    +0.189 C 
ATOM     11  C   UNK A   1      33.023  -9.088 -24.035  0.00  0.00    +0.178 C 
ATOM     12  C   UNK A   1      33.897  -7.910 -23.557  0.00  0.00    +0.247 C 
ATOM     13  C   UNK A   1      31.965  -7.090 -20.834  0.00  0.00    +0.013 C 
ATOM     14  C   UNK A   1      30.240  -5.532 -21.743  0.00  0.00    +0.013 C 
BRANCH  10  17
ATOM     15  O   UNK A   2      31.603  -5.144 -25.102  0.00  0.00    -0.244 OA
ATOM     16  O   UNK A   2      31.937  -3.655 -23.398  0.00  0.00    -0.244 OA
ATOM     17  C   UNK A   1      31.945  -4.797 -23.938  0.00  0.00    +0.383 C 
ENDBRANCH  10  17
ENDBRANCH   2  11
BRANCH   3  18
ATOM     18  C   UNK A   0      32.557 -12.307 -22.037  0.00  0.00    +0.085 C 
BRANCH  18  19
ATOM     19  C   UNK A   0      32.476 -13.805 -22.323  0.00  0.00    +0.010 C 
BRANCH  19  20
ATOM     20  C   UNK A   0      33.784 -14.534 -21.995  0.00  0.00    +0.003 C 
BRANCH  20  21
ATOM     21  C   UNK A   0      34.532 -14.926 -23.277  0.00  0.00    +0.031 C 
BRANCH  21  22
ATOM     22  C   UNK A   0      34.387 -16.408 -23.648  0.00  0.00    +0.176 C 
BRANCH  22  24
ATOM     23  O   UNK A   1      34.141 -18.043 -21.302  0.00  0.00    -0.277 OA
ATOM     24  N   UNK A   2      35.435 -17.193 -23.033  0.00  0.00    -0.298 N 
ATOM     25  C   UNK A   1      35.213 -17.953 -21.896  0.00  0.00    +0.201 C 
ATOM     26  H   UNK A   2      36.334 -17.188 -23.434  0.00  0.00    +0.150 HD
BRANCH  25  27
ATOM     27  C   UNK A   1      36.463 -18.673 -21.460  0.00  0.00    +0.001 C 
BRANCH  27  28
ATOM     28  N   UNK A   1      36.194 -19.595 -20.331  0.00  0.00    +0.386 N 
ATOM     29  H   UNK A   1      36.542 -20.526 -20.561  0.00  0.00    -0.089 HD
ATOM     30  H   UNK A   1      35.190 -19.640 -20.161  0.00  0.00    -0.089 HD
ATOM     31  H   UNK A   1      36.666 -19.253 -19.494  0.00  0.00    -0.089 HD
ENDBRANCH  27  28
ENDBRANCH  25  27
ENDBRANCH  22  24
BRANCH  22  34
ATOM     32  O   UNK A   2      34.591 -17.840 -25.537  0.00  0.00    -0.244 OA
ATOM     33  O   UNK A   2      33.803 -15.724 -25.849  0.00  0.00    -0.244 OA
ATOM     34  C   UNK A   0      34.237 -16.689 -25.157  0.00  0.00    +0.382 C 
ENDBRANCH  22  34
ENDBRANCH  21  22
ENDBRANCH  20  21
ENDBRANCH  19  20
ENDBRANCH  18  19
ENDBRANCH   3  18
TORSDOF 11
ENDMDL
MODEL 6
REMARK VINA RESULT:      -7.7      6.123      9.032
REMARK  Name = 5288535
REMARK  11 active torsions:
REMARK  status: ('A' for Active; 'I' for Inactive)
REMARK    1  A    between atoms: N_2  and  C_11
REMARK    2  A    between atoms: C_3  and  C_18
REMARK    3  A    between atoms: C_10  and  C_17
REMARK    4  A    between atoms: C_18  and  C_19
REMARK    5  A    between atoms: C_19  and  C_20
REMARK    6  A    between atoms: C_20  and  C_21
REMARK    7  A    between atoms: C_21  and  C_22
REMARK    8  A    between atoms: C_22  and  N_24
REMARK    9  A    between atoms: C_22  and  C_34
REMARK   10  A    between atoms: C_25  and  C_27
REMARK   11  A    between atoms: C_27  and  N_28
REMARK                            x       y       z     vdW  Elec       q    Type
REMARK                         _______ _______ _______ _____ _____    ______ ____
ROOT
ATOM      1  O   UNK A   0      34.166 -23.692 -12.491  0.00  0.00    -0.275 OA
ATOM      2  N   UNK A   1      33.022 -23.859 -14.504  0.00  0.00    -0.296 N 
ATOM      3  C   UNK A   0      33.992 -24.232 -13.580  0.00  0.00    +0.223 C 
ATOM      4  H   UNK A   1      32.962 -24.354 -15.352  0.00  0.00    +0.150 HD
ENDROOT
BRANCH   2  11
ATOM      5  S   UNK A   1      30.954 -23.583 -16.753  0.00  0.00    -0.118 S 
ATOM      6  O   UNK A   1      30.627 -23.689 -12.385  0.00  0.00    -0.273 OA
ATOM      7  N   UNK A   1      30.019 -22.738 -14.456  0.00  0.00    -0.260 N 
ATOM      8  C   UNK A   1      31.097 -22.381 -15.378  0.00  0.00    +0.151 C 
ATOM      9  C   UNK A   1      29.427 -24.398 -16.067  0.00  0.00    +0.068 C 
ATOM     10  C   UNK A   1      28.869 -23.447 -14.979  0.00  0.00    +0.189 C 
ATOM     11  C   UNK A   1      32.085 -22.750 -14.260  0.00  0.00    +0.178 C 
ATOM     12  C   UNK A   1      30.836 -23.137 -13.440  0.00  0.00    +0.247 C 
ATOM     13  C   UNK A   1      29.856 -25.743 -15.457  0.00  0.00    +0.013 C 
ATOM     14  C   UNK A   1      28.452 -24.669 -17.220  0.00  0.00    +0.013 C 
BRANCH  10  17
ATOM     15  O   UNK A   2      26.738 -22.449 -14.897  0.00  0.00    -0.244 OA
ATOM     16  O   UNK A   2      28.243 -21.741 -16.468  0.00  0.00    -0.244 OA
ATOM     17  C   UNK A   1      27.847 -22.448 -15.499  0.00  0.00    +0.383 C 
ENDBRANCH  10  17
ENDBRANCH   2  11
BRANCH   3  18
ATOM     18  C   UNK A   0      34.843 -25.384 -14.091  0.00  0.00    +0.085 C 
BRANCH  18  19
ATOM     19  C   UNK A   0      35.526 -25.099 -15.427  0.00  0.00    +0.010 C 
BRANCH  19  20
ATOM     20  C   UNK A   0      37.012 -24.758 -15.262  0.00  0.00    +0.003 C 
BRANCH  20  21
ATOM     21  C   UNK A   0      37.832 -26.013 -14.935  0.00  0.00    +0.031 C 
BRANCH  21  22
ATOM     22  C   UNK A   0      38.883 -25.797 -13.839  0.00  0.00    +0.176 C 
BRANCH  22  24
ATOM     23  O   UNK A   1      37.060 -25.881 -11.623  0.00  0.00    -0.277 OA
ATOM     24  N   UNK A   2      38.512 -24.688 -12.988  0.00  0.00    -0.298 N 
ATOM     25  C   UNK A   1      37.618 -24.833 -11.939  0.00  0.00    +0.201 C 
ATOM     26  H   UNK A   2      38.906 -23.802 -13.159  0.00  0.00    +0.150 HD
BRANCH  25  27
ATOM     27  C   UNK A   1      37.405 -23.530 -11.211  0.00  0.00    +0.001 C 
BRANCH  27  28
ATOM     28  N   UNK A   1      36.285 -23.625 -10.245  0.00  0.00    +0.386 N 
ATOM     29  H   UNK A   1      36.365 -22.875  -9.557  0.00  0.00    -0.089 HD
ATOM     30  H   UNK A   1      36.321 -24.527  -9.770  0.00  0.00    -0.089 HD
ATOM     31  H   UNK A   1      35.399 -23.536 -10.742  0.00  0.00    -0.089 HD
ENDBRANCH  27  28
ENDBRANCH  25  27
ENDBRANCH  22  24
BRANCH  22  34
ATOM     32  O   UNK A   2      40.912 -26.807 -14.562  0.00  0.00    -0.244 OA
ATOM     33  O   UNK A   2      40.803 -24.533 -14.446  0.00  0.00    -0.244 OA
ATOM     34  C   UNK A   0      40.338 -25.704 -14.340  0.00  0.00    +0.382 C 
ENDBRANCH  22  34
ENDBRANCH  21  22
ENDBRANCH  20  21
ENDBRANCH  19  20
ENDBRANCH  18  19
ENDBRANCH   3  18
TORSDOF 11
ENDMDL
MODEL 7
REMARK VINA RESULT:      -7.6      7.748     14.229
REMARK  Name = 5288535
REMARK  11 active torsions:
REMARK  status: ('A' for Active; 'I' for Inactive)
REMARK    1  A    between atoms: N_2  and  C_11
REMARK    2  A    between atoms: C_3  and  C_18
REMARK    3  A    between atoms: C_10  and  C_17
REMARK    4  A    between atoms: C_18  and  C_19
REMARK    5  A    between atoms: C_19  and  C_20
REMARK    6  A    between atoms: C_20  and  C_21
REMARK    7  A    between atoms: C_21  and  C_22
REMARK    8  A    between atoms: C_22  and  N_24
REMARK    9  A    between atoms: C_22  and  C_34
REMARK   10  A    between atoms: C_25  and  C_27
REMARK   11  A    between atoms: C_27  and  N_28
REMARK                            x       y       z     vdW  Elec       q    Type
REMARK                         _______ _______ _______ _____ _____    ______ ____
ROOT
ATOM      1  O   UNK A   0      32.258 -13.259 -23.556  0.00  0.00    -0.275 OA
ATOM      2  N   UNK A   1      32.760 -11.193 -22.628  0.00  0.00    -0.296 N 
ATOM      3  C   UNK A   0      32.449 -12.547 -22.574  0.00  0.00    +0.223 C 
ATOM      4  H   UNK A   1      32.895 -10.705 -21.784  0.00  0.00    +0.150 HD
ENDROOT
BRANCH   2  11
ATOM      5  S   UNK A   1      31.139  -8.588 -22.637  0.00  0.00    -0.118 S 
ATOM      6  O   UNK A   1      35.271  -9.544 -23.736  0.00  0.00    -0.273 OA
ATOM      7  N   UNK A   1      33.239  -8.439 -24.196  0.00  0.00    -0.260 N 
ATOM      8  C   UNK A   1      32.009  -9.225 -24.118  0.00  0.00    +0.151 C 
ATOM      9  C   UNK A   1      32.404  -7.266 -22.292  0.00  0.00    +0.068 C 
ATOM     10  C   UNK A   1      33.264  -7.131 -23.573  0.00  0.00    +0.189 C 
ATOM     11  C   UNK A   1      32.895 -10.463 -23.899  0.00  0.00    +0.178 C 
ATOM     12  C   UNK A   1      34.083  -9.481 -23.950  0.00  0.00    +0.247 C 
ATOM     13  C   UNK A   1      33.255  -7.741 -21.103  0.00  0.00    +0.013 C 
ATOM     14  C   UNK A   1      31.675  -5.978 -21.891  0.00  0.00    +0.013 C 
BRANCH  10  17
ATOM     15  O   UNK A   2      33.629  -5.566 -25.294  0.00  0.00    -0.244 OA
ATOM     16  O   UNK A   2      31.506  -5.880 -24.502  0.00  0.00    -0.244 OA
ATOM     17  C   UNK A   1      32.751  -6.088 -24.554  0.00  0.00    +0.383 C 
ENDBRANCH  10  17
ENDBRANCH   2  11
BRANCH   3  18
ATOM     18  C   UNK A   0      32.343 -13.045 -21.142  0.00  0.00    +0.085 C 
BRANCH  18  19
ATOM     19  C   UNK A   0      32.716 -14.517 -20.974  0.00  0.00    +0.010 C 
BRANCH  19  20
ATOM     20  C   UNK A   0      34.227 -14.752 -21.079  0.00  0.00    +0.003 C 
BRANCH  20  21
ATOM     21  C   UNK A   0      34.624 -16.083 -20.427  0.00  0.00    +0.031 C 
BRANCH  21  22
ATOM     22  C   UNK A   0      35.021 -17.171 -21.434  0.00  0.00    +0.176 C 
BRANCH  22  24
ATOM     23  O   UNK A   1      35.767 -18.437 -23.899  0.00  0.00    -0.277 OA
ATOM     24  N   UNK A   2      34.508 -16.860 -22.750  0.00  0.00    -0.298 N 
ATOM     25  C   UNK A   1      34.935 -17.534 -23.883  0.00  0.00    +0.201 C 
ATOM     26  H   UNK A   2      33.834 -16.149 -22.844  0.00  0.00    +0.150 HD
BRANCH  25  27
ATOM     27  C   UNK A   1      34.246 -17.021 -25.122  0.00  0.00    +0.001 C 
BRANCH  27  28
ATOM     28  N   UNK A   1      33.773 -15.627 -24.944  0.00  0.00    +0.386 N 
ATOM     29  H   UNK A   1      32.777 -15.576 -25.157  0.00  0.00    -0.089 HD
ATOM     30  H   UNK A   1      34.288 -15.011 -25.572  0.00  0.00    -0.089 HD
ATOM     31  H   UNK A   1      33.929 -15.337 -23.978  0.00  0.00    -0.089 HD
ENDBRANCH  27  28
ENDBRANCH  25  27
ENDBRANCH  22  24
BRANCH  22  34
ATOM     32  O   UNK A   2      33.485 -18.943 -21.036  0.00  0.00    -0.244 OA
ATOM     33  O   UNK A   2      35.696 -19.296 -20.610  0.00  0.00    -0.244 OA
ATOM     34  C   UNK A   0      34.703 -18.613 -20.993  0.00  0.00    +0.382 C 
ENDBRANCH  22  34
ENDBRANCH  21  22
ENDBRANCH  20  21
ENDBRANCH  19  20
ENDBRANCH  18  19
ENDBRANCH   3  18
TORSDOF 11
ENDMDL
MODEL 8
REMARK VINA RESULT:      -7.6      2.131      2.951
REMARK  Name = 5288535
REMARK  11 active torsions:
REMARK  status: ('A' for Active; 'I' for Inactive)
REMARK    1  A    between atoms: N_2  and  C_11
REMARK    2  A    between atoms: C_3  and  C_18
REMARK    3  A    between atoms: C_10  and  C_17
REMARK    4  A    between atoms: C_18  and  C_19
REMARK    5  A    between atoms: C_19  and  C_20
REMARK    6  A    between atoms: C_20  and  C_21
REMARK    7  A    between atoms: C_21  and  C_22
REMARK    8  A    between atoms: C_22  and  N_24
REMARK    9  A    between atoms: C_22  and  C_34
REMARK   10  A    between atoms: C_25  and  C_27
REMARK   11  A    between atoms: C_27  and  N_28
REMARK                            x       y       z     vdW  Elec       q    Type
REMARK                         _______ _______ _______ _____ _____    ______ ____
ROOT
ATOM      1  O   UNK A   0      36.761 -20.512 -18.612  0.00  0.00    -0.275 OA
ATOM      2  N   UNK A   1      36.349 -22.378 -17.295  0.00  0.00    -0.296 N 
ATOM      3  C   UNK A   0      36.202 -21.591 -18.432  0.00  0.00    +0.223 C 
ATOM      4  H   UNK A   1      35.859 -23.229 -17.243  0.00  0.00    +0.150 HD
ENDROOT
BRANCH   2  11
ATOM      5  S   UNK A   1      34.951 -22.759 -14.591  0.00  0.00    -0.118 S 
ATOM      6  O   UNK A   1      38.905 -23.893 -16.101  0.00  0.00    -0.273 OA
ATOM      7  N   UNK A   1      37.552 -22.996 -14.389  0.00  0.00    -0.260 N 
ATOM      8  C   UNK A   1      36.590 -21.960 -14.761  0.00  0.00    +0.151 C 
ATOM      9  C   UNK A   1      35.645 -24.361 -13.944  0.00  0.00    +0.068 C 
ATOM     10  C   UNK A   1      37.109 -24.073 -13.528  0.00  0.00    +0.189 C 
ATOM     11  C   UNK A   1      37.210 -21.984 -16.168  0.00  0.00    +0.178 C 
ATOM     12  C   UNK A   1      38.112 -23.113 -15.627  0.00  0.00    +0.247 C 
ATOM     13  C   UNK A   1      35.588 -25.385 -15.090  0.00  0.00    +0.013 C 
ATOM     14  C   UNK A   1      34.755 -24.857 -12.797  0.00  0.00    +0.013 C 
BRANCH  10  17
ATOM     15  O   UNK A   2      37.146 -22.425 -11.846  0.00  0.00    -0.244 OA
ATOM     16  O   UNK A   2      37.498 -24.613 -11.274  0.00  0.00    -0.244 OA
ATOM     17  C   UNK A   1      37.267 -23.661 -12.072  0.00  0.00    +0.383 C 
ENDBRANCH  10  17
ENDBRANCH   2  11
BRANCH   3  18
ATOM     18  C   UNK A   0      35.238 -22.213 -19.428  0.00  0.00    +0.085 C 
BRANCH  18  19
ATOM     19  C   UNK A   0      33.782 -21.807 -19.211  0.00  0.00    +0.010 C 
BRANCH  19  20
ATOM     20  C   UNK A   0      33.395 -20.567 -20.025  0.00  0.00    +0.003 C 
BRANCH  20  21
ATOM     21  C   UNK A   0      34.339 -20.375 -21.219  0.00  0.00    +0.031 C 
BRANCH  21  22
ATOM     22  C   UNK A   0      34.547 -18.906 -21.613  0.00  0.00    +0.176 C 
BRANCH  22  24
ATOM     23  O   UNK A   1      34.212 -16.443 -23.048  0.00  0.00    -0.277 OA
ATOM     24  N   UNK A   2      34.482 -18.749 -23.050  0.00  0.00    -0.298 N 
ATOM     25  C   UNK A   1      34.317 -17.510 -23.647  0.00  0.00    +0.201 C 
ATOM     26  H   UNK A   2      34.556 -19.547 -23.621  0.00  0.00    +0.150 HD
BRANCH  25  27
ATOM     27  C   UNK A   1      34.283 -17.622 -25.150  0.00  0.00    +0.001 C 
BRANCH  27  28
ATOM     28  N   UNK A   1      34.144 -16.292 -25.791  0.00  0.00    +0.386 N 
ATOM     29  H   UNK A   1      34.041 -15.577 -25.070  0.00  0.00    -0.089 HD
ATOM     30  H   UNK A   1      33.321 -16.289 -26.392  0.00  0.00    -0.089 HD
ATOM     31  H   UNK A   1      34.975 -16.095 -26.349  0.00  0.00    -0.089 HD
ENDBRANCH  27  28
ENDBRANCH  25  27
ENDBRANCH  22  24
BRANCH  22  34
ATOM     32  O   UNK A   2      35.566 -17.207 -20.296  0.00  0.00    -0.244 OA
ATOM     33  O   UNK A   2      36.897 -18.774 -21.280  0.00  0.00    -0.244 OA
ATOM     34  C   UNK A   0      35.789 -18.236 -20.995  0.00  0.00    +0.382 C 
ENDBRANCH  22  34
ENDBRANCH  21  22
ENDBRANCH  20  21
ENDBRANCH  19  20
ENDBRANCH  18  19
ENDBRANCH   3  18
TORSDOF 11
ENDMDL
MODEL 9
REMARK VINA RESULT:      -7.5      4.212      6.614
REMARK  Name = 5288535
REMARK  11 active torsions:
REMARK  status: ('A' for Active; 'I' for Inactive)
REMARK    1  A    between atoms: N_2  and  C_11
REMARK    2  A    between atoms: C_3  and  C_18
REMARK    3  A    between atoms: C_10  and  C_17
REMARK    4  A    between atoms: C_18  and  C_19
REMARK    5  A    between atoms: C_19  and  C_20
REMARK    6  A    between atoms: C_20  and  C_21
REMARK    7  A    between atoms: C_21  and  C_22
REMARK    8  A    between atoms: C_22  and  N_24
REMARK    9  A    between atoms: C_22  and  C_34
REMARK   10  A    between atoms: C_25  and  C_27
REMARK   11  A    between atoms: C_27  and  N_28
REMARK                            x       y       z     vdW  Elec       q    Type
REMARK                         _______ _______ _______ _____ _____    ______ ____
ROOT
ATOM      1  O   UNK A   0      36.163 -21.343 -18.040  0.00  0.00    -0.275 OA
ATOM      2  N   UNK A   1      35.381 -22.746 -16.366  0.00  0.00    -0.296 N 
ATOM      3  C   UNK A   0      35.418 -22.243 -17.662  0.00  0.00    +0.223 C 
ATOM      4  H   UNK A   1      34.747 -23.470 -16.159  0.00  0.00    +0.150 HD
ENDROOT
BRANCH   2  11
ATOM      5  S   UNK A   1      35.293 -24.524 -13.867  0.00  0.00    -0.118 S 
ATOM      6  O   UNK A   1      38.578 -22.790 -16.192  0.00  0.00    -0.273 OA
ATOM      7  N   UNK A   1      37.591 -23.288 -14.108  0.00  0.00    -0.260 N 
ATOM      8  C   UNK A   1      36.186 -22.926 -13.922  0.00  0.00    +0.151 C 
ATOM      9  C   UNK A   1      36.842 -25.551 -13.988  0.00  0.00    +0.068 C 
ATOM     10  C   UNK A   1      38.027 -24.602 -13.684  0.00  0.00    +0.189 C 
ATOM     11  C   UNK A   1      36.252 -22.237 -15.295  0.00  0.00    +0.178 C 
ATOM     12  C   UNK A   1      37.706 -22.748 -15.355  0.00  0.00    +0.247 C 
ATOM     13  C   UNK A   1      36.924 -26.095 -15.424  0.00  0.00    +0.013 C 
ATOM     14  C   UNK A   1      36.725 -26.736 -13.020  0.00  0.00    +0.013 C 
BRANCH  10  17
ATOM     15  O   UNK A   2      38.326 -25.656 -11.599  0.00  0.00    -0.244 OA
ATOM     16  O   UNK A   2      38.798 -23.427 -11.801  0.00  0.00    -0.244 OA
ATOM     17  C   UNK A   1      38.422 -24.559 -12.216  0.00  0.00    +0.383 C 
ENDBRANCH  10  17
ENDBRANCH   2  11
BRANCH   3  18
ATOM     18  C   UNK A   0      34.401 -22.924 -18.561  0.00  0.00    +0.085 C 
BRANCH  18  19
ATOM     19  C   UNK A   0      32.950 -22.627 -18.184  0.00  0.00    +0.010 C 
BRANCH  19  20
ATOM     20  C   UNK A   0      32.452 -23.515 -17.038  0.00  0.00    +0.003 C 
BRANCH  20  21
ATOM     21  C   UNK A   0      31.372 -22.800 -16.216  0.00  0.00    +0.031 C 
BRANCH  21  22
ATOM     22  C   UNK A   0      30.139 -23.666 -15.928  0.00  0.00    +0.176 C 
BRANCH  22  24
ATOM     23  O   UNK A   1      27.768 -23.915 -17.528  0.00  0.00    -0.277 OA
ATOM     24  N   UNK A   2      28.949 -22.847 -15.837  0.00  0.00    -0.298 N 
ATOM     25  C   UNK A   1      27.853 -23.049 -16.660  0.00  0.00    +0.201 C 
ATOM     26  H   UNK A   2      28.918 -22.123 -15.171  0.00  0.00    +0.150 HD
BRANCH  25  27
ATOM     27  C   UNK A   1      26.750 -22.066 -16.362  0.00  0.00    +0.001 C 
BRANCH  27  28
ATOM     28  N   UNK A   1      26.255 -21.414 -17.597  0.00  0.00    +0.386 N 
ATOM     29  H   UNK A   1      27.047 -21.161 -18.189  0.00  0.00    -0.089 HD
ATOM     30  H   UNK A   1      25.731 -20.574 -17.352  0.00  0.00    -0.089 HD
ATOM     31  H   UNK A   1      25.647 -22.060 -18.101  0.00  0.00    -0.089 HD
ENDBRANCH  27  28
ENDBRANCH  25  27
ENDBRANCH  22  24
BRANCH  22  34
ATOM     32  O   UNK A   2      30.551 -24.102 -13.626  0.00  0.00    -0.244 OA
ATOM     33  O   UNK A   2      30.158 -25.863 -15.020  0.00  0.00    -0.244 OA
ATOM     34  C   UNK A   0      30.288 -24.637 -14.740  0.00  0.00    +0.382 C 
ENDBRANCH  22  34
ENDBRANCH  21  22
ENDBRANCH  20  21
ENDBRANCH  19  20
ENDBRANCH  18  19
ENDBRANCH   3  18
TORSDOF 11
ENDMDL
