MODEL 1
REMARK VINA RESULT:     -10.9      0.000      0.000
REMARK  Name = 24771368
REMARK  4 active torsions:
REMARK  status: ('A' for Active; 'I' for Inactive)
REMARK    1  A    between atoms: N_2  and  C_25
REMARK    2  A    between atoms: C_9  and  C_12
REMARK    3  A    between atoms: C_16  and  O_17
REMARK    4  A    between atoms: O_17  and  C_19
REMARK                            x       y       z     vdW  Elec       q    Type
REMARK                         _______ _______ _______ _____ _____    ______ ____
ROOT
ATOM      1  O   UNL     1      35.281 -17.235 -20.521  0.00  0.00    -0.270 OA
ATOM      2  N   UNL     1      34.070 -16.406 -25.161  0.00  0.00    +0.389 N 
ATOM      3  N   UNL     1      35.253 -18.078 -22.706  0.00  0.00    -0.278 N 
ATOM      4  C   UNL     1      33.572 -17.787 -25.226  0.00  0.00    -0.075 C 
ATOM      5  C   UNL     1      34.518 -15.996 -23.823  0.00  0.00    -0.055 C 
ATOM      6  C   UNL     1      34.677 -18.834 -25.065  0.00  0.00    -0.001 C 
ATOM      7  C   UNL     1      35.695 -16.810 -23.284  0.00  0.00    +0.071 C 
ATOM      8  C   UNL     1      34.985 -19.198 -23.613  0.00  0.00    +0.091 C 
ATOM      9  C   UNL     1      35.069 -18.149 -21.315  0.00  0.00    +0.250 C 
ATOM     10  H   UNL     1      34.900 -16.384 -25.754  0.00  0.00    -0.080 HD
ENDROOT
BRANCH   9  12
ATOM     11  N   UNL     1      32.718 -20.815 -20.111  0.00  0.00    -0.210 NA
ATOM     12  C   UNL     1      34.584 -19.413 -20.740  0.00  0.00    +0.073 C 
ATOM     13  C   UNL     1      35.473 -20.383 -20.289  0.00  0.00    +0.011 C 
ATOM     14  C   UNL     1      33.228 -19.676 -20.630  0.00  0.00    +0.107 C 
ATOM     15  C   UNL     1      34.986 -21.568 -19.749  0.00  0.00    +0.058 C 
ATOM     16  C   UNL     1      33.612 -21.733 -19.683  0.00  0.00    +0.230 C 
BRANCH  16  17
ATOM     17  O   UNL     1      33.107 -22.892 -19.154  0.00  0.00    -0.436 OA
BRANCH  17  19
ATOM     18  F   UNL     1      32.995 -23.333 -13.663  0.00  0.00    -0.204 F 
ATOM     19  C   UNL     1      33.079 -23.002 -17.777  0.00  0.00    +0.147 C 
ATOM     20  C   UNL     1      31.863 -22.935 -17.097  0.00  0.00    +0.040 C 
ATOM     21  C   UNL     1      34.267 -23.181 -17.067  0.00  0.00    +0.040 C 
ATOM     22  C   UNL     1      31.835 -23.048 -15.707  0.00  0.00    +0.033 C 
ATOM     23  C   UNL     1      34.238 -23.293 -15.677  0.00  0.00    +0.033 C 
ATOM     24  C   UNL     1      33.022 -23.226 -14.998  0.00  0.00    +0.140 C 
ENDBRANCH  17  19
ENDBRANCH  16  17
ENDBRANCH   9  12
BRANCH   2  25
ATOM     25  C   UNL     1      33.056 -15.450 -25.691  0.00  0.00    -0.058 C 
ATOM     26  C   UNL     1      33.680 -14.611 -26.825  0.00  0.00    -0.021 C 
ATOM     27  C   UNL     1      33.065 -14.165 -24.839  0.00  0.00    -0.021 C 
ATOM     28  C   UNL     1      33.031 -13.377 -26.165  0.00  0.00    -0.004 C 
ENDBRANCH   2  25
TORSDOF 4
ENDMDL
MODEL 2
REMARK VINA RESULT:     -10.5      2.697      4.903
REMARK  Name = 24771368
REMARK  4 active torsions:
REMARK  status: ('A' for Active; 'I' for Inactive)
REMARK    1  A    between atoms: N_2  and  C_25
REMARK    2  A    between atoms: C_9  and  C_12
REMARK    3  A    between atoms: C_16  and  O_17
REMARK    4  A    between atoms: O_17  and  C_19
REMARK                            x       y       z     vdW  Elec       q    Type
REMARK                         _______ _______ _______ _____ _____    ______ ____
ROOT
ATOM      1  O   UNL     1      34.288 -16.158 -26.245  0.00  0.00    -0.270 OA
ATOM      2  N   UNL     1      33.170 -11.654 -24.778  0.00  0.00    +0.389 N 
ATOM      3  N   UNL     1      33.194 -14.848 -24.641  0.00  0.00    -0.278 N 
ATOM      4  C   UNL     1      33.466 -12.081 -23.403  0.00  0.00    -0.075 C 
ATOM      5  C   UNL     1      33.455 -12.675 -25.795  0.00  0.00    -0.055 C 
ATOM      6  C   UNL     1      32.500 -13.147 -22.882  0.00  0.00    -0.001 C 
ATOM      7  C   UNL     1      32.627 -13.951 -25.646  0.00  0.00    +0.071 C 
ATOM      8  C   UNL     1      32.904 -14.579 -23.229  0.00  0.00    +0.091 C 
ATOM      9  C   UNL     1      34.020 -15.899 -25.073  0.00  0.00    +0.250 C 
ATOM     10  H   UNL     1      32.161 -11.503 -24.808  0.00  0.00    -0.080 HD
ENDROOT
BRANCH   9  12
ATOM     11  N   UNL     1      35.529 -17.037 -21.831  0.00  0.00    -0.210 NA
ATOM     12  C   UNL     1      34.624 -16.774 -24.057  0.00  0.00    +0.073 C 
ATOM     13  C   UNL     1      34.865 -18.118 -24.321  0.00  0.00    +0.011 C 
ATOM     14  C   UNL     1      34.971 -16.287 -22.807  0.00  0.00    +0.107 C 
ATOM     15  C   UNL     1      35.438 -18.922 -23.342  0.00  0.00    +0.058 C 
ATOM     16  C   UNL     1      35.749 -18.338 -22.125  0.00  0.00    +0.230 C 
BRANCH  16  17
ATOM     17  O   UNL     1      36.315 -19.110 -21.144  0.00  0.00    -0.436 OA
BRANCH  17  19
ATOM     18  F   UNL     1      33.067 -22.771 -18.614  0.00  0.00    -0.204 F 
ATOM     19  C   UNL     1      35.501 -20.027 -20.509  0.00  0.00    +0.147 C 
ATOM     20  C   UNL     1      34.114 -19.902 -20.591  0.00  0.00    +0.040 C 
ATOM     21  C   UNL     1      36.066 -21.079 -19.787  0.00  0.00    +0.040 C 
ATOM     22  C   UNL     1      33.292 -20.829 -19.950  0.00  0.00    +0.033 C 
ATOM     23  C   UNL     1      35.244 -22.006 -19.147  0.00  0.00    +0.033 C 
ATOM     24  C   UNL     1      33.857 -21.881 -19.229  0.00  0.00    +0.140 C 
ENDBRANCH  17  19
ENDBRANCH  16  17
ENDBRANCH   9  12
BRANCH   2  25
ATOM     25  C   UNL     1      33.872 -10.379 -25.102  0.00  0.00    -0.058 C 
ATOM     26  C   UNL     1      35.267 -10.377 -24.447  0.00  0.00    -0.021 C 
ATOM     27  C   UNL     1      33.473  -9.296 -24.079  0.00  0.00    -0.021 C 
ATOM     28  C   UNL     1      34.970  -8.931 -23.998  0.00  0.00    -0.004 C 
ENDBRANCH   2  25
TORSDOF 4
ENDMDL
MODEL 3
REMARK VINA RESULT:     -10.5      3.515      9.730
REMARK  Name = 24771368
REMARK  4 active torsions:
REMARK  status: ('A' for Active; 'I' for Inactive)
REMARK    1  A    between atoms: N_2  and  C_25
REMARK    2  A    between atoms: C_9  and  C_12
REMARK    3  A    between atoms: C_16  and  O_17
REMARK    4  A    between atoms: O_17  and  C_19
REMARK                            x       y       z     vdW  Elec       q    Type
REMARK                         _______ _______ _______ _____ _____    ______ ____
ROOT
ATOM      1  O   UNL     1      32.498 -21.079 -20.521  0.00  0.00    -0.270 OA
ATOM      2  N   UNL     1      35.127 -22.806 -16.808  0.00  0.00    +0.389 N 
ATOM      3  N   UNL     1      34.637 -21.627 -19.738  0.00  0.00    -0.278 N 
ATOM      4  C   UNL     1      36.115 -21.753 -17.081  0.00  0.00    -0.075 C 
ATOM      5  C   UNL     1      33.919 -22.722 -17.639  0.00  0.00    -0.055 C 
ATOM      6  C   UNL     1      36.804 -21.911 -18.438  0.00  0.00    -0.001 C 
ATOM      7  C   UNL     1      34.181 -22.879 -19.137  0.00  0.00    +0.071 C 
ATOM      8  C   UNL     1      36.051 -21.265 -19.600  0.00  0.00    +0.091 C 
ATOM      9  C   UNL     1      33.691 -20.814 -20.384  0.00  0.00    +0.250 C 
ATOM     10  H   UNL     1      35.582 -23.684 -17.062  0.00  0.00    -0.080 HD
ENDROOT
BRANCH   9  12
ATOM     11  N   UNL     1      33.779 -17.163 -21.252  0.00  0.00    -0.210 NA
ATOM     12  C   UNL     1      34.143 -19.534 -20.952  0.00  0.00    +0.073 C 
ATOM     13  C   UNL     1      35.312 -19.455 -21.701  0.00  0.00    +0.011 C 
ATOM     14  C   UNL     1      33.419 -18.369 -20.758  0.00  0.00    +0.107 C 
ATOM     15  C   UNL     1      35.715 -18.233 -22.226  0.00  0.00    +0.058 C 
ATOM     16  C   UNL     1      34.920 -17.126 -21.975  0.00  0.00    +0.230 C 
BRANCH  16  17
ATOM     17  O   UNL     1      35.295 -15.910 -22.482  0.00  0.00    -0.436 OA
BRANCH  17  19
ATOM     18  F   UNL     1      32.349 -13.904 -26.684  0.00  0.00    -0.204 F 
ATOM     19  C   UNL     1      34.557 -15.407 -23.536  0.00  0.00    +0.147 C 
ATOM     20  C   UNL     1      34.318 -16.198 -24.659  0.00  0.00    +0.040 C 
ATOM     21  C   UNL     1      34.051 -14.109 -23.476  0.00  0.00    +0.040 C 
ATOM     22  C   UNL     1      33.571 -15.691 -25.723  0.00  0.00    +0.033 C 
ATOM     23  C   UNL     1      33.305 -13.601 -24.539  0.00  0.00    +0.033 C 
ATOM     24  C   UNL     1      33.065 -14.392 -25.662  0.00  0.00    +0.140 C 
ENDBRANCH  17  19
ENDBRANCH  16  17
ENDBRANCH   9  12
BRANCH   2  25
ATOM     25  C   UNL     1      34.768 -22.836 -15.361  0.00  0.00    -0.058 C 
ATOM     26  C   UNL     1      35.170 -24.197 -14.757  0.00  0.00    -0.021 C 
ATOM     27  C   UNL     1      33.301 -23.285 -15.203  0.00  0.00    -0.021 C 
ATOM     28  C   UNL     1      33.788 -24.214 -14.071  0.00  0.00    -0.004 C 
ENDBRANCH   2  25
TORSDOF 4
ENDMDL
MODEL 4
REMARK VINA RESULT:     -10.3      5.906     11.119
REMARK  Name = 24771368
REMARK  4 active torsions:
REMARK  status: ('A' for Active; 'I' for Inactive)
REMARK    1  A    between atoms: N_2  and  C_25
REMARK    2  A    between atoms: C_9  and  C_12
REMARK    3  A    between atoms: C_16  and  O_17
REMARK    4  A    between atoms: O_17  and  C_19
REMARK                            x       y       z     vdW  Elec       q    Type
REMARK                         _______ _______ _______ _____ _____    ______ ____
ROOT
ATOM      1  O   UNL     1      33.785 -14.674 -25.080  0.00  0.00    -0.270 OA
ATOM      2  N   UNL     1      34.544 -18.205 -21.819  0.00  0.00    +0.389 N 
ATOM      3  N   UNL     1      34.630 -15.223 -22.966  0.00  0.00    -0.278 N 
ATOM      4  C   UNL     1      34.105 -17.269 -20.775  0.00  0.00    -0.075 C 
ATOM      5  C   UNL     1      34.421 -17.678 -23.184  0.00  0.00    -0.055 C 
ATOM      6  C   UNL     1      35.044 -16.073 -20.605  0.00  0.00    -0.001 C 
ATOM      7  C   UNL     1      35.276 -16.440 -23.453  0.00  0.00    +0.071 C 
ATOM      8  C   UNL     1      34.741 -14.903 -21.539  0.00  0.00    +0.091 C 
ATOM      9  C   UNL     1      33.903 -14.441 -23.878  0.00  0.00    +0.250 C 
ATOM     10  H   UNL     1      35.543 -18.345 -21.662  0.00  0.00    -0.080 HD
ENDROOT
BRANCH   9  12
ATOM     11  N   UNL     1      32.956 -10.837 -23.432  0.00  0.00    -0.210 NA
ATOM     12  C   UNL     1      33.218 -13.239 -23.377  0.00  0.00    +0.073 C 
ATOM     13  C   UNL     1      32.223 -13.332 -22.411  0.00  0.00    +0.011 C 
ATOM     14  C   UNL     1      33.545 -11.978 -23.851  0.00  0.00    +0.107 C 
ATOM     15  C   UNL     1      31.593 -12.180 -21.955  0.00  0.00    +0.058 C 
ATOM     16  C   UNL     1      31.993 -10.967 -22.492  0.00  0.00    +0.230 C 
BRANCH  16  17
ATOM     17  O   UNL     1      31.388  -9.817 -22.058  0.00  0.00    -0.436 OA
BRANCH  17  19
ATOM     18  F   UNL     1      32.716  -5.129 -24.630  0.00  0.00    -0.204 F 
ATOM     19  C   UNL     1      31.721  -8.642 -22.704  0.00  0.00    +0.147 C 
ATOM     20  C   UNL     1      30.859  -8.103 -23.659  0.00  0.00    +0.040 C 
ATOM     21  C   UNL     1      32.919  -7.995 -22.400  0.00  0.00    +0.040 C 
ATOM     22  C   UNL     1      31.195  -6.916 -24.310  0.00  0.00    +0.033 C 
ATOM     23  C   UNL     1      33.255  -6.807 -23.050  0.00  0.00    +0.033 C 
ATOM     24  C   UNL     1      32.393  -6.268 -24.005  0.00  0.00    +0.140 C 
ENDBRANCH  17  19
ENDBRANCH  16  17
ENDBRANCH   9  12
BRANCH   2  25
ATOM     25  C   UNL     1      33.836 -19.511 -21.694  0.00  0.00    -0.058 C 
ATOM     26  C   UNL     1      32.674 -19.375 -20.689  0.00  0.00    -0.021 C 
ATOM     27  C   UNL     1      34.545 -20.385 -20.639  0.00  0.00    -0.021 C 
ATOM     28  C   UNL     1      33.145 -20.712 -20.081  0.00  0.00    -0.004 C 
ENDBRANCH   2  25
TORSDOF 4
ENDMDL
MODEL 5
REMARK VINA RESULT:     -10.1      4.723      6.977
REMARK  Name = 24771368
REMARK  4 active torsions:
REMARK  status: ('A' for Active; 'I' for Inactive)
REMARK    1  A    between atoms: N_2  and  C_25
REMARK    2  A    between atoms: C_9  and  C_12
REMARK    3  A    between atoms: C_16  and  O_17
REMARK    4  A    between atoms: O_17  and  C_19
REMARK                            x       y       z     vdW  Elec       q    Type
REMARK                         _______ _______ _______ _____ _____    ______ ____
ROOT
ATOM      1  O   UNL     1      32.667 -12.858 -24.155  0.00  0.00    -0.270 OA
ATOM      2  N   UNL     1      31.840  -9.395 -20.837  0.00  0.00    +0.389 N 
ATOM      3  N   UNL     1      31.915 -12.376 -21.990  0.00  0.00    -0.278 N 
ATOM      4  C   UNL     1      32.416 -10.294 -19.827  0.00  0.00    -0.075 C 
ATOM      5  C   UNL     1      31.919  -9.912 -22.210  0.00  0.00    -0.055 C 
ATOM      6  C   UNL     1      31.585 -11.560 -19.604  0.00  0.00    -0.001 C 
ATOM      7  C   UNL     1      31.148 -11.213 -22.431  0.00  0.00    +0.071 C 
ATOM      8  C   UNL     1      31.919 -12.703 -20.560  0.00  0.00    +0.091 C 
ATOM      9  C   UNL     1      32.643 -13.099 -22.949  0.00  0.00    +0.250 C 
ATOM     10  H   UNL     1      30.846  -9.333 -20.617  0.00  0.00    -0.080 HD
ENDROOT
BRANCH   9  12
ATOM     11  N   UNL     1      34.711 -16.229 -23.052  0.00  0.00    -0.210 NA
ATOM     12  C   UNL     1      33.449 -14.243 -22.497  0.00  0.00    +0.073 C 
ATOM     13  C   UNL     1      33.717 -14.442 -21.147  0.00  0.00    +0.011 C 
ATOM     14  C   UNL     1      33.965 -15.158 -23.402  0.00  0.00    +0.107 C 
ATOM     15  C   UNL     1      34.480 -15.533 -20.748  0.00  0.00    +0.058 C 
ATOM     16  C   UNL     1      34.950 -16.389 -21.731  0.00  0.00    +0.230 C 
BRANCH  16  17
ATOM     17  O   UNL     1      35.704 -17.472 -21.363  0.00  0.00    -0.436 OA
BRANCH  17  19
ATOM     18  F   UNL     1      33.013 -22.006 -19.762  0.00  0.00    -0.204 F 
ATOM     19  C   UNL     1      35.030 -18.610 -20.963  0.00  0.00    +0.147 C 
ATOM     20  C   UNL     1      35.742 -19.717 -20.503  0.00  0.00    +0.040 C 
ATOM     21  C   UNL     1      33.637 -18.649 -21.017  0.00  0.00    +0.040 C 
ATOM     22  C   UNL     1      35.061 -20.864 -20.097  0.00  0.00    +0.033 C 
ATOM     23  C   UNL     1      32.955 -19.797 -20.611  0.00  0.00    +0.033 C 
ATOM     24  C   UNL     1      33.668 -20.904 -20.151  0.00  0.00    +0.140 C 
ENDBRANCH  17  19
ENDBRANCH  16  17
ENDBRANCH   9  12
BRANCH   2  25
ATOM     25  C   UNL     1      32.452  -8.038 -20.751  0.00  0.00    -0.058 C 
ATOM     26  C   UNL     1      31.456  -6.988 -21.282  0.00  0.00    -0.021 C 
ATOM     27  C   UNL     1      33.292  -7.770 -22.016  0.00  0.00    -0.021 C 
ATOM     28  C   UNL     1      32.637  -6.374 -22.062  0.00  0.00    -0.004 C 
ENDBRANCH   2  25
TORSDOF 4
ENDMDL
MODEL 6
REMARK VINA RESULT:      -9.8      2.809      4.189
REMARK  Name = 24771368
REMARK  4 active torsions:
REMARK  status: ('A' for Active; 'I' for Inactive)
REMARK    1  A    between atoms: N_2  and  C_25
REMARK    2  A    between atoms: C_9  and  C_12
REMARK    3  A    between atoms: C_16  and  O_17
REMARK    4  A    between atoms: O_17  and  C_19
REMARK                            x       y       z     vdW  Elec       q    Type
REMARK                         _______ _______ _______ _____ _____    ______ ____
ROOT
ATOM      1  O   UNL     1      37.249 -21.225 -20.208  0.00  0.00    -0.270 OA
ATOM      2  N   UNL     1      34.438 -17.542 -21.696  0.00  0.00    +0.389 N 
ATOM      3  N   UNL     1      35.074 -20.516 -20.712  0.00  0.00    -0.278 N 
ATOM      4  C   UNL     1      33.464 -17.934 -20.668  0.00  0.00    -0.075 C 
ATOM      5  C   UNL     1      35.686 -18.315 -21.662  0.00  0.00    -0.055 C 
ATOM      6  C   UNL     1      32.845 -19.310 -20.918  0.00  0.00    -0.001 C 
ATOM      7  C   UNL     1      35.500 -19.811 -21.919  0.00  0.00    +0.071 C 
ATOM      8  C   UNL     1      33.654 -20.473 -20.348  0.00  0.00    +0.091 C 
ATOM      9  C   UNL     1      36.050 -21.167 -19.939  0.00  0.00    +0.250 C 
ATOM     10  H   UNL     1      33.997 -17.760 -22.590  0.00  0.00    -0.080 HD
ENDROOT
BRANCH   9  12
ATOM     11  N   UNL     1      33.987 -23.183 -17.538  0.00  0.00    -0.210 NA
ATOM     12  C   UNL     1      35.626 -21.840 -18.702  0.00  0.00    +0.073 C 
ATOM     13  C   UNL     1      36.409 -21.789 -17.554  0.00  0.00    +0.011 C 
ATOM     14  C   UNL     1      34.434 -22.545 -18.643  0.00  0.00    +0.107 C 
ATOM     15  C   UNL     1      35.983 -22.433 -16.398  0.00  0.00    +0.058 C 
ATOM     16  C   UNL     1      34.775 -23.111 -16.442  0.00  0.00    +0.230 C 
BRANCH  16  17
ATOM     17  O   UNL     1      34.333 -23.754 -15.316  0.00  0.00    -0.436 OA
BRANCH  17  19
ATOM     18  F   UNL     1      38.119 -26.188 -12.138  0.00  0.00    -0.204 F 
ATOM     19  C   UNL     1      35.283 -24.364 -14.519  0.00  0.00    +0.147 C 
ATOM     20  C   UNL     1      35.515 -23.892 -13.227  0.00  0.00    +0.040 C 
ATOM     21  C   UNL     1      36.008 -25.451 -15.007  0.00  0.00    +0.040 C 
ATOM     22  C   UNL     1      36.473 -24.509 -12.422  0.00  0.00    +0.033 C 
ATOM     23  C   UNL     1      36.966 -26.067 -14.202  0.00  0.00    +0.033 C 
ATOM     24  C   UNL     1      37.198 -25.596 -12.910  0.00  0.00    +0.140 C 
ENDBRANCH  17  19
ENDBRANCH  16  17
ENDBRANCH   9  12
BRANCH   2  25
ATOM     25  C   UNL     1      34.723 -16.080 -21.628  0.00  0.00    -0.058 C 
ATOM     26  C   UNL     1      33.417 -15.310 -21.351  0.00  0.00    -0.021 C 
ATOM     27  C   UNL     1      34.686 -15.481 -23.049  0.00  0.00    -0.021 C 
ATOM     28  C   UNL     1      33.852 -14.326 -22.456  0.00  0.00    -0.004 C 
ENDBRANCH   2  25
TORSDOF 4
ENDMDL
MODEL 7
REMARK VINA RESULT:      -9.8      3.367      9.472
REMARK  Name = 24771368
REMARK  4 active torsions:
REMARK  status: ('A' for Active; 'I' for Inactive)
REMARK    1  A    between atoms: N_2  and  C_25
REMARK    2  A    between atoms: C_9  and  C_12
REMARK    3  A    between atoms: C_16  and  O_17
REMARK    4  A    between atoms: O_17  and  C_19
REMARK                            x       y       z     vdW  Elec       q    Type
REMARK                         _______ _______ _______ _____ _____    ______ ____
ROOT
ATOM      1  O   UNL     1      32.700 -21.763 -20.216  0.00  0.00    -0.270 OA
ATOM      2  N   UNL     1      34.908 -23.130 -16.100  0.00  0.00    +0.389 N 
ATOM      3  N   UNL     1      34.743 -22.091 -19.118  0.00  0.00    -0.278 N 
ATOM      4  C   UNL     1      35.831 -22.000 -16.277  0.00  0.00    -0.075 C 
ATOM      5  C   UNL     1      33.828 -23.181 -17.095  0.00  0.00    -0.055 C 
ATOM      6  C   UNL     1      36.718 -22.137 -17.517  0.00  0.00    -0.001 C 
ATOM      7  C   UNL     1      34.315 -23.359 -18.533  0.00  0.00    +0.071 C 
ATOM      8  C   UNL     1      36.087 -21.598 -18.799  0.00  0.00    +0.091 C 
ATOM      9  C   UNL     1      33.834 -21.387 -19.925  0.00  0.00    +0.250 C 
ATOM     10  H   UNL     1      35.467 -23.970 -16.250  0.00  0.00    -0.080 HD
ENDROOT
BRANCH   9  12
ATOM     11  N   UNL     1      33.640 -17.896 -21.291  0.00  0.00    -0.210 NA
ATOM     12  C   UNL     1      34.252 -20.089 -20.479  0.00  0.00    +0.073 C 
ATOM     13  C   UNL     1      35.593 -19.810 -20.716  0.00  0.00    +0.011 C 
ATOM     14  C   UNL     1      33.322 -19.107 -20.780  0.00  0.00    +0.107 C 
ATOM     15  C   UNL     1      35.959 -18.576 -21.241  0.00  0.00    +0.058 C 
ATOM     16  C   UNL     1      34.953 -17.662 -21.509  0.00  0.00    +0.230 C 
BRANCH  16  17
ATOM     17  O   UNL     1      35.289 -16.439 -22.027  0.00  0.00    -0.436 OA
BRANCH  17  19
ATOM     18  F   UNL     1      31.442 -12.496 -21.911  0.00  0.00    -0.204 F 
ATOM     19  C   UNL     1      34.323 -15.451 -21.998  0.00  0.00    +0.147 C 
ATOM     20  C   UNL     1      33.839 -14.986 -20.775  0.00  0.00    +0.040 C 
ATOM     21  C   UNL     1      33.834 -14.918 -23.191  0.00  0.00    +0.040 C 
ATOM     22  C   UNL     1      32.866 -13.987 -20.746  0.00  0.00    +0.033 C 
ATOM     23  C   UNL     1      32.861 -13.919 -23.161  0.00  0.00    +0.033 C 
ATOM     24  C   UNL     1      32.377 -13.454 -21.938  0.00  0.00    +0.140 C 
ENDBRANCH  17  19
ENDBRANCH  16  17
ENDBRANCH   9  12
BRANCH   2  25
ATOM     25  C   UNL     1      34.349 -23.147 -14.718  0.00  0.00    -0.058 C 
ATOM     26  C   UNL     1      34.409 -24.582 -14.154  0.00  0.00    -0.021 C 
ATOM     27  C   UNL     1      32.818 -23.318 -14.783  0.00  0.00    -0.021 C 
ATOM     28  C   UNL     1      32.964 -24.365 -13.659  0.00  0.00    -0.004 C 
ENDBRANCH   2  25
TORSDOF 4
ENDMDL
MODEL 8
REMARK VINA RESULT:      -9.7      6.359     10.011
REMARK  Name = 24771368
REMARK  4 active torsions:
REMARK  status: ('A' for Active; 'I' for Inactive)
REMARK    1  A    between atoms: N_2  and  C_25
REMARK    2  A    between atoms: C_9  and  C_12
REMARK    3  A    between atoms: C_16  and  O_17
REMARK    4  A    between atoms: O_17  and  C_19
REMARK                            x       y       z     vdW  Elec       q    Type
REMARK                         _______ _______ _______ _____ _____    ______ ____
ROOT
ATOM      1  O   UNL     1      31.425 -10.273 -21.181  0.00  0.00    -0.270 OA
ATOM      2  N   UNL     1      32.096  -5.900 -23.210  0.00  0.00    +0.389 N 
ATOM      3  N   UNL     1      32.912  -8.857 -22.309  0.00  0.00    -0.278 N 
ATOM      4  C   UNL     1      32.786  -6.574 -24.318  0.00  0.00    -0.075 C 
ATOM      5  C   UNL     1      31.512  -6.819 -22.223  0.00  0.00    -0.055 C 
ATOM      6  C   UNL     1      34.090  -7.252 -23.892  0.00  0.00    -0.001 C 
ATOM      7  C   UNL     1      32.538  -7.695 -21.505  0.00  0.00    +0.071 C 
ATOM      8  C   UNL     1      33.912  -8.676 -23.366  0.00  0.00    +0.091 C 
ATOM      9  C   UNL     1      32.268 -10.079 -22.056  0.00  0.00    +0.250 C 
ATOM     10  H   UNL     1      32.817  -5.377 -22.713  0.00  0.00    -0.080 HD
ENDROOT
BRANCH   9  12
ATOM     11  N   UNL     1      32.330 -13.585 -23.396  0.00  0.00    -0.210 NA
ATOM     12  C   UNL     1      32.615 -11.237 -22.895  0.00  0.00    +0.073 C 
ATOM     13  C   UNL     1      33.518 -11.116 -23.945  0.00  0.00    +0.011 C 
ATOM     14  C   UNL     1      32.053 -12.483 -22.663  0.00  0.00    +0.107 C 
ATOM     15  C   UNL     1      33.829 -12.227 -24.720  0.00  0.00    +0.058 C 
ATOM     16  C   UNL     1      33.213 -13.428 -24.407  0.00  0.00    +0.230 C 
BRANCH  16  17
ATOM     17  O   UNL     1      33.503 -14.538 -25.157  0.00  0.00    -0.436 OA
BRANCH  17  19
ATOM     18  F   UNL     1      35.828 -18.807 -22.562  0.00  0.00    -0.204 F 
ATOM     19  C   UNL     1      34.087 -15.608 -24.506  0.00  0.00    +0.147 C 
ATOM     20  C   UNL     1      34.556 -15.458 -23.202  0.00  0.00    +0.040 C 
ATOM     21  C   UNL     1      34.205 -16.837 -25.154  0.00  0.00    +0.040 C 
ATOM     22  C   UNL     1      35.145 -16.539 -22.545  0.00  0.00    +0.033 C 
ATOM     23  C   UNL     1      34.793 -17.918 -24.497  0.00  0.00    +0.033 C 
ATOM     24  C   UNL     1      35.263 -17.768 -23.193  0.00  0.00    +0.140 C 
ENDBRANCH  17  19
ENDBRANCH  16  17
ENDBRANCH   9  12
BRANCH   2  25
ATOM     25  C   UNL     1      31.063  -4.956 -23.724  0.00  0.00    -0.058 C 
ATOM     26  C   UNL     1      31.451  -4.485 -25.140  0.00  0.00    -0.021 C 
ATOM     27  C   UNL     1      31.387  -3.526 -23.243  0.00  0.00    -0.021 C 
ATOM     28  C   UNL     1      31.088  -3.057 -24.682  0.00  0.00    -0.004 C 
ENDBRANCH   2  25
TORSDOF 4
ENDMDL
MODEL 9
REMARK VINA RESULT:      -9.5      5.413     10.219
REMARK  Name = 24771368
REMARK  4 active torsions:
REMARK  status: ('A' for Active; 'I' for Inactive)
REMARK    1  A    between atoms: N_2  and  C_25
REMARK    2  A    between atoms: C_9  and  C_12
REMARK    3  A    between atoms: C_16  and  O_17
REMARK    4  A    between atoms: O_17  and  C_19
REMARK                            x       y       z     vdW  Elec       q    Type
REMARK                         _______ _______ _______ _____ _____    ______ ____
ROOT
ATOM      1  O   UNL     1      34.258 -15.167 -25.153  0.00  0.00    -0.270 OA
ATOM      2  N   UNL     1      34.653 -18.434 -21.568  0.00  0.00    +0.389 N 
ATOM      3  N   UNL     1      34.792 -15.532 -22.902  0.00  0.00    -0.278 N 
ATOM      4  C   UNL     1      34.022 -17.455 -20.672  0.00  0.00    -0.075 C 
ATOM      5  C   UNL     1      34.718 -18.004 -22.971  0.00  0.00    -0.055 C 
ATOM      6  C   UNL     1      34.874 -16.204 -20.451  0.00  0.00    -0.001 C 
ATOM      7  C   UNL     1      35.554 -16.744 -23.198  0.00  0.00    +0.071 C 
ATOM      8  C   UNL     1      34.670 -15.115 -21.502  0.00  0.00    +0.091 C 
ATOM      9  C   UNL     1      34.182 -14.850 -23.968  0.00  0.00    +0.250 C 
ATOM     10  H   UNL     1      35.621 -18.512 -21.253  0.00  0.00    -0.080 HD
ENDROOT
BRANCH   9  12
ATOM     11  N   UNL     1      31.498 -12.668 -22.510  0.00  0.00    -0.210 NA
ATOM     12  C   UNL     1      33.380 -13.655 -23.663  0.00  0.00    +0.073 C 
ATOM     13  C   UNL     1      33.707 -12.416 -24.203  0.00  0.00    +0.011 C 
ATOM     14  C   UNL     1      32.276 -13.727 -22.829  0.00  0.00    +0.107 C 
ATOM     15  C   UNL     1      32.931 -11.304 -23.899  0.00  0.00    +0.058 C 
ATOM     16  C   UNL     1      31.847 -11.481 -23.055  0.00  0.00    +0.230 C 
BRANCH  16  17
ATOM     17  O   UNL     1      31.067 -10.400 -22.740  0.00  0.00    -0.436 OA
BRANCH  17  19
ATOM     18  F   UNL     1      33.253  -6.585 -19.419  0.00  0.00    -0.204 F 
ATOM     19  C   UNL     1      31.614  -9.443 -21.907  0.00  0.00    +0.147 C 
ATOM     20  C   UNL     1      31.741  -9.698 -20.542  0.00  0.00    +0.040 C 
ATOM     21  C   UNL     1      32.040  -8.223 -22.432  0.00  0.00    +0.040 C 
ATOM     22  C   UNL     1      32.295  -8.733 -19.701  0.00  0.00    +0.033 C 
ATOM     23  C   UNL     1      32.594  -7.258 -21.591  0.00  0.00    +0.033 C 
ATOM     24  C   UNL     1      32.721  -7.513 -20.226  0.00  0.00    +0.140 C 
ENDBRANCH  17  19
ENDBRANCH  16  17
ENDBRANCH   9  12
BRANCH   2  25
ATOM     25  C   UNL     1      33.987 -19.764 -21.456  0.00  0.00    -0.058 C 
ATOM     26  C   UNL     1      32.743 -19.644 -20.554  0.00  0.00    -0.021 C 
ATOM     27  C   UNL     1      34.641 -20.574 -20.318  0.00  0.00    -0.021 C 
ATOM     28  C   UNL     1      33.213 -20.941 -19.864  0.00  0.00    -0.004 C 
ENDBRANCH   2  25
TORSDOF 4
ENDMDL
