MODEL 1
REMARK VINA RESULT:      -9.1      0.000      0.000
REMARK  Name = 6419718
REMARK  4 active torsions:
REMARK  status: ('A' for Active; 'I' for Inactive)
REMARK    1  A    between atoms: C_2  and  C_16
REMARK    2  A    between atoms: C_16  and  N_17
REMARK    3  A    between atoms: N_17  and  C_20
REMARK    4  A    between atoms: C_20  and  C_21
REMARK                            x       y       z     vdW  Elec       q    Type
REMARK                         _______ _______ _______ _____ _____    ______ ____
ROOT
ATOM      1  O   UNL     1      33.839 -23.786 -17.047  0.00  0.00    -0.454 OA
ATOM      2  C   UNL     1      35.410 -23.680 -14.560  0.00  0.00    -0.040 C 
ATOM      3  C   UNL     1      35.748 -22.923 -15.793  0.00  0.00    +0.029 C 
ATOM      4  C   UNL     1      34.144 -23.891 -14.149  0.00  0.00    -0.003 C 
ATOM      5  C   UNL     1      34.964 -22.997 -16.957  0.00  0.00    +0.145 C 
ATOM      6  C   UNL     1      32.921 -23.442 -14.827  0.00  0.00    +0.034 C 
ATOM      7  C   UNL     1      32.807 -23.404 -16.221  0.00  0.00    +0.145 C 
ATOM      8  C   UNL     1      36.903 -22.122 -15.841  0.00  0.00    +0.003 C 
ATOM      9  C   UNL     1      35.331 -22.322 -18.129  0.00  0.00    +0.037 C 
ATOM     10  C   UNL     1      31.800 -23.105 -14.056  0.00  0.00    +0.003 C 
ATOM     11  C   UNL     1      31.604 -23.046 -16.836  0.00  0.00    +0.037 C 
ATOM     12  C   UNL     1      37.260 -21.431 -17.002  0.00  0.00    +0.000 C 
ATOM     13  C   UNL     1      36.476 -21.533 -18.147  0.00  0.00    +0.003 C 
ATOM     14  C   UNL     1      30.602 -22.726 -14.666  0.00  0.00    +0.000 C 
ATOM     15  C   UNL     1      30.504 -22.698 -16.056  0.00  0.00    +0.003 C 
ENDROOT
BRANCH   2  16
ATOM     16  C   UNL     1      36.554 -24.204 -13.730  0.00  0.00    -0.048 C 
BRANCH  16  17
ATOM     17  N   UNL     1      36.609 -25.653 -13.755  0.00  0.00    +0.396 N 
ATOM     18  C   UNL     1      37.185 -26.176 -12.512  0.00  0.00    -0.099 C 
ATOM     19  H   UNL     1      35.653 -25.999 -13.842  0.00  0.00    -0.078 HD
BRANCH  17  20
ATOM     20  C   UNL     1      37.385 -26.128 -14.906  0.00  0.00    +0.003 C 
BRANCH  20  21
ATOM     21  C   UNL     1      38.786 -25.707 -14.804  0.00  0.00    -0.101 C 
ATOM     22  C   UNL     1      39.931 -25.358 -14.725  0.00  0.00    -0.016 C 
ENDBRANCH  20  21
ENDBRANCH  17  20
ENDBRANCH  16  17
ENDBRANCH   2  16
TORSDOF 4
ENDMDL
MODEL 2
REMARK VINA RESULT:      -8.6      2.586      5.870
REMARK  Name = 6419718
REMARK  4 active torsions:
REMARK  status: ('A' for Active; 'I' for Inactive)
REMARK    1  A    between atoms: C_2  and  C_16
REMARK    2  A    between atoms: C_16  and  N_17
REMARK    3  A    between atoms: N_17  and  C_20
REMARK    4  A    between atoms: C_20  and  C_21
REMARK                            x       y       z     vdW  Elec       q    Type
REMARK                         _______ _______ _______ _____ _____    ______ ____
ROOT
ATOM      1  O   UNL     1      35.761 -22.403 -19.114  0.00  0.00    -0.454 OA
ATOM      2  C   UNL     1      33.431 -22.891 -17.382  0.00  0.00    -0.040 C 
ATOM      3  C   UNL     1      34.798 -22.602 -16.878  0.00  0.00    +0.029 C 
ATOM      4  C   UNL     1      32.916 -22.313 -18.484  0.00  0.00    -0.003 C 
ATOM      5  C   UNL     1      35.882 -22.366 -17.741  0.00  0.00    +0.145 C 
ATOM      6  C   UNL     1      33.590 -21.347 -19.359  0.00  0.00    +0.034 C 
ATOM      7  C   UNL     1      34.959 -21.417 -19.641  0.00  0.00    +0.145 C 
ATOM      8  C   UNL     1      35.059 -22.589 -15.496  0.00  0.00    +0.003 C 
ATOM      9  C   UNL     1      37.176 -22.153 -17.249  0.00  0.00    +0.037 C 
ATOM     10  C   UNL     1      32.828 -20.355 -19.994  0.00  0.00    +0.003 C 
ATOM     11  C   UNL     1      35.557 -20.528 -20.539  0.00  0.00    +0.037 C 
ATOM     12  C   UNL     1      36.345 -22.356 -15.001  0.00  0.00    +0.000 C 
ATOM     13  C   UNL     1      37.404 -22.142 -15.877  0.00  0.00    +0.003 C 
ATOM     14  C   UNL     1      33.426 -19.451 -20.875  0.00  0.00    +0.000 C 
ATOM     15  C   UNL     1      34.789 -19.539 -21.148  0.00  0.00    +0.003 C 
ENDROOT
BRANCH   2  16
ATOM     16  C   UNL     1      32.589 -23.858 -16.590  0.00  0.00    -0.048 C 
BRANCH  16  17
ATOM     17  N   UNL     1      31.444 -23.199 -15.989  0.00  0.00    +0.396 N 
ATOM     18  C   UNL     1      31.685 -22.923 -14.569  0.00  0.00    -0.099 C 
ATOM     19  H   UNL     1      31.307 -22.313 -16.475  0.00  0.00    -0.078 HD
BRANCH  17  20
ATOM     20  C   UNL     1      30.232 -24.010 -16.144  0.00  0.00    +0.003 C 
BRANCH  20  21
ATOM     21  C   UNL     1      29.028 -23.188 -15.989  0.00  0.00    -0.101 C 
ATOM     22  C   UNL     1      28.041 -22.516 -15.868  0.00  0.00    -0.016 C 
ENDBRANCH  20  21
ENDBRANCH  17  20
ENDBRANCH  16  17
ENDBRANCH   2  16
TORSDOF 4
ENDMDL
MODEL 3
REMARK VINA RESULT:      -8.5      1.733      5.596
REMARK  Name = 6419718
REMARK  4 active torsions:
REMARK  status: ('A' for Active; 'I' for Inactive)
REMARK    1  A    between atoms: C_2  and  C_16
REMARK    2  A    between atoms: C_16  and  N_17
REMARK    3  A    between atoms: N_17  and  C_20
REMARK    4  A    between atoms: C_20  and  C_21
REMARK                            x       y       z     vdW  Elec       q    Type
REMARK                         _______ _______ _______ _____ _____    ______ ____
ROOT
ATOM      1  O   UNL     1      36.708 -22.413 -15.717  0.00  0.00    -0.454 OA
ATOM      2  C   UNL     1      34.051 -23.666 -15.910  0.00  0.00    -0.040 C 
ATOM      3  C   UNL     1      34.715 -22.943 -17.025  0.00  0.00    +0.029 C 
ATOM      4  C   UNL     1      34.721 -24.432 -15.028  0.00  0.00    -0.003 C 
ATOM      5  C   UNL     1      35.990 -22.366 -16.893  0.00  0.00    +0.145 C 
ATOM      6  C   UNL     1      36.169 -24.668 -15.000  0.00  0.00    +0.034 C 
ATOM      7  C   UNL     1      37.098 -23.677 -15.338  0.00  0.00    +0.145 C 
ATOM      8  C   UNL     1      34.060 -22.784 -18.259  0.00  0.00    +0.003 C 
ATOM      9  C   UNL     1      36.575 -21.638 -17.937  0.00  0.00    +0.037 C 
ATOM     10  C   UNL     1      36.649 -25.908 -14.554  0.00  0.00    +0.003 C 
ATOM     11  C   UNL     1      38.472 -23.909 -15.228  0.00  0.00    +0.037 C 
ATOM     12  C   UNL     1      34.650 -22.076 -19.310  0.00  0.00    +0.000 C 
ATOM     13  C   UNL     1      35.906 -21.500 -19.148  0.00  0.00    +0.003 C 
ATOM     14  C   UNL     1      38.022 -26.151 -14.464  0.00  0.00    +0.000 C 
ATOM     15  C   UNL     1      38.932 -25.151 -14.799  0.00  0.00    +0.003 C 
ENDROOT
BRANCH   2  16
ATOM     16  C   UNL     1      32.553 -23.544 -15.798  0.00  0.00    -0.048 C 
BRANCH  16  17
ATOM     17  N   UNL     1      32.104 -23.738 -14.432  0.00  0.00    +0.396 N 
ATOM     18  C   UNL     1      31.459 -25.046 -14.274  0.00  0.00    -0.099 C 
ATOM     19  H   UNL     1      32.926 -23.706 -13.828  0.00  0.00    -0.078 HD
BRANCH  17  20
ATOM     20  C   UNL     1      31.183 -22.672 -14.026  0.00  0.00    +0.003 C 
BRANCH  20  21
ATOM     21  C   UNL     1      29.991 -22.656 -14.879  0.00  0.00    -0.101 C 
ATOM     22  C   UNL     1      29.018 -22.640 -15.582  0.00  0.00    -0.016 C 
ENDBRANCH  20  21
ENDBRANCH  17  20
ENDBRANCH  16  17
ENDBRANCH   2  16
TORSDOF 4
ENDMDL
MODEL 4
REMARK VINA RESULT:      -8.2     15.046     17.866
REMARK  Name = 6419718
REMARK  4 active torsions:
REMARK  status: ('A' for Active; 'I' for Inactive)
REMARK    1  A    between atoms: C_2  and  C_16
REMARK    2  A    between atoms: C_16  and  N_17
REMARK    3  A    between atoms: N_17  and  C_20
REMARK    4  A    between atoms: C_20  and  C_21
REMARK                            x       y       z     vdW  Elec       q    Type
REMARK                         _______ _______ _______ _____ _____    ______ ____
ROOT
ATOM      1  O   UNL     1      31.796 -10.243 -23.223  0.00  0.00    -0.454 OA
ATOM      2  C   UNL     1      32.616  -7.716 -21.956  0.00  0.00    -0.040 C 
ATOM      3  C   UNL     1      32.199  -8.927 -21.205  0.00  0.00    +0.029 C 
ATOM      4  C   UNL     1      33.329  -7.766 -23.098  0.00  0.00    -0.003 C 
ATOM      5  C   UNL     1      31.823 -10.118 -21.851  0.00  0.00    +0.145 C 
ATOM      6  C   UNL     1      33.789  -8.978 -23.786  0.00  0.00    +0.034 C 
ATOM      7  C   UNL     1      33.029 -10.153 -23.827  0.00  0.00    +0.145 C 
ATOM      8  C   UNL     1      32.136  -8.907 -19.801  0.00  0.00    +0.003 C 
ATOM      9  C   UNL     1      31.377 -11.232 -21.128  0.00  0.00    +0.037 C 
ATOM     10  C   UNL     1      35.003  -8.944 -24.488  0.00  0.00    +0.003 C 
ATOM     11  C   UNL     1      33.460 -11.265 -24.555  0.00  0.00    +0.037 C 
ATOM     12  C   UNL     1      31.711 -10.024 -19.075  0.00  0.00    +0.000 C 
ATOM     13  C   UNL     1      31.328 -11.185 -19.739  0.00  0.00    +0.003 C 
ATOM     14  C   UNL     1      35.447 -10.061 -25.199  0.00  0.00    +0.000 C 
ATOM     15  C   UNL     1      34.675 -11.220 -25.233  0.00  0.00    +0.003 C 
ENDROOT
BRANCH   2  16
ATOM     16  C   UNL     1      32.236  -6.376 -21.379  0.00  0.00    -0.048 C 
BRANCH  16  17
ATOM     17  N   UNL     1      31.049  -5.839 -22.018  0.00  0.00    +0.396 N 
ATOM     18  C   UNL     1      30.522  -6.776 -23.016  0.00  0.00    -0.099 C 
ATOM     19  H   UNL     1      30.343  -5.701 -21.295  0.00  0.00    -0.078 HD
BRANCH  17  20
ATOM     20  C   UNL     1      31.333  -4.545 -22.647  0.00  0.00    +0.003 C 
BRANCH  20  21
ATOM     21  C   UNL     1      31.757  -4.720 -24.040  0.00  0.00    -0.101 C 
ATOM     22  C   UNL     1      32.108  -4.861 -25.179  0.00  0.00    -0.016 C 
ENDBRANCH  20  21
ENDBRANCH  17  20
ENDBRANCH  16  17
ENDBRANCH   2  16
TORSDOF 4
ENDMDL
MODEL 5
REMARK VINA RESULT:      -8.2     14.268     16.638
REMARK  Name = 6419718
REMARK  4 active torsions:
REMARK  status: ('A' for Active; 'I' for Inactive)
REMARK    1  A    between atoms: C_2  and  C_16
REMARK    2  A    between atoms: C_16  and  N_17
REMARK    3  A    between atoms: N_17  and  C_20
REMARK    4  A    between atoms: C_20  and  C_21
REMARK                            x       y       z     vdW  Elec       q    Type
REMARK                         _______ _______ _______ _____ _____    ______ ____
ROOT
ATOM      1  O   UNL     1      32.970  -7.827 -21.367  0.00  0.00    -0.454 OA
ATOM      2  C   UNL     1      32.156  -9.921 -23.269  0.00  0.00    -0.040 C 
ATOM      3  C   UNL     1      31.879  -9.966 -21.810  0.00  0.00    +0.029 C 
ATOM      4  C   UNL     1      32.125  -8.783 -23.989  0.00  0.00    -0.003 C 
ATOM      5  C   UNL     1      32.279  -8.940 -20.938  0.00  0.00    +0.145 C 
ATOM      6  C   UNL     1      31.841  -7.436 -23.479  0.00  0.00    +0.034 C 
ATOM      7  C   UNL     1      32.260  -7.008 -22.215  0.00  0.00    +0.145 C 
ATOM      8  C   UNL     1      31.226 -11.076 -21.244  0.00  0.00    +0.003 C 
ATOM      9  C   UNL     1      32.061  -9.027 -19.557  0.00  0.00    +0.037 C 
ATOM     10  C   UNL     1      31.185  -6.517 -24.312  0.00  0.00    +0.003 C 
ATOM     11  C   UNL     1      32.041  -5.695 -21.789  0.00  0.00    +0.037 C 
ATOM     12  C   UNL     1      30.988 -11.157 -19.869  0.00  0.00    +0.000 C 
ATOM     13  C   UNL     1      31.409 -10.134 -19.025  0.00  0.00    +0.003 C 
ATOM     14  C   UNL     1      30.945  -5.210 -23.882  0.00  0.00    +0.000 C 
ATOM     15  C   UNL     1      31.374  -4.799 -22.622  0.00  0.00    +0.003 C 
ENDROOT
BRANCH   2  16
ATOM     16  C   UNL     1      32.455 -11.227 -23.960  0.00  0.00    -0.048 C 
BRANCH  16  17
ATOM     17  N   UNL     1      33.847 -11.604 -23.805  0.00  0.00    +0.396 N 
ATOM     18  C   UNL     1      34.679 -10.968 -24.832  0.00  0.00    -0.099 C 
ATOM     19  H   UNL     1      34.156 -11.280 -22.888  0.00  0.00    -0.078 HD
BRANCH  17  20
ATOM     20  C   UNL     1      34.005 -13.061 -23.863  0.00  0.00    +0.003 C 
BRANCH  20  21
ATOM     21  C   UNL     1      33.281 -13.711 -22.766  0.00  0.00    -0.101 C 
ATOM     22  C   UNL     1      32.689 -14.248 -21.871  0.00  0.00    -0.016 C 
ENDBRANCH  20  21
ENDBRANCH  17  20
ENDBRANCH  16  17
ENDBRANCH   2  16
TORSDOF 4
ENDMDL
MODEL 6
REMARK VINA RESULT:      -8.2      1.420      2.204
REMARK  Name = 6419718
REMARK  4 active torsions:
REMARK  status: ('A' for Active; 'I' for Inactive)
REMARK    1  A    between atoms: C_2  and  C_16
REMARK    2  A    between atoms: C_16  and  N_17
REMARK    3  A    between atoms: N_17  and  C_20
REMARK    4  A    between atoms: C_20  and  C_21
REMARK                            x       y       z     vdW  Elec       q    Type
REMARK                         _______ _______ _______ _____ _____    ______ ____
ROOT
ATOM      1  O   UNL     1      32.616 -23.701 -17.594  0.00  0.00    -0.454 OA
ATOM      2  C   UNL     1      34.775 -23.875 -15.600  0.00  0.00    -0.040 C 
ATOM      3  C   UNL     1      34.847 -23.059 -16.839  0.00  0.00    +0.029 C 
ATOM      4  C   UNL     1      33.643 -24.027 -14.885  0.00  0.00    -0.003 C 
ATOM      5  C   UNL     1      33.789 -22.997 -17.761  0.00  0.00    +0.145 C 
ATOM      6  C   UNL     1      32.330 -23.451 -15.197  0.00  0.00    +0.034 C 
ATOM      7  C   UNL     1      31.865 -23.308 -16.509  0.00  0.00    +0.145 C 
ATOM      8  C   UNL     1      36.014 -22.336 -17.147  0.00  0.00    +0.003 C 
ATOM      9  C   UNL     1      33.898 -22.269 -18.953  0.00  0.00    +0.037 C 
ATOM     10  C   UNL     1      31.475 -23.094 -14.144  0.00  0.00    +0.003 C 
ATOM     11  C   UNL     1      30.579 -22.828 -16.771  0.00  0.00    +0.037 C 
ATOM     12  C   UNL     1      36.118 -21.591 -18.325  0.00  0.00    +0.000 C 
ATOM     13  C   UNL     1      35.062 -21.560 -19.230  0.00  0.00    +0.003 C 
ATOM     14  C   UNL     1      30.197 -22.593 -14.402  0.00  0.00    +0.000 C 
ATOM     15  C   UNL     1      29.749 -22.461 -15.714  0.00  0.00    +0.003 C 
ENDROOT
BRANCH   2  16
ATOM     16  C   UNL     1      36.046 -24.531 -15.125  0.00  0.00    -0.048 C 
BRANCH  16  17
ATOM     17  N   UNL     1      36.438 -24.044 -13.816  0.00  0.00    +0.396 N 
ATOM     18  C   UNL     1      37.726 -23.345 -13.882  0.00  0.00    -0.099 C 
ATOM     19  H   UNL     1      35.725 -23.384 -13.504  0.00  0.00    -0.078 HD
BRANCH  17  20
ATOM     20  C   UNL     1      36.514 -25.144 -12.848  0.00  0.00    +0.003 C 
BRANCH  20  21
ATOM     21  C   UNL     1      35.982 -24.733 -11.545  0.00  0.00    -0.101 C 
ATOM     22  C   UNL     1      35.547 -24.392 -10.480  0.00  0.00    -0.016 C 
ENDBRANCH  20  21
ENDBRANCH  17  20
ENDBRANCH  16  17
ENDBRANCH   2  16
TORSDOF 4
ENDMDL
MODEL 7
REMARK VINA RESULT:      -8.1     12.028     14.284
REMARK  Name = 6419718
REMARK  4 active torsions:
REMARK  status: ('A' for Active; 'I' for Inactive)
REMARK    1  A    between atoms: C_2  and  C_16
REMARK    2  A    between atoms: C_16  and  N_17
REMARK    3  A    between atoms: N_17  and  C_20
REMARK    4  A    between atoms: C_20  and  C_21
REMARK                            x       y       z     vdW  Elec       q    Type
REMARK                         _______ _______ _______ _____ _____    ______ ____
ROOT
ATOM      1  O   UNL     1      31.777  -9.925 -22.900  0.00  0.00    -0.454 OA
ATOM      2  C   UNL     1      32.861 -12.506 -23.809  0.00  0.00    -0.040 C 
ATOM      3  C   UNL     1      33.530 -11.197 -24.027  0.00  0.00    +0.029 C 
ATOM      4  C   UNL     1      32.176 -12.805 -22.688  0.00  0.00    -0.003 C 
ATOM      5  C   UNL     1      32.980  -9.988 -23.569  0.00  0.00    +0.145 C 
ATOM      6  C   UNL     1      31.963 -11.922 -21.535  0.00  0.00    +0.034 C 
ATOM      7  C   UNL     1      31.775 -10.542 -21.671  0.00  0.00    +0.145 C 
ATOM      8  C   UNL     1      34.739 -11.127 -24.742  0.00  0.00    +0.003 C 
ATOM      9  C   UNL     1      33.596  -8.758 -23.834  0.00  0.00    +0.037 C 
ATOM     10  C   UNL     1      31.875 -12.485 -20.253  0.00  0.00    +0.003 C 
ATOM     11  C   UNL     1      31.497  -9.740 -20.560  0.00  0.00    +0.037 C 
ATOM     12  C   UNL     1      35.366  -9.903 -24.991  0.00  0.00    +0.000 C 
ATOM     13  C   UNL     1      34.793  -8.719 -24.540  0.00  0.00    +0.003 C 
ATOM     14  C   UNL     1      31.619 -11.683 -19.138  0.00  0.00    +0.000 C 
ATOM     15  C   UNL     1      31.429 -10.312 -19.293  0.00  0.00    +0.003 C 
ENDROOT
BRANCH   2  16
ATOM     16  C   UNL     1      32.992 -13.543 -24.896  0.00  0.00    -0.048 C 
BRANCH  16  17
ATOM     17  N   UNL     1      33.382 -14.832 -24.356  0.00  0.00    +0.396 N 
ATOM     18  C   UNL     1      34.501 -14.690 -23.419  0.00  0.00    -0.099 C 
ATOM     19  H   UNL     1      32.581 -15.212 -23.852  0.00  0.00    -0.078 HD
BRANCH  17  20
ATOM     20  C   UNL     1      33.743 -15.762 -25.431  0.00  0.00    +0.003 C 
BRANCH  20  21
ATOM     21  C   UNL     1      34.312 -16.998 -24.886  0.00  0.00    -0.101 C 
ATOM     22  C   UNL     1      34.781 -18.007 -24.437  0.00  0.00    -0.016 C 
ENDBRANCH  20  21
ENDBRANCH  17  20
ENDBRANCH  16  17
ENDBRANCH   2  16
TORSDOF 4
ENDMDL
MODEL 8
REMARK VINA RESULT:      -8.0     10.950     13.408
REMARK  Name = 6419718
REMARK  4 active torsions:
REMARK  status: ('A' for Active; 'I' for Inactive)
REMARK    1  A    between atoms: C_2  and  C_16
REMARK    2  A    between atoms: C_16  and  N_17
REMARK    3  A    between atoms: N_17  and  C_20
REMARK    4  A    between atoms: C_20  and  C_21
REMARK                            x       y       z     vdW  Elec       q    Type
REMARK                         _______ _______ _______ _____ _____    ______ ____
ROOT
ATOM      1  O   UNL     1      33.992 -11.630 -24.051  0.00  0.00    -0.454 OA
ATOM      2  C   UNL     1      32.827 -13.672 -22.279  0.00  0.00    -0.040 C 
ATOM      3  C   UNL     1      32.396 -12.251 -22.309  0.00  0.00    +0.029 C 
ATOM      4  C   UNL     1      33.194 -14.353 -23.382  0.00  0.00    -0.003 C 
ATOM      5  C   UNL     1      32.974 -11.309 -23.178  0.00  0.00    +0.145 C 
ATOM      6  C   UNL     1      33.248 -13.831 -24.752  0.00  0.00    +0.034 C 
ATOM      7  C   UNL     1      33.635 -12.517 -25.040  0.00  0.00    +0.145 C 
ATOM      8  C   UNL     1      31.401 -11.790 -21.429  0.00  0.00    +0.003 C 
ATOM      9  C   UNL     1      32.596  -9.960 -23.152  0.00  0.00    +0.037 C 
ATOM     10  C   UNL     1      32.970 -14.694 -25.822  0.00  0.00    +0.003 C 
ATOM     11  C   UNL     1      33.751 -12.072 -26.360  0.00  0.00    +0.037 C 
ATOM     12  C   UNL     1      31.006 -10.449 -21.414  0.00  0.00    +0.000 C 
ATOM     13  C   UNL     1      31.606  -9.534 -22.273  0.00  0.00    +0.003 C 
ATOM     14  C   UNL     1      33.064 -14.247 -27.142  0.00  0.00    +0.000 C 
ATOM     15  C   UNL     1      33.455 -12.937 -27.410  0.00  0.00    +0.003 C 
ENDROOT
BRANCH   2  16
ATOM     16  C   UNL     1      32.818 -14.372 -20.944  0.00  0.00    -0.048 C 
BRANCH  16  17
ATOM     17  N   UNL     1      33.162 -15.775 -21.078  0.00  0.00    +0.396 N 
ATOM     18  C   UNL     1      32.109 -16.628 -20.515  0.00  0.00    -0.099 C 
ATOM     19  H   UNL     1      33.249 -15.980 -22.074  0.00  0.00    -0.078 HD
BRANCH  17  20
ATOM     20  C   UNL     1      34.444 -16.065 -20.427  0.00  0.00    +0.003 C 
BRANCH  20  21
ATOM     21  C   UNL     1      35.106 -17.210 -21.059  0.00  0.00    -0.101 C 
ATOM     22  C   UNL     1      35.652 -18.144 -21.578  0.00  0.00    -0.016 C 
ENDBRANCH  20  21
ENDBRANCH  17  20
ENDBRANCH  16  17
ENDBRANCH   2  16
TORSDOF 4
ENDMDL
MODEL 9
REMARK VINA RESULT:      -7.9     14.382     17.044
REMARK  Name = 6419718
REMARK  4 active torsions:
REMARK  status: ('A' for Active; 'I' for Inactive)
REMARK    1  A    between atoms: C_2  and  C_16
REMARK    2  A    between atoms: C_16  and  N_17
REMARK    3  A    between atoms: N_17  and  C_20
REMARK    4  A    between atoms: C_20  and  C_21
REMARK                            x       y       z     vdW  Elec       q    Type
REMARK                         _______ _______ _______ _____ _____    ______ ____
ROOT
ATOM      1  O   UNL     1      34.641  -8.793 -23.863  0.00  0.00    -0.454 OA
ATOM      2  C   UNL     1      32.147 -10.014 -22.886  0.00  0.00    -0.040 C 
ATOM      3  C   UNL     1      32.265  -8.603 -23.334  0.00  0.00    +0.029 C 
ATOM      4  C   UNL     1      32.812 -11.029 -23.470  0.00  0.00    -0.003 C 
ATOM      5  C   UNL     1      33.474  -8.062 -23.802  0.00  0.00    +0.145 C 
ATOM      6  C   UNL     1      33.747 -10.926 -24.597  0.00  0.00    +0.034 C 
ATOM      7  C   UNL     1      34.612  -9.838 -24.758  0.00  0.00    +0.145 C 
ATOM      8  C   UNL     1      31.154  -7.742 -23.270  0.00  0.00    +0.003 C 
ATOM      9  C   UNL     1      33.580  -6.713 -24.166  0.00  0.00    +0.037 C 
ATOM     10  C   UNL     1      33.829 -11.985 -25.513  0.00  0.00    +0.003 C 
ATOM     11  C   UNL     1      35.544  -9.805 -25.799  0.00  0.00    +0.037 C 
ATOM     12  C   UNL     1      31.251  -6.400 -23.652  0.00  0.00    +0.000 C 
ATOM     13  C   UNL     1      32.465  -5.885 -24.096  0.00  0.00    +0.003 C 
ATOM     14  C   UNL     1      34.745 -11.946 -26.567  0.00  0.00    +0.000 C 
ATOM     15  C   UNL     1      35.602 -10.857 -26.709  0.00  0.00    +0.003 C 
ENDROOT
BRANCH   2  16
ATOM     16  C   UNL     1      31.212 -10.303 -21.739  0.00  0.00    -0.048 C 
BRANCH  16  17
ATOM     17  N   UNL     1      31.940 -10.559 -20.511  0.00  0.00    +0.396 N 
ATOM     18  C   UNL     1      31.683 -11.918 -20.023  0.00  0.00    -0.099 C 
ATOM     19  H   UNL     1      32.935 -10.469 -20.716  0.00  0.00    -0.078 HD
BRANCH  17  20
ATOM     20  C   UNL     1      31.584  -9.580 -19.478  0.00  0.00    +0.003 C 
BRANCH  20  21
ATOM     21  C   UNL     1      32.170  -8.269 -19.774  0.00  0.00    -0.101 C 
ATOM     22  C   UNL     1      32.645  -7.194 -20.018  0.00  0.00    -0.016 C 
ENDBRANCH  20  21
ENDBRANCH  17  20
ENDBRANCH  16  17
ENDBRANCH   2  16
TORSDOF 4
ENDMDL
