MODEL 1
REMARK VINA RESULT:      -9.7      0.000      0.000
REMARK  Name = 5282203
REMARK  4 active torsions:
REMARK  status: ('A' for Active; 'I' for Inactive)
REMARK    1  A    between atoms: C_1  and  C_14
REMARK    2  A    between atoms: C_2  and  C_15
REMARK    3  A    between atoms: C_15  and  C_18
REMARK    4  A    between atoms: C_18  and  O_19
REMARK                            x       y       z     vdW  Elec       q    Type
REMARK                         _______ _______ _______ _____ _____    ______ ____
ROOT
ATOM      1  C   UNL     1      34.546 -19.146 -22.229  0.00  0.00    -0.000 C 
ATOM      2  C   UNL     1      34.632 -20.727 -19.953  0.00  0.00    -0.012 C 
ATOM      3  C   UNL     1      33.360 -19.531 -21.622  0.00  0.00    -0.000 C 
ATOM      4  C   UNL     1      35.774 -19.538 -21.719  0.00  0.00    -0.000 C 
ATOM      5  C   UNL     1      33.404 -20.326 -20.477  0.00  0.00    -0.004 C 
ATOM      6  C   UNL     1      35.818 -20.332 -20.574  0.00  0.00    -0.004 C 
ENDROOT
BRANCH   1  14
ATOM      7  O   UNL     1      34.960 -16.783 -25.789  0.00  0.00    -0.292 OA
ATOM      8  C   UNL     1      33.591 -14.926 -22.336  0.00  0.00    +0.005 C 
ATOM      9  C   UNL     1      33.847 -14.130 -23.611  0.00  0.00    +0.008 C 
ATOM     10  C   UNL     1      34.553 -16.107 -22.233  0.00  0.00    +0.029 C 
ATOM     11  C   UNL     1      33.672 -14.991 -24.855  0.00  0.00    +0.069 C 
ATOM     12  C   UNL     1      34.512 -16.968 -23.459  0.00  0.00    +0.012 C 
ATOM     13  C   UNL     1      34.458 -16.284 -24.784  0.00  0.00    +0.169 C 
ATOM     14  C   UNL     1      34.499 -18.307 -23.437  0.00  0.00    -0.001 C 
ENDBRANCH   1  14
BRANCH   2  15
ATOM     15  C   UNL     1      34.678 -21.577 -18.728  0.00  0.00    +0.121 C 
ATOM     16  C   UNL     1      36.104 -21.994 -18.316  0.00  0.00    +0.016 C 
BRANCH  15  18
ATOM     17  O   UNL     1      34.091 -23.808 -19.530  0.00  0.00    -0.250 OA
ATOM     18  C   UNL     1      33.806 -22.832 -18.849  0.00  0.00    +0.317 C 
BRANCH  18  19
ATOM     19  O   UNL     1      32.660 -22.757 -18.122  0.00  0.00    -0.480 OA
ATOM     20  H   UNL     1      32.702 -22.639 -17.193  0.00  0.00    +0.295 HD
ENDBRANCH  18  19
ENDBRANCH  15  18
ENDBRANCH   2  15
TORSDOF 4
ENDMDL
MODEL 2
REMARK VINA RESULT:      -9.6      1.701      7.255
REMARK  Name = 5282203
REMARK  4 active torsions:
REMARK  status: ('A' for Active; 'I' for Inactive)
REMARK    1  A    between atoms: C_1  and  C_14
REMARK    2  A    between atoms: C_2  and  C_15
REMARK    3  A    between atoms: C_15  and  C_18
REMARK    4  A    between atoms: C_18  and  O_19
REMARK                            x       y       z     vdW  Elec       q    Type
REMARK                         _______ _______ _______ _____ _____    ______ ____
ROOT
ATOM      1  C   UNL     1      35.340 -17.854 -21.861  0.00  0.00    -0.000 C 
ATOM      2  C   UNL     1      34.401 -15.708 -23.344  0.00  0.00    -0.012 C 
ATOM      3  C   UNL     1      35.357 -17.925 -23.245  0.00  0.00    -0.000 C 
ATOM      4  C   UNL     1      34.862 -16.731 -21.204  0.00  0.00    -0.000 C 
ATOM      5  C   UNL     1      34.884 -16.845 -23.991  0.00  0.00    -0.004 C 
ATOM      6  C   UNL     1      34.391 -15.651 -21.949  0.00  0.00    -0.004 C 
ENDROOT
BRANCH   1  14
ATOM      7  O   UNL     1      36.980 -21.386 -20.053  0.00  0.00    -0.292 OA
ATOM      8  C   UNL     1      32.895 -20.719 -19.729  0.00  0.00    +0.005 C 
ATOM      9  C   UNL     1      33.530 -21.996 -19.189  0.00  0.00    +0.008 C 
ATOM     10  C   UNL     1      33.651 -20.214 -20.954  0.00  0.00    +0.029 C 
ATOM     11  C   UNL     1      34.982 -21.773 -18.787  0.00  0.00    +0.069 C 
ATOM     12  C   UNL     1      35.114 -20.046 -20.675  0.00  0.00    +0.012 C 
ATOM     13  C   UNL     1      35.795 -21.111 -19.881  0.00  0.00    +0.169 C 
ATOM     14  C   UNL     1      35.840 -18.994 -21.074  0.00  0.00    -0.001 C 
ENDBRANCH   1  14
BRANCH   2  15
ATOM     15  C   UNL     1      33.897 -14.554 -24.142  0.00  0.00    +0.121 C 
ATOM     16  C   UNL     1      32.811 -13.729 -23.422  0.00  0.00    +0.016 C 
BRANCH  15  18
ATOM     17  O   UNL     1      33.924 -15.789 -26.249  0.00  0.00    -0.250 OA
ATOM     18  C   UNL     1      33.373 -14.976 -25.520  0.00  0.00    +0.317 C 
BRANCH  18  19
ATOM     19  O   UNL     1      32.220 -14.344 -25.868  0.00  0.00    -0.480 OA
ATOM     20  H   UNL     1      31.408 -14.812 -25.855  0.00  0.00    +0.295 HD
ENDBRANCH  18  19
ENDBRANCH  15  18
ENDBRANCH   2  15
TORSDOF 4
ENDMDL
MODEL 3
REMARK VINA RESULT:      -9.5      2.289      7.542
REMARK  Name = 5282203
REMARK  4 active torsions:
REMARK  status: ('A' for Active; 'I' for Inactive)
REMARK    1  A    between atoms: C_1  and  C_14
REMARK    2  A    between atoms: C_2  and  C_15
REMARK    3  A    between atoms: C_15  and  C_18
REMARK    4  A    between atoms: C_18  and  O_19
REMARK                            x       y       z     vdW  Elec       q    Type
REMARK                         _______ _______ _______ _____ _____    ______ ____
ROOT
ATOM      1  C   UNL     1      34.879 -17.220 -22.001  0.00  0.00    -0.000 C 
ATOM      2  C   UNL     1      33.570 -15.161 -23.318  0.00  0.00    -0.012 C 
ATOM      3  C   UNL     1      34.938 -17.151 -23.384  0.00  0.00    -0.000 C 
ATOM      4  C   UNL     1      34.176 -16.279 -21.264  0.00  0.00    -0.000 C 
ATOM      5  C   UNL     1      34.280 -16.115 -24.046  0.00  0.00    -0.004 C 
ATOM      6  C   UNL     1      33.519 -15.243 -21.926  0.00  0.00    -0.004 C 
ENDROOT
BRANCH   1  14
ATOM      7  O   UNL     1      37.101 -20.558 -20.467  0.00  0.00    -0.292 OA
ATOM      8  C   UNL     1      32.977 -20.545 -19.985  0.00  0.00    +0.005 C 
ATOM      9  C   UNL     1      33.818 -21.738 -19.546  0.00  0.00    +0.008 C 
ATOM     10  C   UNL     1      33.602 -19.859 -21.197  0.00  0.00    +0.029 C 
ATOM     11  C   UNL     1      35.234 -21.319 -19.172  0.00  0.00    +0.069 C 
ATOM     12  C   UNL     1      35.032 -19.486 -20.951  0.00  0.00    +0.012 C 
ATOM     13  C   UNL     1      35.895 -20.478 -20.245  0.00  0.00    +0.169 C 
ATOM     14  C   UNL     1      35.574 -18.313 -21.303  0.00  0.00    -0.001 C 
ENDBRANCH   1  14
BRANCH   2  15
ATOM     15  C   UNL     1      32.867 -14.053 -24.026  0.00  0.00    +0.121 C 
ATOM     16  C   UNL     1      33.115 -14.034 -25.548  0.00  0.00    +0.016 C 
BRANCH  15  18
ATOM     17  O   UNL     1      32.510 -12.074 -22.641  0.00  0.00    -0.250 OA
ATOM     18  C   UNL     1      33.207 -12.675 -23.447  0.00  0.00    +0.317 C 
BRANCH  18  19
ATOM     19  O   UNL     1      34.373 -12.167 -23.928  0.00  0.00    -0.480 OA
ATOM     20  H   UNL     1      35.107 -12.057 -23.355  0.00  0.00    +0.295 HD
ENDBRANCH  18  19
ENDBRANCH  15  18
ENDBRANCH   2  15
TORSDOF 4
ENDMDL
MODEL 4
REMARK VINA RESULT:      -9.5      1.766      2.447
REMARK  Name = 5282203
REMARK  4 active torsions:
REMARK  status: ('A' for Active; 'I' for Inactive)
REMARK    1  A    between atoms: C_1  and  C_14
REMARK    2  A    between atoms: C_2  and  C_15
REMARK    3  A    between atoms: C_15  and  C_18
REMARK    4  A    between atoms: C_18  and  O_19
REMARK                            x       y       z     vdW  Elec       q    Type
REMARK                         _______ _______ _______ _____ _____    ______ ____
ROOT
ATOM      1  C   UNL     1      34.845 -18.526 -21.503  0.00  0.00    -0.000 C 
ATOM      2  C   UNL     1      35.181 -20.822 -19.985  0.00  0.00    -0.012 C 
ATOM      3  C   UNL     1      36.126 -18.947 -21.181  0.00  0.00    -0.000 C 
ATOM      4  C   UNL     1      33.729 -19.231 -21.080  0.00  0.00    -0.000 C 
ATOM      5  C   UNL     1      36.295 -20.102 -20.417  0.00  0.00    -0.004 C 
ATOM      6  C   UNL     1      33.898 -20.386 -20.317  0.00  0.00    -0.004 C 
ENDROOT
BRANCH   1  14
ATOM      7  O   UNL     1      34.878 -14.895 -23.793  0.00  0.00    -0.292 OA
ATOM      8  C   UNL     1      32.606 -15.017 -20.320  0.00  0.00    +0.005 C 
ATOM      9  C   UNL     1      32.735 -13.733 -21.133  0.00  0.00    +0.008 C 
ATOM     10  C   UNL     1      33.878 -15.854 -20.424  0.00  0.00    +0.029 C 
ATOM     11  C   UNL     1      32.986 -14.025 -22.606  0.00  0.00    +0.069 C 
ATOM     12  C   UNL     1      34.254 -16.120 -21.851  0.00  0.00    +0.012 C 
ATOM     13  C   UNL     1      34.132 -14.993 -22.821  0.00  0.00    +0.169 C 
ATOM     14  C   UNL     1      34.668 -17.308 -22.309  0.00  0.00    -0.001 C 
ENDBRANCH   1  14
BRANCH   2  15
ATOM     15  C   UNL     1      35.363 -22.057 -19.169  0.00  0.00    +0.121 C 
ATOM     16  C   UNL     1      34.039 -22.749 -18.789  0.00  0.00    +0.016 C 
BRANCH  15  18
ATOM     17  O   UNL     1      36.972 -20.885 -17.754  0.00  0.00    -0.250 OA
ATOM     18  C   UNL     1      36.179 -21.806 -17.896  0.00  0.00    +0.317 C 
BRANCH  18  19
ATOM     19  O   UNL     1      35.943 -22.725 -16.922  0.00  0.00    -0.480 OA
ATOM     20  H   UNL     1      35.548 -23.547 -17.139  0.00  0.00    +0.295 HD
ENDBRANCH  18  19
ENDBRANCH  15  18
ENDBRANCH   2  15
TORSDOF 4
ENDMDL
MODEL 5
REMARK VINA RESULT:      -9.1      2.418      7.960
REMARK  Name = 5282203
REMARK  4 active torsions:
REMARK  status: ('A' for Active; 'I' for Inactive)
REMARK    1  A    between atoms: C_1  and  C_14
REMARK    2  A    between atoms: C_2  and  C_15
REMARK    3  A    between atoms: C_15  and  C_18
REMARK    4  A    between atoms: C_18  and  O_19
REMARK                            x       y       z     vdW  Elec       q    Type
REMARK                         _______ _______ _______ _____ _____    ______ ____
ROOT
ATOM      1  C   UNL     1      34.357 -21.711 -18.970  0.00  0.00    -0.000 C 
ATOM      2  C   UNL     1      34.408 -19.870 -21.042  0.00  0.00    -0.012 C 
ATOM      3  C   UNL     1      33.169 -21.145 -19.406  0.00  0.00    -0.000 C 
ATOM      4  C   UNL     1      35.570 -21.373 -19.550  0.00  0.00    -0.000 C 
ATOM      5  C   UNL     1      33.195 -20.219 -20.449  0.00  0.00    -0.004 C 
ATOM      6  C   UNL     1      35.596 -20.448 -20.593  0.00  0.00    -0.004 C 
ENDROOT
BRANCH   1  14
ATOM      7  O   UNL     1      33.889 -24.233 -15.527  0.00  0.00    -0.292 OA
ATOM      8  C   UNL     1      37.610 -22.534 -16.237  0.00  0.00    +0.005 C 
ATOM      9  C   UNL     1      37.350 -23.366 -14.986  0.00  0.00    +0.008 C 
ATOM     10  C   UNL     1      36.345 -21.799 -16.672  0.00  0.00    +0.029 C 
ATOM     11  C   UNL     1      36.260 -24.404 -15.220  0.00  0.00    +0.069 C 
ATOM     12  C   UNL     1      35.189 -22.737 -16.844  0.00  0.00    +0.012 C 
ATOM     13  C   UNL     1      35.003 -23.804 -15.818  0.00  0.00    +0.169 C 
ATOM     14  C   UNL     1      34.329 -22.689 -17.870  0.00  0.00    -0.001 C 
ENDBRANCH   1  14
BRANCH   2  15
ATOM     15  C   UNL     1      34.435 -18.881 -22.158  0.00  0.00    +0.121 C 
ATOM     16  C   UNL     1      34.977 -19.453 -23.482  0.00  0.00    +0.016 C 
BRANCH  15  18
ATOM     17  O   UNL     1      35.201 -17.073 -20.704  0.00  0.00    -0.250 OA
ATOM     18  C   UNL     1      35.222 -17.614 -21.802  0.00  0.00    +0.317 C 
BRANCH  18  19
ATOM     19  O   UNL     1      35.954 -17.132 -22.841  0.00  0.00    -0.480 OA
ATOM     20  H   UNL     1      35.553 -16.570 -23.475  0.00  0.00    +0.295 HD
ENDBRANCH  18  19
ENDBRANCH  15  18
ENDBRANCH   2  15
TORSDOF 4
ENDMDL
MODEL 6
REMARK VINA RESULT:      -9.1      2.382      3.971
REMARK  Name = 5282203
REMARK  4 active torsions:
REMARK  status: ('A' for Active; 'I' for Inactive)
REMARK    1  A    between atoms: C_1  and  C_14
REMARK    2  A    between atoms: C_2  and  C_15
REMARK    3  A    between atoms: C_15  and  C_18
REMARK    4  A    between atoms: C_18  and  O_19
REMARK                            x       y       z     vdW  Elec       q    Type
REMARK                         _______ _______ _______ _____ _____    ______ ____
ROOT
ATOM      1  C   UNL     1      34.356 -15.687 -22.722  0.00  0.00    -0.000 C 
ATOM      2  C   UNL     1      34.441 -18.317 -21.849  0.00  0.00    -0.012 C 
ATOM      3  C   UNL     1      34.981 -16.644 -23.507  0.00  0.00    -0.000 C 
ATOM      4  C   UNL     1      33.774 -16.020 -21.509  0.00  0.00    -0.000 C 
ATOM      5  C   UNL     1      35.023 -17.967 -23.067  0.00  0.00    -0.004 C 
ATOM      6  C   UNL     1      33.815 -17.342 -21.071  0.00  0.00    -0.004 C 
ENDROOT
BRANCH   1  14
ATOM      7  O   UNL     1      33.796 -11.550 -23.724  0.00  0.00    -0.292 OA
ATOM      8  C   UNL     1      33.332 -14.387 -26.721  0.00  0.00    +0.005 C 
ATOM      9  C   UNL     1      33.060 -12.909 -26.985  0.00  0.00    +0.008 C 
ATOM     10  C   UNL     1      33.000 -14.748 -25.276  0.00  0.00    +0.029 C 
ATOM     11  C   UNL     1      33.890 -12.015 -26.074  0.00  0.00    +0.069 C 
ATOM     12  C   UNL     1      33.710 -13.857 -24.302  0.00  0.00    +0.012 C 
ATOM     13  C   UNL     1      33.769 -12.399 -24.613  0.00  0.00    +0.169 C 
ATOM     14  C   UNL     1      34.311 -14.291 -23.187  0.00  0.00    -0.001 C 
ENDBRANCH   1  14
BRANCH   2  15
ATOM     15  C   UNL     1      34.486 -19.731 -21.381  0.00  0.00    +0.121 C 
ATOM     16  C   UNL     1      33.260 -20.147 -20.543  0.00  0.00    +0.016 C 
BRANCH  15  18
ATOM     17  O   UNL     1      36.633 -19.232 -20.328  0.00  0.00    -0.250 OA
ATOM     18  C   UNL     1      35.761 -20.050 -20.592  0.00  0.00    +0.317 C 
BRANCH  18  19
ATOM     19  O   UNL     1      35.842 -21.353 -20.210  0.00  0.00    -0.480 OA
ATOM     20  H   UNL     1      36.412 -21.601 -19.508  0.00  0.00    +0.295 HD
ENDBRANCH  18  19
ENDBRANCH  15  18
ENDBRANCH   2  15
TORSDOF 4
ENDMDL
MODEL 7
REMARK VINA RESULT:      -8.9      4.280      7.319
REMARK  Name = 5282203
REMARK  4 active torsions:
REMARK  status: ('A' for Active; 'I' for Inactive)
REMARK    1  A    between atoms: C_1  and  C_14
REMARK    2  A    between atoms: C_2  and  C_15
REMARK    3  A    between atoms: C_15  and  C_18
REMARK    4  A    between atoms: C_18  and  O_19
REMARK                            x       y       z     vdW  Elec       q    Type
REMARK                         _______ _______ _______ _____ _____    ______ ____
ROOT
ATOM      1  C   UNL     1      35.415 -23.011 -16.477  0.00  0.00    -0.000 C 
ATOM      2  C   UNL     1      37.119 -23.914 -14.485  0.00  0.00    -0.012 C 
ATOM      3  C   UNL     1      36.685 -22.466 -16.370  0.00  0.00    -0.000 C 
ATOM      4  C   UNL     1      34.980 -23.998 -15.606  0.00  0.00    -0.000 C 
ATOM      5  C   UNL     1      37.543 -22.921 -15.368  0.00  0.00    -0.004 C 
ATOM      6  C   UNL     1      35.838 -24.453 -14.605  0.00  0.00    -0.004 C 
ENDROOT
BRANCH   1  14
ATOM      7  O   UNL     1      32.753 -22.146 -19.732  0.00  0.00    -0.292 OA
ATOM      8  C   UNL     1      36.505 -20.365 -19.724  0.00  0.00    +0.005 C 
ATOM      9  C   UNL     1      35.544 -20.174 -20.892  0.00  0.00    +0.008 C 
ATOM     10  C   UNL     1      36.315 -21.739 -19.087  0.00  0.00    +0.029 C 
ATOM     11  C   UNL     1      34.092 -20.291 -20.449  0.00  0.00    +0.069 C 
ATOM     12  C   UNL     1      34.889 -21.979 -18.695  0.00  0.00    +0.012 C 
ATOM     13  C   UNL     1      33.826 -21.551 -19.651  0.00  0.00    +0.169 C 
ATOM     14  C   UNL     1      34.511 -22.532 -17.535  0.00  0.00    -0.001 C 
ENDBRANCH   1  14
BRANCH   2  15
ATOM     15  C   UNL     1      38.037 -24.399 -13.414  0.00  0.00    +0.121 C 
ATOM     16  C   UNL     1      37.953 -25.919 -13.167  0.00  0.00    +0.016 C 
BRANCH  15  18
ATOM     17  O   UNL     1      38.081 -22.481 -11.903  0.00  0.00    -0.250 OA
ATOM     18  C   UNL     1      37.830 -23.665 -12.084  0.00  0.00    +0.317 C 
BRANCH  18  19
ATOM     19  O   UNL     1      37.340 -24.468 -11.102  0.00  0.00    -0.480 OA
ATOM     20  H   UNL     1      37.540 -25.384 -11.103  0.00  0.00    +0.295 HD
ENDBRANCH  18  19
ENDBRANCH  15  18
ENDBRANCH   2  15
TORSDOF 4
ENDMDL
MODEL 8
REMARK VINA RESULT:      -8.8      3.714      6.620
REMARK  Name = 5282203
REMARK  4 active torsions:
REMARK  status: ('A' for Active; 'I' for Inactive)
REMARK    1  A    between atoms: C_1  and  C_14
REMARK    2  A    between atoms: C_2  and  C_15
REMARK    3  A    between atoms: C_15  and  C_18
REMARK    4  A    between atoms: C_18  and  O_19
REMARK                            x       y       z     vdW  Elec       q    Type
REMARK                         _______ _______ _______ _____ _____    ______ ____
ROOT
ATOM      1  C   UNL     1      33.369 -13.466 -23.398  0.00  0.00    -0.000 C 
ATOM      2  C   UNL     1      34.418 -15.957 -24.017  0.00  0.00    -0.012 C 
ATOM      3  C   UNL     1      34.206 -14.096 -22.490  0.00  0.00    -0.000 C 
ATOM      4  C   UNL     1      33.045 -14.059 -24.609  0.00  0.00    -0.000 C 
ATOM      5  C   UNL     1      34.734 -15.349 -22.802  0.00  0.00    -0.004 C 
ATOM      6  C   UNL     1      33.574 -15.311 -24.921  0.00  0.00    -0.004 C 
ENDROOT
BRANCH   1  14
ATOM      7  O   UNL     1      31.334  -9.734 -22.794  0.00  0.00    -0.292 OA
ATOM      8  C   UNL     1      35.180  -9.655 -24.358  0.00  0.00    +0.005 C 
ATOM      9  C   UNL     1      34.366  -8.374 -24.201  0.00  0.00    +0.008 C 
ATOM     10  C   UNL     1      34.268 -10.844 -24.646  0.00  0.00    +0.029 C 
ATOM     11  C   UNL     1      33.362  -8.485 -23.062  0.00  0.00    +0.069 C 
ATOM     12  C   UNL     1      33.188 -10.980 -23.616  0.00  0.00    +0.012 C 
ATOM     13  C   UNL     1      32.509  -9.734 -23.155  0.00  0.00    +0.169 C 
ATOM     14  C   UNL     1      32.813 -12.144 -23.069  0.00  0.00    -0.001 C 
ENDBRANCH   1  14
BRANCH   2  15
ATOM     15  C   UNL     1      34.983 -17.296 -24.350  0.00  0.00    +0.121 C 
ATOM     16  C   UNL     1      34.099 -18.123 -25.305  0.00  0.00    +0.016 C 
BRANCH  15  18
ATOM     17  O   UNL     1      34.442 -18.717 -22.438  0.00  0.00    -0.250 OA
ATOM     18  C   UNL     1      35.288 -18.133 -23.102  0.00  0.00    +0.317 C 
BRANCH  18  19
ATOM     19  O   UNL     1      36.611 -18.161 -22.789  0.00  0.00    -0.480 OA
ATOM     20  H   UNL     1      36.897 -17.884 -21.940  0.00  0.00    +0.295 HD
ENDBRANCH  18  19
ENDBRANCH  15  18
ENDBRANCH   2  15
TORSDOF 4
ENDMDL
MODEL 9
REMARK VINA RESULT:      -8.8      7.876      9.871
REMARK  Name = 5282203
REMARK  4 active torsions:
REMARK  status: ('A' for Active; 'I' for Inactive)
REMARK    1  A    between atoms: C_1  and  C_14
REMARK    2  A    between atoms: C_2  and  C_15
REMARK    3  A    between atoms: C_15  and  C_18
REMARK    4  A    between atoms: C_18  and  O_19
REMARK                            x       y       z     vdW  Elec       q    Type
REMARK                         _______ _______ _______ _____ _____    ______ ____
ROOT
ATOM      1  C   UNL     1      33.762 -23.218 -15.250  0.00  0.00    -0.000 C 
ATOM      2  C   UNL     1      31.002 -23.481 -15.241  0.00  0.00    -0.012 C 
ATOM      3  C   UNL     1      33.070 -23.172 -16.451  0.00  0.00    -0.000 C 
ATOM      4  C   UNL     1      33.099 -23.394 -14.045  0.00  0.00    -0.000 C 
ATOM      5  C   UNL     1      31.682 -23.304 -16.446  0.00  0.00    -0.004 C 
ATOM      6  C   UNL     1      31.711 -23.525 -14.041  0.00  0.00    -0.004 C 
ENDROOT
BRANCH   1  14
ATOM      7  O   UNL     1      37.990 -22.737 -15.819  0.00  0.00    -0.292 OA
ATOM      8  C   UNL     1      36.602 -26.338 -14.286  0.00  0.00    +0.005 C 
ATOM      9  C   UNL     1      38.081 -26.131 -14.598  0.00  0.00    +0.008 C 
ATOM     10  C   UNL     1      35.729 -25.536 -15.247  0.00  0.00    +0.029 C 
ATOM     11  C   UNL     1      38.478 -24.666 -14.483  0.00  0.00    +0.069 C 
ATOM     12  C   UNL     1      36.108 -24.086 -15.265  0.00  0.00    +0.012 C 
ATOM     13  C   UNL     1      37.563 -23.750 -15.270  0.00  0.00    +0.169 C 
ATOM     14  C   UNL     1      35.227 -23.078 -15.256  0.00  0.00    -0.001 C 
ENDBRANCH   1  14
BRANCH   2  15
ATOM     15  C   UNL     1      29.517 -23.621 -15.237  0.00  0.00    +0.121 C 
ATOM     16  C   UNL     1      29.029 -25.047 -14.911  0.00  0.00    +0.016 C 
BRANCH  15  18
ATOM     17  O   UNL     1      28.840 -22.002 -16.936  0.00  0.00    -0.250 OA
ATOM     18  C   UNL     1      28.879 -23.164 -16.554  0.00  0.00    +0.317 C 
BRANCH  18  19
ATOM     19  O   UNL     1      28.341 -24.188 -17.270  0.00  0.00    -0.480 OA
ATOM     20  H   UNL     1      27.472 -24.113 -17.613  0.00  0.00    +0.295 HD
ENDBRANCH  18  19
ENDBRANCH  15  18
ENDBRANCH   2  15
TORSDOF 4
ENDMDL
