MODEL 1
REMARK VINA RESULT:      -8.9      0.000      0.000
REMARK  Name = 5327076
REMARK  6 active torsions:
REMARK  status: ('A' for Active; 'I' for Inactive)
REMARK    1  A    between atoms: C_4  and  C_20
REMARK    2  A    between atoms: C_6  and  O_11
REMARK    3  A    between atoms: O_11  and  C_12
REMARK    4  A    between atoms: C_20  and  S_21
REMARK    5  A    between atoms: S_21  and  C_22
REMARK    6  A    between atoms: C_22  and  C_24
REMARK                            x       y       z     vdW  Elec       q    Type
REMARK                         _______ _______ _______ _____ _____    ______ ____
ROOT
ATOM      1  I   UNL     1      32.435  -7.859 -21.721  0.00  0.00    -0.034 I 
ATOM      2  O   UNL     1      35.147  -7.250 -23.323  0.00  0.00    -0.267 OA
ATOM      3  N   UNL     1      35.271  -9.005 -24.787  0.00  0.00    -0.324 N 
ATOM      4  C   UNL     1      33.680 -10.756 -24.805  0.00  0.00    +0.035 A 
ATOM      5  C   UNL     1      34.806 -10.197 -25.303  0.00  0.00    +0.036 A 
ATOM      6  C   UNL     1      32.956 -10.046 -23.743  0.00  0.00    +0.153 A 
ATOM      7  C   UNL     1      33.411  -8.891 -23.221  0.00  0.00    +0.120 A 
ATOM      8  C   UNL     1      35.648 -10.754 -26.417  0.00  0.00    +0.050 C 
ATOM      9  C   UNL     1      34.677  -8.298 -23.761  0.00  0.00    +0.266 A 
ATOM     10  H   UNL     1      36.090  -8.629 -25.181  0.00  0.00    +0.169 HD
ENDROOT
BRANCH   6  11
ATOM     11  O   UNL     1      31.768 -10.597 -23.291  0.00  0.00    -0.453 OA
BRANCH  11  12
ATOM     12  C   UNL     1      31.832 -11.328 -22.142  0.00  0.00    +0.145 C 
ATOM     13  C   UNL     1      32.246 -13.426 -21.020  0.00  0.00    -0.019 C 
ATOM     14  C   UNL     1      31.619 -11.474 -19.741  0.00  0.00    -0.019 C 
ATOM     15  C   UNL     1      31.552 -10.726 -20.916  0.00  0.00    +0.033 C 
ATOM     16  C   UNL     1      32.179 -12.677 -22.196  0.00  0.00    +0.033 C 
ATOM     17  C   UNL     1      31.966 -12.824 -19.794  0.00  0.00    -0.008 C 
ATOM     18  C   UNL     1      32.617 -14.869 -21.076  0.00  0.00    +0.031 C 
ATOM     19  C   UNL     1      31.320 -10.831 -18.430  0.00  0.00    +0.031 C 
ENDBRANCH  11  12
ENDBRANCH   6  11
BRANCH   4  20
ATOM     20  C   UNL     1      33.160 -12.098 -25.251  0.00  0.00    +0.088 C 
BRANCH  20  21
ATOM     21  S   UNL     1      34.086 -13.404 -24.425  0.00  0.00    -0.127 S 
BRANCH  21  22
ATOM     22  C   UNL     1      33.374 -14.831 -25.279  0.00  0.00    +0.122 C 
BRANCH  22  24
ATOM     23  O   UNL     1      33.828 -17.162 -25.648  0.00  0.00    -0.454 OA
ATOM     24  C   UNL     1      34.023 -16.111 -24.833  0.00  0.00    +0.134 C 
ATOM     25  C   UNL     1      34.778 -16.417 -23.753  0.00  0.00    +0.037 C 
ATOM     26  C   UNL     1      35.090 -17.790 -23.898  0.00  0.00    +0.043 C 
ATOM     27  C   UNL     1      34.489 -18.197 -25.066  0.00  0.00    +0.179 C 
ENDBRANCH  22  24
ENDBRANCH  21  22
ENDBRANCH  20  21
ENDBRANCH   4  20
TORSDOF 6
ENDMDL
MODEL 2
REMARK VINA RESULT:      -8.9      2.794      6.740
REMARK  Name = 5327076
REMARK  6 active torsions:
REMARK  status: ('A' for Active; 'I' for Inactive)
REMARK    1  A    between atoms: C_4  and  C_20
REMARK    2  A    between atoms: C_6  and  O_11
REMARK    3  A    between atoms: O_11  and  C_12
REMARK    4  A    between atoms: C_20  and  S_21
REMARK    5  A    between atoms: S_21  and  C_22
REMARK    6  A    between atoms: C_22  and  C_24
REMARK                            x       y       z     vdW  Elec       q    Type
REMARK                         _______ _______ _______ _____ _____    ______ ____
ROOT
ATOM      1  I   UNL     1      32.852 -14.185 -26.991  0.00  0.00    -0.034 I 
ATOM      2  O   UNL     1      34.352 -16.813 -25.923  0.00  0.00    -0.267 OA
ATOM      3  N   UNL     1      34.577 -16.388 -23.685  0.00  0.00    -0.324 N 
ATOM      4  C   UNL     1      33.868 -14.358 -22.701  0.00  0.00    +0.035 A 
ATOM      5  C   UNL     1      34.437 -15.578 -22.579  0.00  0.00    +0.036 A 
ATOM      6  C   UNL     1      33.374 -13.945 -24.022  0.00  0.00    +0.153 A 
ATOM      7  C   UNL     1      33.521 -14.722 -25.111  0.00  0.00    +0.120 A 
ATOM      8  C   UNL     1      34.956 -16.183 -21.304  0.00  0.00    +0.050 C 
ATOM      9  C   UNL     1      34.182 -16.060 -24.966  0.00  0.00    +0.266 A 
ATOM     10  H   UNL     1      34.992 -17.271 -23.552  0.00  0.00    +0.169 HD
ENDROOT
BRANCH   6  11
ATOM     11  O   UNL     1      32.731 -12.721 -24.118  0.00  0.00    -0.453 OA
BRANCH  11  12
ATOM     12  C   UNL     1      33.516 -11.640 -24.393  0.00  0.00    +0.145 C 
ATOM     13  C   UNL     1      35.177 -10.559 -25.772  0.00  0.00    -0.019 C 
ATOM     14  C   UNL     1      34.259  -9.406 -23.857  0.00  0.00    -0.019 C 
ATOM     15  C   UNL     1      33.457 -10.512 -23.575  0.00  0.00    +0.033 C 
ATOM     16  C   UNL     1      34.375 -11.665 -25.490  0.00  0.00    +0.033 C 
ATOM     17  C   UNL     1      35.119  -9.430 -24.955  0.00  0.00    -0.008 C 
ATOM     18  C   UNL     1      36.096 -10.584 -26.946  0.00  0.00    +0.031 C 
ATOM     19  C   UNL     1      34.198  -8.199 -22.984  0.00  0.00    +0.031 C 
ENDBRANCH  11  12
ENDBRANCH   6  11
BRANCH   4  20
ATOM     20  C   UNL     1      33.763 -13.378 -21.561  0.00  0.00    +0.088 C 
BRANCH  20  21
ATOM     21  S   UNL     1      32.236 -13.679 -20.653  0.00  0.00    -0.127 S 
BRANCH  21  22
ATOM     22  C   UNL     1      31.281 -12.258 -21.237  0.00  0.00    +0.122 C 
BRANCH  22  24
ATOM     23  O   UNL     1      31.794  -9.918 -21.044  0.00  0.00    -0.454 OA
ATOM     24  C   UNL     1      31.520 -11.051 -20.374  0.00  0.00    +0.134 C 
ATOM     25  C   UNL     1      31.512 -10.879 -19.033  0.00  0.00    +0.037 C 
ATOM     26  C   UNL     1      31.810  -9.509 -18.834  0.00  0.00    +0.043 C 
ATOM     27  C   UNL     1      31.973  -8.969 -20.088  0.00  0.00    +0.179 C 
ENDBRANCH  22  24
ENDBRANCH  21  22
ENDBRANCH  20  21
ENDBRANCH   4  20
TORSDOF 6
ENDMDL
MODEL 3
REMARK VINA RESULT:      -8.8      3.151      6.797
REMARK  Name = 5327076
REMARK  6 active torsions:
REMARK  status: ('A' for Active; 'I' for Inactive)
REMARK    1  A    between atoms: C_4  and  C_20
REMARK    2  A    between atoms: C_6  and  O_11
REMARK    3  A    between atoms: O_11  and  C_12
REMARK    4  A    between atoms: C_20  and  S_21
REMARK    5  A    between atoms: S_21  and  C_22
REMARK    6  A    between atoms: C_22  and  C_24
REMARK                            x       y       z     vdW  Elec       q    Type
REMARK                         _______ _______ _______ _____ _____    ______ ____
ROOT
ATOM      1  I   UNL     1      33.427 -12.992 -25.968  0.00  0.00    -0.034 I 
ATOM      2  O   UNL     1      35.775 -10.848 -26.398  0.00  0.00    -0.267 OA
ATOM      3  N   UNL     1      35.260  -9.226 -24.868  0.00  0.00    -0.324 N 
ATOM      4  C   UNL     1      33.328  -9.333 -23.507  0.00  0.00    +0.035 A 
ATOM      5  C   UNL     1      34.448  -8.682 -23.895  0.00  0.00    +0.036 A 
ATOM      6  C   UNL     1      33.030 -10.637 -24.114  0.00  0.00    +0.153 A 
ATOM      7  C   UNL     1      33.807 -11.168 -25.077  0.00  0.00    +0.120 A 
ATOM      8  C   UNL     1      34.934  -7.368 -23.353  0.00  0.00    +0.050 C 
ATOM      9  C   UNL     1      35.028 -10.421 -25.519  0.00  0.00    +0.266 A 
ATOM     10  H   UNL     1      36.068  -8.723 -25.118  0.00  0.00    +0.169 HD
ENDROOT
BRANCH   6  11
ATOM     11  O   UNL     1      31.917 -11.324 -23.657  0.00  0.00    -0.453 OA
BRANCH  11  12
ATOM     12  C   UNL     1      32.018 -11.896 -22.423  0.00  0.00    +0.145 C 
ATOM     13  C   UNL     1      31.738 -11.765 -20.029  0.00  0.00    -0.019 C 
ATOM     14  C   UNL     1      32.603 -13.783 -21.035  0.00  0.00    -0.019 C 
ATOM     15  C   UNL     1      32.501 -13.198 -22.297  0.00  0.00    +0.033 C 
ATOM     16  C   UNL     1      31.636 -11.178 -21.291  0.00  0.00    +0.033 C 
ATOM     17  C   UNL     1      32.222 -13.066 -19.901  0.00  0.00    -0.008 C 
ATOM     18  C   UNL     1      31.330 -10.998 -18.816  0.00  0.00    +0.031 C 
ATOM     19  C   UNL     1      33.120 -15.175 -20.899  0.00  0.00    +0.031 C 
ENDBRANCH  11  12
ENDBRANCH   6  11
BRANCH   4  20
ATOM     20  C   UNL     1      32.344  -8.763 -22.519  0.00  0.00    +0.088 C 
BRANCH  20  21
ATOM     21  S   UNL     1      31.027  -7.914 -23.408  0.00  0.00    -0.127 S 
BRANCH  21  22
ATOM     22  C   UNL     1      31.329  -6.233 -22.811  0.00  0.00    +0.122 C 
BRANCH  22  24
ATOM     23  O   UNL     1      30.672  -4.206 -23.923  0.00  0.00    -0.454 OA
ATOM     24  C   UNL     1      31.492  -5.271 -23.953  0.00  0.00    +0.134 C 
ATOM     25  C   UNL     1      32.317  -5.268 -25.026  0.00  0.00    +0.037 C 
ATOM     26  C   UNL     1      31.988  -4.091 -25.741  0.00  0.00    +0.043 C 
ATOM     27  C   UNL     1      30.983  -3.480 -25.029  0.00  0.00    +0.179 C 
ENDBRANCH  22  24
ENDBRANCH  21  22
ENDBRANCH  20  21
ENDBRANCH   4  20
TORSDOF 6
ENDMDL
MODEL 4
REMARK VINA RESULT:      -8.8      3.147      6.582
REMARK  Name = 5327076
REMARK  6 active torsions:
REMARK  status: ('A' for Active; 'I' for Inactive)
REMARK    1  A    between atoms: C_4  and  C_20
REMARK    2  A    between atoms: C_6  and  O_11
REMARK    3  A    between atoms: O_11  and  C_12
REMARK    4  A    between atoms: C_20  and  S_21
REMARK    5  A    between atoms: S_21  and  C_22
REMARK    6  A    between atoms: C_22  and  C_24
REMARK                            x       y       z     vdW  Elec       q    Type
REMARK                         _______ _______ _______ _____ _____    ______ ____
ROOT
ATOM      1  I   UNL     1      33.438 -13.000 -25.961  0.00  0.00    -0.034 I 
ATOM      2  O   UNL     1      35.787 -10.859 -26.395  0.00  0.00    -0.267 OA
ATOM      3  N   UNL     1      35.270  -9.230 -24.873  0.00  0.00    -0.324 N 
ATOM      4  C   UNL     1      33.337  -9.332 -23.514  0.00  0.00    +0.035 A 
ATOM      5  C   UNL     1      34.457  -8.682 -23.903  0.00  0.00    +0.036 A 
ATOM      6  C   UNL     1      33.039 -10.638 -24.117  0.00  0.00    +0.153 A 
ATOM      7  C   UNL     1      33.818 -11.173 -25.076  0.00  0.00    +0.120 A 
ATOM      8  C   UNL     1      34.943  -7.366 -23.366  0.00  0.00    +0.050 C 
ATOM      9  C   UNL     1      35.040 -10.428 -25.520  0.00  0.00    +0.266 A 
ATOM     10  H   UNL     1      36.079  -8.728 -25.124  0.00  0.00    +0.169 HD
ENDROOT
BRANCH   6  11
ATOM     11  O   UNL     1      31.925 -11.323 -23.658  0.00  0.00    -0.453 OA
BRANCH  11  12
ATOM     12  C   UNL     1      32.027 -11.896 -22.424  0.00  0.00    +0.145 C 
ATOM     13  C   UNL     1      32.620 -13.782 -21.038  0.00  0.00    -0.019 C 
ATOM     14  C   UNL     1      31.748 -11.767 -20.030  0.00  0.00    -0.019 C 
ATOM     15  C   UNL     1      31.642 -11.181 -21.291  0.00  0.00    +0.033 C 
ATOM     16  C   UNL     1      32.515 -13.196 -22.300  0.00  0.00    +0.033 C 
ATOM     17  C   UNL     1      32.236 -13.068 -19.904  0.00  0.00    -0.008 C 
ATOM     18  C   UNL     1      33.142 -15.172 -20.904  0.00  0.00    +0.031 C 
ATOM     19  C   UNL     1      31.337 -11.003 -18.817  0.00  0.00    +0.031 C 
ENDBRANCH  11  12
ENDBRANCH   6  11
BRANCH   4  20
ATOM     20  C   UNL     1      32.351  -8.758 -22.529  0.00  0.00    +0.088 C 
BRANCH  20  21
ATOM     21  S   UNL     1      31.003  -7.965 -23.425  0.00  0.00    -0.127 S 
BRANCH  21  22
ATOM     22  C   UNL     1      31.216  -6.277 -22.809  0.00  0.00    +0.122 C 
BRANCH  22  24
ATOM     23  O   UNL     1      30.690  -4.183 -23.863  0.00  0.00    -0.454 OA
ATOM     24  C   UNL     1      31.421  -5.308 -23.938  0.00  0.00    +0.134 C 
ATOM     25  C   UNL     1      32.210  -5.348 -25.037  0.00  0.00    +0.037 C 
ATOM     26  C   UNL     1      31.954  -4.134 -25.720  0.00  0.00    +0.043 C 
ATOM     27  C   UNL     1      31.023  -3.461 -24.964  0.00  0.00    +0.179 C 
ENDBRANCH  22  24
ENDBRANCH  21  22
ENDBRANCH  20  21
ENDBRANCH   4  20
TORSDOF 6
ENDMDL
MODEL 5
REMARK VINA RESULT:      -8.6      2.998      6.566
REMARK  Name = 5327076
REMARK  6 active torsions:
REMARK  status: ('A' for Active; 'I' for Inactive)
REMARK    1  A    between atoms: C_4  and  C_20
REMARK    2  A    between atoms: C_6  and  O_11
REMARK    3  A    between atoms: O_11  and  C_12
REMARK    4  A    between atoms: C_20  and  S_21
REMARK    5  A    between atoms: S_21  and  C_22
REMARK    6  A    between atoms: C_22  and  C_24
REMARK                            x       y       z     vdW  Elec       q    Type
REMARK                         _______ _______ _______ _____ _____    ______ ____
ROOT
ATOM      1  I   UNL     1      33.686 -13.298 -26.824  0.00  0.00    -0.034 I 
ATOM      2  O   UNL     1      35.688 -10.810 -27.123  0.00  0.00    -0.267 OA
ATOM      3  N   UNL     1      35.237  -9.573 -25.251  0.00  0.00    -0.324 N 
ATOM      4  C   UNL     1      33.560 -10.186 -23.700  0.00  0.00    +0.035 A 
ATOM      5  C   UNL     1      34.528  -9.329 -24.094  0.00  0.00    +0.036 A 
ATOM      6  C   UNL     1      33.318 -11.389 -24.508  0.00  0.00    +0.153 A 
ATOM      7  C   UNL     1      33.993 -11.627 -25.648  0.00  0.00    +0.120 A 
ATOM      8  C   UNL     1      34.943  -8.078 -23.372  0.00  0.00    +0.050 C 
ATOM      9  C   UNL     1      35.042 -10.652 -26.089  0.00  0.00    +0.266 A 
ATOM     10  H   UNL     1      35.936  -8.927 -25.500  0.00  0.00    +0.169 HD
ENDROOT
BRANCH   6  11
ATOM     11  O   UNL     1      32.371 -12.293 -24.054  0.00  0.00    -0.453 OA
BRANCH  11  12
ATOM     12  C   UNL     1      32.833 -13.340 -23.312  0.00  0.00    +0.145 C 
ATOM     13  C   UNL     1      34.226 -15.301 -23.104  0.00  0.00    -0.019 C 
ATOM     14  C   UNL     1      32.860 -14.586 -21.244  0.00  0.00    -0.019 C 
ATOM     15  C   UNL     1      32.386 -13.516 -22.003  0.00  0.00    +0.033 C 
ATOM     16  C   UNL     1      33.752 -14.231 -23.864  0.00  0.00    +0.033 C 
ATOM     17  C   UNL     1      33.779 -15.478 -21.795  0.00  0.00    -0.008 C 
ATOM     18  C   UNL     1      35.209 -16.255 -23.693  0.00  0.00    +0.031 C 
ATOM     19  C   UNL     1      32.382 -14.776 -19.844  0.00  0.00    +0.031 C 
ENDBRANCH  11  12
ENDBRANCH   6  11
BRANCH   4  20
ATOM     20  C   UNL     1      32.681  -9.943 -22.500  0.00  0.00    +0.088 C 
BRANCH  20  21
ATOM     21  S   UNL     1      31.248  -8.969 -22.996  0.00  0.00    -0.127 S 
BRANCH  21  22
ATOM     22  C   UNL     1      31.646  -7.430 -22.132  0.00  0.00    +0.122 C 
BRANCH  22  24
ATOM     23  O   UNL     1      31.380  -5.065 -22.464  0.00  0.00    -0.454 OA
ATOM     24  C   UNL     1      31.581  -6.252 -23.062  0.00  0.00    +0.134 C 
ATOM     25  C   UNL     1      31.687  -6.151 -24.407  0.00  0.00    +0.037 C 
ATOM     26  C   UNL     1      31.538  -4.771 -24.687  0.00  0.00    +0.043 C 
ATOM     27  C   UNL     1      31.354  -4.154 -23.472  0.00  0.00    +0.179 C 
ENDBRANCH  22  24
ENDBRANCH  21  22
ENDBRANCH  20  21
ENDBRANCH   4  20
TORSDOF 6
ENDMDL
MODEL 6
REMARK VINA RESULT:      -8.6      2.987      6.707
REMARK  Name = 5327076
REMARK  6 active torsions:
REMARK  status: ('A' for Active; 'I' for Inactive)
REMARK    1  A    between atoms: C_4  and  C_20
REMARK    2  A    between atoms: C_6  and  O_11
REMARK    3  A    between atoms: O_11  and  C_12
REMARK    4  A    between atoms: C_20  and  S_21
REMARK    5  A    between atoms: S_21  and  C_22
REMARK    6  A    between atoms: C_22  and  C_24
REMARK                            x       y       z     vdW  Elec       q    Type
REMARK                         _______ _______ _______ _____ _____    ______ ____
ROOT
ATOM      1  I   UNL     1      33.693 -13.288 -26.839  0.00  0.00    -0.034 I 
ATOM      2  O   UNL     1      35.703 -10.806 -27.138  0.00  0.00    -0.267 OA
ATOM      3  N   UNL     1      35.257  -9.569 -25.265  0.00  0.00    -0.324 N 
ATOM      4  C   UNL     1      33.579 -10.179 -23.713  0.00  0.00    +0.035 A 
ATOM      5  C   UNL     1      34.550  -9.324 -24.107  0.00  0.00    +0.036 A 
ATOM      6  C   UNL     1      33.333 -11.380 -24.522  0.00  0.00    +0.153 A 
ATOM      7  C   UNL     1      34.007 -11.620 -25.662  0.00  0.00    +0.120 A 
ATOM      8  C   UNL     1      34.969  -8.075 -23.384  0.00  0.00    +0.050 C 
ATOM      9  C   UNL     1      35.059 -10.648 -26.104  0.00  0.00    +0.266 A 
ATOM     10  H   UNL     1      35.959  -8.925 -25.513  0.00  0.00    +0.169 HD
ENDROOT
BRANCH   6  11
ATOM     11  O   UNL     1      32.383 -12.281 -24.068  0.00  0.00    -0.453 OA
BRANCH  11  12
ATOM     12  C   UNL     1      32.841 -13.324 -23.317  0.00  0.00    +0.145 C 
ATOM     13  C   UNL     1      32.844 -14.565 -21.247  0.00  0.00    -0.019 C 
ATOM     14  C   UNL     1      34.238 -15.279 -23.086  0.00  0.00    -0.019 C 
ATOM     15  C   UNL     1      33.772 -14.212 -23.854  0.00  0.00    +0.033 C 
ATOM     16  C   UNL     1      32.377 -13.498 -22.014  0.00  0.00    +0.033 C 
ATOM     17  C   UNL     1      33.775 -15.455 -21.782  0.00  0.00    -0.008 C 
ATOM     18  C   UNL     1      32.348 -14.754 -19.853  0.00  0.00    +0.031 C 
ATOM     19  C   UNL     1      35.234 -16.230 -23.659  0.00  0.00    +0.031 C 
ENDBRANCH  11  12
ENDBRANCH   6  11
BRANCH   4  20
ATOM     20  C   UNL     1      32.702  -9.933 -22.513  0.00  0.00    +0.088 C 
BRANCH  20  21
ATOM     21  S   UNL     1      31.259  -8.978 -23.011  0.00  0.00    -0.127 S 
BRANCH  21  22
ATOM     22  C   UNL     1      31.654  -7.422 -22.177  0.00  0.00    +0.122 C 
BRANCH  22  24
ATOM     23  O   UNL     1      31.280  -5.088 -22.610  0.00  0.00    -0.454 OA
ATOM     24  C   UNL     1      31.640  -6.269 -23.140  0.00  0.00    +0.134 C 
ATOM     25  C   UNL     1      31.922  -6.187 -24.461  0.00  0.00    +0.037 C 
ATOM     26  C   UNL     1      31.723  -4.826 -24.797  0.00  0.00    +0.043 C 
ATOM     27  C   UNL     1      31.333  -4.200 -23.637  0.00  0.00    +0.179 C 
ENDBRANCH  22  24
ENDBRANCH  21  22
ENDBRANCH  20  21
ENDBRANCH   4  20
TORSDOF 6
ENDMDL
MODEL 7
REMARK VINA RESULT:      -8.6     11.840     15.001
REMARK  Name = 5327076
REMARK  6 active torsions:
REMARK  status: ('A' for Active; 'I' for Inactive)
REMARK    1  A    between atoms: C_4  and  C_20
REMARK    2  A    between atoms: C_6  and  O_11
REMARK    3  A    between atoms: O_11  and  C_12
REMARK    4  A    between atoms: C_20  and  S_21
REMARK    5  A    between atoms: S_21  and  C_22
REMARK    6  A    between atoms: C_22  and  C_24
REMARK                            x       y       z     vdW  Elec       q    Type
REMARK                         _______ _______ _______ _____ _____    ______ ____
ROOT
ATOM      1  I   UNL     1      30.785 -23.463 -16.115  0.00  0.00    -0.034 I 
ATOM      2  O   UNL     1      31.340 -23.006 -12.989  0.00  0.00    -0.267 OA
ATOM      3  N   UNL     1      33.587 -23.404 -12.814  0.00  0.00    -0.324 N 
ATOM      4  C   UNL     1      34.904 -24.078 -14.660  0.00  0.00    +0.035 A 
ATOM      5  C   UNL     1      34.804 -23.772 -13.346  0.00  0.00    +0.036 A 
ATOM      6  C   UNL     1      33.702 -23.967 -15.497  0.00  0.00    +0.153 A 
ATOM      7  C   UNL     1      32.505 -23.625 -14.983  0.00  0.00    +0.120 A 
ATOM      8  C   UNL     1      35.932 -23.784 -12.352  0.00  0.00    +0.050 C 
ATOM      9  C   UNL     1      32.404 -23.319 -13.520  0.00  0.00    +0.266 A 
ATOM     10  H   UNL     1      33.559 -23.184 -11.855  0.00  0.00    +0.169 HD
ENDROOT
BRANCH   6  11
ATOM     11  O   UNL     1      33.834 -24.217 -16.854  0.00  0.00    -0.453 OA
BRANCH  11  12
ATOM     12  C   UNL     1      34.217 -23.165 -17.633  0.00  0.00    +0.145 C 
ATOM     13  C   UNL     1      35.902 -21.580 -18.323  0.00  0.00    -0.019 C 
ATOM     14  C   UNL     1      33.708 -21.528 -19.333  0.00  0.00    -0.019 C 
ATOM     15  C   UNL     1      33.315 -22.603 -18.536  0.00  0.00    +0.033 C 
ATOM     16  C   UNL     1      35.510 -22.655 -17.525  0.00  0.00    +0.033 C 
ATOM     17  C   UNL     1      35.002 -21.017 -19.226  0.00  0.00    -0.008 C 
ATOM     18  C   UNL     1      37.285 -21.034 -18.209  0.00  0.00    +0.031 C 
ATOM     19  C   UNL     1      32.745 -20.926 -20.299  0.00  0.00    +0.031 C 
ENDBRANCH  11  12
ENDBRANCH   6  11
BRANCH   4  20
ATOM     20  C   UNL     1      36.175 -24.576 -15.296  0.00  0.00    +0.088 C 
BRANCH  20  21
ATOM     21  S   UNL     1      36.152 -26.377 -15.349  0.00  0.00    -0.127 S 
BRANCH  21  22
ATOM     22  C   UNL     1      37.130 -26.710 -13.863  0.00  0.00    +0.122 C 
BRANCH  22  24
ATOM     23  O   UNL     1      39.289 -26.685 -14.917  0.00  0.00    -0.454 OA
ATOM     24  C   UNL     1      38.508 -26.124 -13.977  0.00  0.00    +0.134 C 
ATOM     25  C   UNL     1      39.128 -25.126 -13.307  0.00  0.00    +0.037 C 
ATOM     26  C   UNL     1      40.422 -25.047 -13.876  0.00  0.00    +0.043 C 
ATOM     27  C   UNL     1      40.470 -26.016 -14.850  0.00  0.00    +0.179 C 
ENDBRANCH  22  24
ENDBRANCH  21  22
ENDBRANCH  20  21
ENDBRANCH   4  20
TORSDOF 6
ENDMDL
MODEL 8
REMARK VINA RESULT:      -8.5     11.734     14.909
REMARK  Name = 5327076
REMARK  6 active torsions:
REMARK  status: ('A' for Active; 'I' for Inactive)
REMARK    1  A    between atoms: C_4  and  C_20
REMARK    2  A    between atoms: C_6  and  O_11
REMARK    3  A    between atoms: O_11  and  C_12
REMARK    4  A    between atoms: C_20  and  S_21
REMARK    5  A    between atoms: S_21  and  C_22
REMARK    6  A    between atoms: C_22  and  C_24
REMARK                            x       y       z     vdW  Elec       q    Type
REMARK                         _______ _______ _______ _____ _____    ______ ____
ROOT
ATOM      1  I   UNL     1      30.830 -23.318 -16.410  0.00  0.00    -0.034 I 
ATOM      2  O   UNL     1      31.252 -22.902 -13.257  0.00  0.00    -0.267 OA
ATOM      3  N   UNL     1      33.478 -23.357 -12.984  0.00  0.00    -0.324 N 
ATOM      4  C   UNL     1      34.860 -24.049 -14.774  0.00  0.00    +0.035 A 
ATOM      5  C   UNL     1      34.709 -23.752 -13.464  0.00  0.00    +0.036 A 
ATOM      6  C   UNL     1      33.701 -23.901 -15.664  0.00  0.00    +0.153 A 
ATOM      7  C   UNL     1      32.492 -23.533 -15.202  0.00  0.00    +0.120 A 
ATOM      8  C   UNL     1      35.789 -23.801 -12.420  0.00  0.00    +0.050 C 
ATOM      9  C   UNL     1      32.331 -23.236 -13.742  0.00  0.00    +0.266 A 
ATOM     10  H   UNL     1      33.411 -23.145 -12.025  0.00  0.00    +0.169 HD
ENDROOT
BRANCH   6  11
ATOM     11  O   UNL     1      33.889 -24.143 -17.016  0.00  0.00    -0.453 OA
BRANCH  11  12
ATOM     12  C   UNL     1      34.267 -23.077 -17.779  0.00  0.00    +0.145 C 
ATOM     13  C   UNL     1      33.746 -21.416 -19.451  0.00  0.00    -0.019 C 
ATOM     14  C   UNL     1      35.942 -21.471 -18.445  0.00  0.00    -0.019 C 
ATOM     15  C   UNL     1      35.557 -22.562 -17.665  0.00  0.00    +0.033 C 
ATOM     16  C   UNL     1      33.361 -22.507 -18.671  0.00  0.00    +0.033 C 
ATOM     17  C   UNL     1      35.036 -20.899 -19.339  0.00  0.00    -0.008 C 
ATOM     18  C   UNL     1      32.778 -20.803 -20.406  0.00  0.00    +0.031 C 
ATOM     19  C   UNL     1      37.321 -20.919 -18.324  0.00  0.00    +0.031 C 
ENDBRANCH  11  12
ENDBRANCH   6  11
BRANCH   4  20
ATOM     20  C   UNL     1      36.147 -24.575 -15.357  0.00  0.00    +0.088 C 
BRANCH  20  21
ATOM     21  S   UNL     1      36.127 -26.376 -15.323  0.00  0.00    -0.127 S 
BRANCH  21  22
ATOM     22  C   UNL     1      37.095 -26.636 -13.817  0.00  0.00    +0.122 C 
BRANCH  22  24
ATOM     23  O   UNL     1      39.212 -26.651 -14.953  0.00  0.00    -0.454 OA
ATOM     24  C   UNL     1      38.489 -26.095 -13.966  0.00  0.00    +0.134 C 
ATOM     25  C   UNL     1      39.170 -25.142 -13.288  0.00  0.00    +0.037 C 
ATOM     26  C   UNL     1      40.444 -25.090 -13.905  0.00  0.00    +0.043 C 
ATOM     27  C   UNL     1      40.418 -26.027 -14.911  0.00  0.00    +0.179 C 
ENDBRANCH  22  24
ENDBRANCH  21  22
ENDBRANCH  20  21
ENDBRANCH   4  20
TORSDOF 6
ENDMDL
MODEL 9
REMARK VINA RESULT:      -8.2      3.763      7.615
REMARK  Name = 5327076
REMARK  6 active torsions:
REMARK  status: ('A' for Active; 'I' for Inactive)
REMARK    1  A    between atoms: C_4  and  C_20
REMARK    2  A    between atoms: C_6  and  O_11
REMARK    3  A    between atoms: O_11  and  C_12
REMARK    4  A    between atoms: C_20  and  S_21
REMARK    5  A    between atoms: S_21  and  C_22
REMARK    6  A    between atoms: C_22  and  C_24
REMARK                            x       y       z     vdW  Elec       q    Type
REMARK                         _______ _______ _______ _____ _____    ______ ____
ROOT
ATOM      1  I   UNL     1      35.277 -19.028 -24.249  0.00  0.00    -0.034 I 
ATOM      2  O   UNL     1      33.512 -17.210 -26.217  0.00  0.00    -0.267 OA
ATOM      3  N   UNL     1      33.394 -15.220 -25.093  0.00  0.00    -0.324 N 
ATOM      4  C   UNL     1      34.356 -14.913 -22.954  0.00  0.00    +0.035 A 
ATOM      5  C   UNL     1      33.654 -14.421 -23.999  0.00  0.00    +0.036 A 
ATOM      6  C   UNL     1      34.861 -16.290 -23.035  0.00  0.00    +0.153 A 
ATOM      7  C   UNL     1      34.598 -17.083 -24.091  0.00  0.00    +0.120 A 
ATOM      8  C   UNL     1      33.101 -13.028 -24.111  0.00  0.00    +0.050 C 
ATOM      9  C   UNL     1      33.792 -16.535 -25.229  0.00  0.00    +0.266 A 
ATOM     10  H   UNL     1      32.884 -14.823 -25.835  0.00  0.00    +0.169 HD
ENDROOT
BRANCH   6  11
ATOM     11  O   UNL     1      35.638 -16.756 -21.986  0.00  0.00    -0.453 OA
BRANCH  11  12
ATOM     12  C   UNL     1      35.253 -17.935 -21.419  0.00  0.00    +0.145 C 
ATOM     13  C   UNL     1      33.503 -19.422 -20.672  0.00  0.00    -0.019 C 
ATOM     14  C   UNL     1      35.820 -20.063 -20.430  0.00  0.00    -0.019 C 
ATOM     15  C   UNL     1      36.215 -18.857 -21.009  0.00  0.00    +0.033 C 
ATOM     16  C   UNL     1      33.898 -18.215 -21.251  0.00  0.00    +0.033 C 
ATOM     17  C   UNL     1      34.464 -20.345 -20.262  0.00  0.00    -0.008 C 
ATOM     18  C   UNL     1      32.054 -19.723 -20.492  0.00  0.00    +0.031 C 
ATOM     19  C   UNL     1      36.848 -21.051 -19.991  0.00  0.00    +0.031 C 
ENDBRANCH  11  12
ENDBRANCH   6  11
BRANCH   4  20
ATOM     20  C   UNL     1      34.603 -14.135 -21.688  0.00  0.00    +0.088 C 
BRANCH  20  21
ATOM     21  S   UNL     1      33.228 -14.390 -20.551  0.00  0.00    -0.127 S 
BRANCH  21  22
ATOM     22  C   UNL     1      31.986 -13.374 -21.386  0.00  0.00    +0.122 C 
BRANCH  22  24
ATOM     23  O   UNL     1      31.931 -10.977 -21.545  0.00  0.00    -0.454 OA
ATOM     24  C   UNL     1      31.842 -12.035 -20.721  0.00  0.00    +0.134 C 
ATOM     25  C   UNL     1      31.639 -11.679 -19.431  0.00  0.00    +0.037 C 
ATOM     26  C   UNL     1      31.594 -10.264 -19.441  0.00  0.00    +0.043 C 
ATOM     27  C   UNL     1      31.776  -9.886 -20.750  0.00  0.00    +0.179 C 
ENDBRANCH  22  24
ENDBRANCH  21  22
ENDBRANCH  20  21
ENDBRANCH   4  20
TORSDOF 6
ENDMDL
