MODEL 1
REMARK VINA RESULT:      -9.1      0.000      0.000
REMARK  Name = 6764
REMARK  0 active torsions:
REMARK  status: ('A' for Active; 'I' for Inactive)
REMARK                            x       y       z     vdW  Elec       q    Type
REMARK                         _______ _______ _______ _____ _____    ______ ____
ROOT
ATOM      1  O   UNL     1      33.072 -14.328 -25.531  0.00  0.00    -0.281 OA
ATOM      2  O   UNL     1      34.531 -16.544 -25.787  0.00  0.00    -0.281 OA
ATOM      3  N   UNL     1      32.362 -13.292 -23.153  0.00  0.00    -0.240 NA
ATOM      4  N   UNL     1      35.444 -17.963 -23.694  0.00  0.00    -0.240 NA
ATOM      5  C   UNL     1      33.558 -15.126 -22.049  0.00  0.00    +0.023 C 
ATOM      6  C   UNL     1      34.367 -16.352 -22.191  0.00  0.00    +0.023 C 
ATOM      7  C   UNL     1      33.108 -14.424 -23.171  0.00  0.00    +0.123 C 
ATOM      8  C   UNL     1      34.708 -16.850 -23.452  0.00  0.00    +0.123 C 
ATOM      9  C   UNL     1      33.439 -14.904 -24.520  0.00  0.00    +0.253 C 
ATOM     10  C   UNL     1      34.261 -16.151 -24.664  0.00  0.00    +0.253 C 
ATOM     11  C   UNL     1      33.181 -14.572 -20.817  0.00  0.00    +0.003 C 
ATOM     12  C   UNL     1      34.851 -17.103 -21.110  0.00  0.00    +0.003 C 
ATOM     13  C   UNL     1      32.414 -13.409 -20.753  0.00  0.00    +0.021 C 
ATOM     14  C   UNL     1      35.612 -18.255 -21.314  0.00  0.00    +0.021 C 
ATOM     15  C   UNL     1      32.033 -12.812 -21.939  0.00  0.00    +0.099 C 
ATOM     16  C   UNL     1      35.878 -18.639 -22.614  0.00  0.00    +0.099 C 
ENDROOT
TORSDOF 0
ENDMDL
MODEL 2
REMARK VINA RESULT:      -9.1      0.080      4.245
REMARK  Name = 6764
REMARK  0 active torsions:
REMARK  status: ('A' for Active; 'I' for Inactive)
REMARK                            x       y       z     vdW  Elec       q    Type
REMARK                         _______ _______ _______ _____ _____    ______ ____
ROOT
ATOM      1  O   UNL     1      34.515 -16.473 -25.860  0.00  0.00    -0.281 OA
ATOM      2  O   UNL     1      33.076 -14.250 -25.555  0.00  0.00    -0.281 OA
ATOM      3  N   UNL     1      35.411 -17.949 -23.799  0.00  0.00    -0.240 NA
ATOM      4  N   UNL     1      32.371 -13.263 -23.156  0.00  0.00    -0.240 NA
ATOM      5  C   UNL     1      34.345 -16.364 -22.261  0.00  0.00    +0.023 C 
ATOM      6  C   UNL     1      33.547 -15.133 -22.093  0.00  0.00    +0.023 C 
ATOM      7  C   UNL     1      34.685 -16.835 -23.533  0.00  0.00    +0.123 C 
ATOM      8  C   UNL     1      33.106 -14.401 -23.199  0.00  0.00    +0.123 C 
ATOM      9  C   UNL     1      34.246 -16.104 -24.729  0.00  0.00    +0.253 C 
ATOM     10  C   UNL     1      33.436 -14.853 -24.557  0.00  0.00    +0.253 C 
ATOM     11  C   UNL     1      34.819 -17.144 -21.197  0.00  0.00    +0.003 C 
ATOM     12  C   UNL     1      33.171 -14.606 -20.849  0.00  0.00    +0.003 C 
ATOM     13  C   UNL     1      35.569 -18.298 -21.426  0.00  0.00    +0.021 C 
ATOM     14  C   UNL     1      32.414 -13.437 -20.759  0.00  0.00    +0.021 C 
ATOM     15  C   UNL     1      35.836 -18.654 -22.734  0.00  0.00    +0.099 C 
ATOM     16  C   UNL     1      32.043 -12.809 -21.932  0.00  0.00    +0.099 C 
ENDROOT
TORSDOF 0
ENDMDL
MODEL 3
REMARK VINA RESULT:      -8.5      2.136      4.927
REMARK  Name = 6764
REMARK  0 active torsions:
REMARK  status: ('A' for Active; 'I' for Inactive)
REMARK                            x       y       z     vdW  Elec       q    Type
REMARK                         _______ _______ _______ _____ _____    ______ ____
ROOT
ATOM      1  O   UNL     1      34.769 -15.277 -20.100  0.00  0.00    -0.281 OA
ATOM      2  O   UNL     1      33.678 -13.450 -21.706  0.00  0.00    -0.281 OA
ATOM      3  N   UNL     1      35.479 -17.735 -20.926  0.00  0.00    -0.240 NA
ATOM      4  N   UNL     1      33.185 -13.879 -24.313  0.00  0.00    -0.240 NA
ATOM      5  C   UNL     1      34.697 -17.155 -23.176  0.00  0.00    +0.023 C 
ATOM      6  C   UNL     1      34.095 -16.142 -24.065  0.00  0.00    +0.023 C 
ATOM      7  C   UNL     1      34.933 -16.880 -21.825  0.00  0.00    +0.123 C 
ATOM      8  C   UNL     1      33.742 -14.878 -23.585  0.00  0.00    +0.123 C 
ATOM      9  C   UNL     1      34.582 -15.567 -21.271  0.00  0.00    +0.253 C 
ATOM     10  C   UNL     1      33.969 -14.538 -22.174  0.00  0.00    +0.253 C 
ATOM     11  C   UNL     1      35.074 -18.440 -23.591  0.00  0.00    +0.003 C 
ATOM     12  C   UNL     1      33.832 -16.351 -25.427  0.00  0.00    +0.003 C 
ATOM     13  C   UNL     1      35.639 -19.350 -22.698  0.00  0.00    +0.021 C 
ATOM     14  C   UNL     1      33.260 -15.350 -26.213  0.00  0.00    +0.021 C 
ATOM     15  C   UNL     1      35.819 -18.953 -21.387  0.00  0.00    +0.099 C 
ATOM     16  C   UNL     1      32.958 -14.142 -25.614  0.00  0.00    +0.099 C 
ENDROOT
TORSDOF 0
ENDMDL
MODEL 4
REMARK VINA RESULT:      -8.5      2.149      3.326
REMARK  Name = 6764
REMARK  0 active torsions:
REMARK  status: ('A' for Active; 'I' for Inactive)
REMARK                            x       y       z     vdW  Elec       q    Type
REMARK                         _______ _______ _______ _____ _____    ______ ____
ROOT
ATOM      1  O   UNL     1      33.756 -13.407 -21.729  0.00  0.00    -0.281 OA
ATOM      2  O   UNL     1      34.802 -15.232 -20.092  0.00  0.00    -0.281 OA
ATOM      3  N   UNL     1      33.254 -13.869 -24.330  0.00  0.00    -0.240 NA
ATOM      4  N   UNL     1      35.454 -17.720 -20.875  0.00  0.00    -0.240 NA
ATOM      5  C   UNL     1      34.109 -16.148 -24.042  0.00  0.00    +0.023 C 
ATOM      6  C   UNL     1      34.686 -17.160 -23.136  0.00  0.00    +0.023 C 
ATOM      7  C   UNL     1      33.786 -14.868 -23.584  0.00  0.00    +0.123 C 
ATOM      8  C   UNL     1      34.929 -16.868 -21.790  0.00  0.00    +0.123 C 
ATOM      9  C   UNL     1      34.021 -14.510 -22.179  0.00  0.00    +0.253 C 
ATOM     10  C   UNL     1      34.608 -15.537 -21.258  0.00  0.00    +0.253 C 
ATOM     11  C   UNL     1      33.840 -16.374 -25.400  0.00  0.00    +0.003 C 
ATOM     12  C   UNL     1      35.031 -18.461 -23.529  0.00  0.00    +0.003 C 
ATOM     13  C   UNL     1      33.293 -15.373 -26.203  0.00  0.00    +0.021 C 
ATOM     14  C   UNL     1      35.574 -19.370 -22.619  0.00  0.00    +0.021 C 
ATOM     15  C   UNL     1      33.020 -14.148 -25.626  0.00  0.00    +0.099 C 
ATOM     16  C   UNL     1      35.764 -18.954 -21.316  0.00  0.00    +0.099 C 
ENDROOT
TORSDOF 0
ENDMDL
MODEL 5
REMARK VINA RESULT:      -8.5      9.152     11.082
REMARK  Name = 6764
REMARK  0 active torsions:
REMARK  status: ('A' for Active; 'I' for Inactive)
REMARK                            x       y       z     vdW  Elec       q    Type
REMARK                         _______ _______ _______ _____ _____    ______ ____
ROOT
ATOM      1  O   UNL     1      35.105 -22.752 -18.167  0.00  0.00    -0.281 OA
ATOM      2  O   UNL     1      32.568 -22.226 -18.794  0.00  0.00    -0.281 OA
ATOM      3  N   UNL     1      35.868 -23.717 -15.776  0.00  0.00    -0.240 NA
ATOM      4  N   UNL     1      30.517 -22.613 -17.101  0.00  0.00    -0.240 NA
ATOM      5  C   UNL     1      33.519 -23.704 -15.074  0.00  0.00    +0.023 C 
ATOM      6  C   UNL     1      32.114 -23.414 -15.421  0.00  0.00    +0.023 C 
ATOM      7  C   UNL     1      34.550 -23.485 -15.992  0.00  0.00    +0.123 C 
ATOM      8  C   UNL     1      31.770 -22.912 -16.680  0.00  0.00    +0.123 C 
ATOM      9  C   UNL     1      34.243 -22.960 -17.329  0.00  0.00    +0.253 C 
ATOM     10  C   UNL     1      32.815 -22.664 -17.682  0.00  0.00    +0.253 C 
ATOM     11  C   UNL     1      33.933 -24.207 -13.832  0.00  0.00    +0.003 C 
ATOM     12  C   UNL     1      31.033 -23.610 -14.550  0.00  0.00    +0.003 C 
ATOM     13  C   UNL     1      35.279 -24.460 -13.568  0.00  0.00    +0.021 C 
ATOM     14  C   UNL     1      29.726 -23.316 -14.942  0.00  0.00    +0.021 C 
ATOM     15  C   UNL     1      36.200 -24.200 -14.565  0.00  0.00    +0.099 C 
ATOM     16  C   UNL     1      29.523 -22.823 -16.216  0.00  0.00    +0.099 C 
ENDROOT
TORSDOF 0
ENDMDL
MODEL 6
REMARK VINA RESULT:      -8.5      9.162     10.508
REMARK  Name = 6764
REMARK  0 active torsions:
REMARK  status: ('A' for Active; 'I' for Inactive)
REMARK                            x       y       z     vdW  Elec       q    Type
REMARK                         _______ _______ _______ _____ _____    ______ ____
ROOT
ATOM      1  O   UNL     1      32.553 -22.271 -18.808  0.00  0.00    -0.281 OA
ATOM      2  O   UNL     1      35.109 -22.751 -18.221  0.00  0.00    -0.281 OA
ATOM      3  N   UNL     1      30.541 -22.646 -17.064  0.00  0.00    -0.240 NA
ATOM      4  N   UNL     1      35.931 -23.652 -15.826  0.00  0.00    -0.240 NA
ATOM      5  C   UNL     1      32.182 -23.388 -15.401  0.00  0.00    +0.023 C 
ATOM      6  C   UNL     1      33.597 -23.653 -15.076  0.00  0.00    +0.023 C 
ATOM      7  C   UNL     1      31.806 -22.919 -16.663  0.00  0.00    +0.123 C 
ATOM      8  C   UNL     1      34.606 -23.442 -16.020  0.00  0.00    +0.123 C 
ATOM      9  C   UNL     1      32.828 -22.680 -17.692  0.00  0.00    +0.253 C 
ATOM     10  C   UNL     1      34.266 -22.950 -17.361  0.00  0.00    +0.253 C 
ATOM     11  C   UNL     1      31.121 -23.578 -14.503  0.00  0.00    +0.003 C 
ATOM     12  C   UNL     1      34.042 -24.122 -13.831  0.00  0.00    +0.003 C 
ATOM     13  C   UNL     1      29.804 -23.308 -14.875  0.00  0.00    +0.021 C 
ATOM     14  C   UNL     1      35.397 -24.352 -13.589  0.00  0.00    +0.021 C 
ATOM     15  C   UNL     1      29.568 -22.848 -16.156  0.00  0.00    +0.099 C 
ATOM     16  C   UNL     1      36.293 -24.104 -14.610  0.00  0.00    +0.099 C 
ENDROOT
TORSDOF 0
ENDMDL
MODEL 7
REMARK VINA RESULT:      -8.5      2.096      3.362
REMARK  Name = 6764
REMARK  0 active torsions:
REMARK  status: ('A' for Active; 'I' for Inactive)
REMARK                            x       y       z     vdW  Elec       q    Type
REMARK                         _______ _______ _______ _____ _____    ______ ____
ROOT
ATOM      1  O   UNL     1      34.554 -17.983 -25.899  0.00  0.00    -0.281 OA
ATOM      2  O   UNL     1      35.184 -18.665 -23.400  0.00  0.00    -0.281 OA
ATOM      3  N   UNL     1      33.622 -15.554 -26.577  0.00  0.00    -0.240 NA
ATOM      4  N   UNL     1      34.956 -16.992 -21.309  0.00  0.00    -0.240 NA
ATOM      5  C   UNL     1      33.776 -14.888 -24.223  0.00  0.00    +0.023 C 
ATOM      6  C   UNL     1      34.126 -15.265 -22.840  0.00  0.00    +0.023 C 
ATOM      7  C   UNL     1      33.913 -15.797 -25.276  0.00  0.00    +0.123 C 
ATOM      8  C   UNL     1      34.606 -16.543 -22.539  0.00  0.00    +0.123 C 
ATOM      9  C   UNL     1      34.415 -17.153 -25.015  0.00  0.00    +0.253 C 
ATOM     10  C   UNL     1      34.770 -17.536 -23.609  0.00  0.00    +0.253 C 
ATOM     11  C   UNL     1      33.290 -13.626 -24.593  0.00  0.00    +0.003 C 
ATOM     12  C   UNL     1      34.013 -14.404 -21.739  0.00  0.00    +0.003 C 
ATOM     13  C   UNL     1      32.977 -13.333 -25.921  0.00  0.00    +0.021 C 
ATOM     14  C   UNL     1      34.362 -14.824 -20.454  0.00  0.00    +0.021 C 
ATOM     15  C   UNL     1      33.159 -14.323 -26.867  0.00  0.00    +0.099 C 
ATOM     16  C   UNL     1      34.824 -16.116 -20.294  0.00  0.00    +0.099 C 
ENDROOT
TORSDOF 0
ENDMDL
MODEL 8
REMARK VINA RESULT:      -8.4      9.681     11.737
REMARK  Name = 6764
REMARK  0 active torsions:
REMARK  status: ('A' for Active; 'I' for Inactive)
REMARK                            x       y       z     vdW  Elec       q    Type
REMARK                         _______ _______ _______ _____ _____    ______ ____
ROOT
ATOM      1  O   UNL     1      36.204 -23.498 -14.395  0.00  0.00    -0.281 OA
ATOM      2  O   UNL     1      34.363 -24.377 -12.680  0.00  0.00    -0.281 OA
ATOM      3  N   UNL     1      35.635 -22.724 -16.907  0.00  0.00    -0.240 NA
ATOM      4  N   UNL     1      31.752 -24.573 -13.286  0.00  0.00    -0.240 NA
ATOM      5  C   UNL     1      33.276 -23.238 -16.481  0.00  0.00    +0.023 C 
ATOM      6  C   UNL     1      32.256 -23.723 -15.530  0.00  0.00    +0.023 C 
ATOM      7  C   UNL     1      34.623 -23.154 -16.115  0.00  0.00    +0.123 C 
ATOM      8  C   UNL     1      32.605 -24.114 -14.234  0.00  0.00    +0.123 C 
ATOM      9  C   UNL     1      35.043 -23.552 -14.764  0.00  0.00    +0.253 C 
ATOM     10  C   UNL     1      34.006 -24.046 -13.799  0.00  0.00    +0.253 C 
ATOM     11  C   UNL     1      32.995 -22.830 -17.793  0.00  0.00    +0.003 C 
ATOM     12  C   UNL     1      30.891 -23.831 -15.831  0.00  0.00    +0.003 C 
ATOM     13  C   UNL     1      34.007 -22.381 -18.641  0.00  0.00    +0.021 C 
ATOM     14  C   UNL     1      29.977 -24.298 -14.885  0.00  0.00    +0.021 C 
ATOM     15  C   UNL     1      35.300 -22.347 -18.155  0.00  0.00    +0.099 C 
ATOM     16  C   UNL     1      30.454 -24.654 -13.638  0.00  0.00    +0.099 C 
ENDROOT
TORSDOF 0
ENDMDL
MODEL 9
REMARK VINA RESULT:      -8.4      9.701     11.630
REMARK  Name = 6764
REMARK  0 active torsions:
REMARK  status: ('A' for Active; 'I' for Inactive)
REMARK                            x       y       z     vdW  Elec       q    Type
REMARK                         _______ _______ _______ _____ _____    ______ ____
ROOT
ATOM      1  O   UNL     1      34.375 -24.331 -12.629  0.00  0.00    -0.281 OA
ATOM      2  O   UNL     1      36.214 -23.452 -14.348  0.00  0.00    -0.281 OA
ATOM      3  N   UNL     1      31.768 -24.562 -13.244  0.00  0.00    -0.240 NA
ATOM      4  N   UNL     1      35.648 -22.715 -16.870  0.00  0.00    -0.240 NA
ATOM      5  C   UNL     1      32.273 -23.733 -15.496  0.00  0.00    +0.023 C 
ATOM      6  C   UNL     1      33.292 -23.248 -16.448  0.00  0.00    +0.023 C 
ATOM      7  C   UNL     1      32.621 -24.105 -14.194  0.00  0.00    +0.123 C 
ATOM      8  C   UNL     1      34.636 -23.146 -16.077  0.00  0.00    +0.123 C 
ATOM      9  C   UNL     1      34.020 -24.018 -13.754  0.00  0.00    +0.253 C 
ATOM     10  C   UNL     1      35.055 -23.524 -14.721  0.00  0.00    +0.253 C 
ATOM     11  C   UNL     1      30.911 -23.860 -15.801  0.00  0.00    +0.003 C 
ATOM     12  C   UNL     1      33.012 -22.860 -17.766  0.00  0.00    +0.003 C 
ATOM     13  C   UNL     1      29.999 -24.326 -14.854  0.00  0.00    +0.021 C 
ATOM     14  C   UNL     1      34.024 -22.410 -18.616  0.00  0.00    +0.021 C 
ATOM     15  C   UNL     1      30.474 -24.661 -13.600  0.00  0.00    +0.099 C 
ATOM     16  C   UNL     1      35.313 -22.356 -18.124  0.00  0.00    +0.099 C 
ENDROOT
TORSDOF 0
ENDMDL
