MODEL 1
REMARK VINA RESULT:      -7.8      0.000      0.000
REMARK  Name = 62277
REMARK  9 active torsions:
REMARK  status: ('A' for Active; 'I' for Inactive)
REMARK    1  A    between atoms: N_3  and  C_19
REMARK    2  A    between atoms: N_4  and  C_22
REMARK    3  A    between atoms: C_5  and  N_9
REMARK    4  A    between atoms: N_9  and  C_13
REMARK    5  A    between atoms: N_10  and  C_16
REMARK    6  A    between atoms: C_13  and  O_14
REMARK    7  A    between atoms: C_16  and  O_17
REMARK    8  A    between atoms: C_19  and  O_20
REMARK    9  A    between atoms: C_22  and  O_23
REMARK                            x       y       z     vdW  Elec       q    Type
REMARK                         _______ _______ _______ _____ _____    ______ ____
ROOT
ATOM      1  O   UNL     1      36.014 -22.758 -17.293  0.00  0.00    -0.271 OA
ATOM      2  O   UNL     1      31.916 -23.774 -15.453  0.00  0.00    -0.252 OA
ATOM      3  N   UNL     1      34.089 -23.725 -14.567  0.00  0.00    -0.215 N 
ATOM      4  N   UNL     1      33.792 -23.169 -16.707  0.00  0.00    -0.184 N 
ATOM      5  C   UNL     1      35.421 -23.413 -15.030  0.00  0.00    +0.240 C 
ATOM      6  C   UNL     1      35.149 -23.059 -16.482  0.00  0.00    +0.273 C 
ATOM      7  C   UNL     1      33.120 -23.579 -15.568  0.00  0.00    +0.318 C 
ENDROOT
BRANCH   5   9
ATOM      8  O   UNL     1      38.219 -23.118 -15.007  0.00  0.00    -0.252 OA
ATOM      9  N   UNL     1      36.348 -24.502 -14.991  0.00  0.00    -0.215 N 
ATOM     10  N   UNL     1      38.557 -25.391 -14.955  0.00  0.00    -0.264 N 
ATOM     11  C   UNL     1      37.748 -24.259 -14.983  0.00  0.00    +0.309 C 
ATOM     12  H   UNL     1      38.132 -26.279 -14.936  0.00  0.00    +0.153 HD
BRANCH   9  13
ATOM     13  C   UNL     1      35.781 -25.862 -14.973  0.00  0.00    +0.242 C 
BRANCH  13  14
ATOM     14  O   UNL     1      36.302 -26.611 -16.058  0.00  0.00    -0.364 OA
ATOM     15  H   UNL     1      37.229 -26.369 -16.203  0.00  0.00    +0.212 HD
ENDBRANCH  13  14
ENDBRANCH   9  13
BRANCH  10  16
ATOM     16  C   UNL     1      39.999 -25.306 -14.954  0.00  0.00    +0.237 C 
BRANCH  16  17
ATOM     17  O   UNL     1      40.497 -25.976 -16.096  0.00  0.00    -0.364 OA
ATOM     18  H   UNL     1      41.290 -26.480 -15.854  0.00  0.00    +0.212 HD
ENDBRANCH  16  17
ENDBRANCH  10  16
ENDBRANCH   5   9
BRANCH   3  19
ATOM     19  C   UNL     1      33.824 -24.099 -13.192  0.00  0.00    +0.242 C 
BRANCH  19  20
ATOM     20  O   UNL     1      32.797 -25.072 -13.168  0.00  0.00    -0.364 OA
ATOM     21  H   UNL     1      32.919 -25.688 -13.908  0.00  0.00    +0.212 HD
ENDBRANCH  19  20
ENDBRANCH   3  19
BRANCH   4  22
ATOM     22  C   UNL     1      33.151 -22.890 -17.977  0.00  0.00    +0.247 C 
BRANCH  22  23
ATOM     23  O   UNL     1      33.803 -23.624 -18.994  0.00  0.00    -0.364 OA
ATOM     24  H   UNL     1      33.872 -24.555 -18.729  0.00  0.00    +0.212 HD
ENDBRANCH  22  23
ENDBRANCH   4  22
TORSDOF 9
ENDMDL
MODEL 2
REMARK VINA RESULT:      -7.7      1.906      5.686
REMARK  Name = 62277
REMARK  9 active torsions:
REMARK  status: ('A' for Active; 'I' for Inactive)
REMARK    1  A    between atoms: N_3  and  C_19
REMARK    2  A    between atoms: N_4  and  C_22
REMARK    3  A    between atoms: C_5  and  N_9
REMARK    4  A    between atoms: N_9  and  C_13
REMARK    5  A    between atoms: N_10  and  C_16
REMARK    6  A    between atoms: C_13  and  O_14
REMARK    7  A    between atoms: C_16  and  O_17
REMARK    8  A    between atoms: C_19  and  O_20
REMARK    9  A    between atoms: C_22  and  O_23
REMARK                            x       y       z     vdW  Elec       q    Type
REMARK                         _______ _______ _______ _____ _____    ______ ____
ROOT
ATOM      1  O   UNL     1      36.507 -25.982 -15.501  0.00  0.00    -0.271 OA
ATOM      2  O   UNL     1      39.150 -23.899 -12.356  0.00  0.00    -0.252 OA
ATOM      3  N   UNL     1      36.825 -24.121 -12.584  0.00  0.00    -0.215 N 
ATOM      4  N   UNL     1      38.146 -25.078 -14.106  0.00  0.00    -0.184 N 
ATOM      5  C   UNL     1      35.899 -24.751 -13.496  0.00  0.00    +0.240 C 
ATOM      6  C   UNL     1      36.856 -25.366 -14.503  0.00  0.00    +0.273 C 
ATOM      7  C   UNL     1      38.163 -24.318 -12.949  0.00  0.00    +0.318 C 
ENDROOT
BRANCH   5   9
ATOM      8  O   UNL     1      33.117 -24.623 -13.094  0.00  0.00    -0.252 OA
ATOM      9  N   UNL     1      35.023 -23.855 -14.186  0.00  0.00    -0.215 N 
ATOM     10  N   UNL     1      32.869 -22.955 -14.655  0.00  0.00    -0.264 N 
ATOM     11  C   UNL     1      33.628 -23.860 -13.919  0.00  0.00    +0.309 C 
ATOM     12  H   UNL     1      33.323 -22.367 -15.302  0.00  0.00    +0.153 HD
BRANCH   9  13
ATOM     13  C   UNL     1      35.635 -22.953 -15.179  0.00  0.00    +0.242 C 
BRANCH  13  14
ATOM     14  O   UNL     1      35.208 -23.316 -16.481  0.00  0.00    -0.364 OA
ATOM     15  H   UNL     1      34.427 -22.795 -16.723  0.00  0.00    +0.212 HD
ENDBRANCH  13  14
ENDBRANCH   9  13
BRANCH  10  16
ATOM     16  C   UNL     1      31.436 -22.851 -14.503  0.00  0.00    +0.237 C 
BRANCH  16  17
ATOM     17  O   UNL     1      30.842 -24.067 -14.914  0.00  0.00    -0.364 OA
ATOM     18  H   UNL     1      29.940 -24.121 -14.561  0.00  0.00    +0.212 HD
ENDBRANCH  16  17
ENDBRANCH  10  16
ENDBRANCH   5   9
BRANCH   3  19
ATOM     19  C   UNL     1      36.373 -23.414 -11.403  0.00  0.00    +0.242 C 
BRANCH  19  20
ATOM     20  O   UNL     1      37.286 -22.374 -11.110  0.00  0.00    -0.364 OA
ATOM     21  H   UNL     1      37.934 -22.301 -11.830  0.00  0.00    +0.212 HD
ENDBRANCH  19  20
ENDBRANCH   3  19
BRANCH   4  22
ATOM     22  C   UNL     1      39.334 -25.517 -14.811  0.00  0.00    +0.247 C 
BRANCH  22  23
ATOM     23  O   UNL     1      39.442 -26.923 -14.700  0.00  0.00    -0.364 OA
ATOM     24  H   UNL     1      38.626 -27.338 -15.022  0.00  0.00    +0.212 HD
ENDBRANCH  22  23
ENDBRANCH   4  22
TORSDOF 9
ENDMDL
MODEL 3
REMARK VINA RESULT:      -7.4      9.053     12.169
REMARK  Name = 62277
REMARK  9 active torsions:
REMARK  status: ('A' for Active; 'I' for Inactive)
REMARK    1  A    between atoms: N_3  and  C_19
REMARK    2  A    between atoms: N_4  and  C_22
REMARK    3  A    between atoms: C_5  and  N_9
REMARK    4  A    between atoms: N_9  and  C_13
REMARK    5  A    between atoms: N_10  and  C_16
REMARK    6  A    between atoms: C_13  and  O_14
REMARK    7  A    between atoms: C_16  and  O_17
REMARK    8  A    between atoms: C_19  and  O_20
REMARK    9  A    between atoms: C_22  and  O_23
REMARK                            x       y       z     vdW  Elec       q    Type
REMARK                         _______ _______ _______ _____ _____    ______ ____
ROOT
ATOM      1  O   UNL     1      35.241 -16.535 -20.244  0.00  0.00    -0.271 OA
ATOM      2  O   UNL     1      34.550 -19.001 -24.072  0.00  0.00    -0.252 OA
ATOM      3  N   UNL     1      34.412 -16.703 -23.613  0.00  0.00    -0.215 N 
ATOM      4  N   UNL     1      35.009 -18.089 -21.971  0.00  0.00    -0.184 N 
ATOM      5  C   UNL     1      34.617 -15.828 -22.483  0.00  0.00    +0.240 C 
ATOM      6  C   UNL     1      35.005 -16.829 -21.408  0.00  0.00    +0.273 C 
ATOM      7  C   UNL     1      34.646 -18.049 -23.306  0.00  0.00    +0.318 C 
ENDROOT
BRANCH   5   9
ATOM      8  O   UNL     1      34.001 -13.184 -23.222  0.00  0.00    -0.252 OA
ATOM      9  N   UNL     1      33.455 -15.117 -22.047  0.00  0.00    -0.215 N 
ATOM     10  N   UNL     1      32.069 -13.181 -21.977  0.00  0.00    -0.264 N 
ATOM     11  C   UNL     1      33.224 -13.780 -22.471  0.00  0.00    +0.309 C 
ATOM     12  H   UNL     1      31.481 -13.700 -21.381  0.00  0.00    +0.153 HD
BRANCH   9  13
ATOM     13  C   UNL     1      32.535 -15.830 -21.141  0.00  0.00    +0.242 C 
BRANCH  13  14
ATOM     14  O   UNL     1      32.484 -15.162 -19.891  0.00  0.00    -0.364 OA
ATOM     15  H   UNL     1      32.268 -14.228 -20.032  0.00  0.00    +0.212 HD
ENDBRANCH  13  14
ENDBRANCH   9  13
BRANCH  10  16
ATOM     16  C   UNL     1      31.705 -11.823 -22.309  0.00  0.00    +0.237 C 
BRANCH  16  17
ATOM     17  O   UNL     1      30.451 -11.530 -21.726  0.00  0.00    -0.364 OA
ATOM     18  H   UNL     1      30.476 -10.641 -21.338  0.00  0.00    +0.212 HD
ENDBRANCH  16  17
ENDBRANCH  10  16
ENDBRANCH   5   9
BRANCH   3  19
ATOM     19  C   UNL     1      34.049 -16.192 -24.920  0.00  0.00    +0.242 C 
BRANCH  19  20
ATOM     20  O   UNL     1      34.858 -16.814 -25.900  0.00  0.00    -0.364 OA
ATOM     21  H   UNL     1      35.150 -16.151 -26.546  0.00  0.00    +0.212 HD
ENDBRANCH  19  20
ENDBRANCH   3  19
BRANCH   4  22
ATOM     22  C   UNL     1      35.352 -19.301 -21.254  0.00  0.00    +0.247 C 
BRANCH  22  23
ATOM     23  O   UNL     1      36.490 -19.056 -20.450  0.00  0.00    -0.364 OA
ATOM     24  H   UNL     1      37.193 -19.682 -20.686  0.00  0.00    +0.212 HD
ENDBRANCH  22  23
ENDBRANCH   4  22
TORSDOF 9
ENDMDL
MODEL 4
REMARK VINA RESULT:      -7.4      2.186      3.130
REMARK  Name = 62277
REMARK  9 active torsions:
REMARK  status: ('A' for Active; 'I' for Inactive)
REMARK    1  A    between atoms: N_3  and  C_19
REMARK    2  A    between atoms: N_4  and  C_22
REMARK    3  A    between atoms: C_5  and  N_9
REMARK    4  A    between atoms: N_9  and  C_13
REMARK    5  A    between atoms: N_10  and  C_16
REMARK    6  A    between atoms: C_13  and  O_14
REMARK    7  A    between atoms: C_16  and  O_17
REMARK    8  A    between atoms: C_19  and  O_20
REMARK    9  A    between atoms: C_22  and  O_23
REMARK                            x       y       z     vdW  Elec       q    Type
REMARK                         _______ _______ _______ _____ _____    ______ ____
ROOT
ATOM      1  O   UNL     1      35.559 -24.809 -15.610  0.00  0.00    -0.271 OA
ATOM      2  O   UNL     1      33.808 -23.474 -11.564  0.00  0.00    -0.252 OA
ATOM      3  N   UNL     1      36.001 -23.567 -12.395  0.00  0.00    -0.215 N 
ATOM      4  N   UNL     1      34.324 -24.196 -13.725  0.00  0.00    -0.184 N 
ATOM      5  C   UNL     1      36.659 -23.942 -13.625  0.00  0.00    +0.240 C 
ATOM      6  C   UNL     1      35.472 -24.368 -14.472  0.00  0.00    +0.273 C 
ATOM      7  C   UNL     1      34.610 -23.719 -12.457  0.00  0.00    +0.318 C 
ENDROOT
BRANCH   5   9
ATOM      8  O   UNL     1      39.103 -24.136 -15.006  0.00  0.00    -0.252 OA
ATOM      9  N   UNL     1      37.563 -25.045 -13.517  0.00  0.00    -0.215 N 
ATOM     10  N   UNL     1      39.576 -26.186 -14.082  0.00  0.00    -0.264 N 
ATOM     11  C   UNL     1      38.778 -25.059 -14.254  0.00  0.00    +0.309 C 
ATOM     12  H   UNL     1      39.273 -26.896 -13.470  0.00  0.00    +0.153 HD
BRANCH   9  13
ATOM     13  C   UNL     1      37.166 -26.151 -12.626  0.00  0.00    +0.242 C 
BRANCH  13  14
ATOM     14  O   UNL     1      36.875 -27.304 -13.398  0.00  0.00    -0.364 OA
ATOM     15  H   UNL     1      36.177 -27.098 -14.038  0.00  0.00    +0.212 HD
ENDBRANCH  13  14
ENDBRANCH   9  13
BRANCH  10  16
ATOM     16  C   UNL     1      40.834 -26.350 -14.773  0.00  0.00    +0.237 C 
BRANCH  16  17
ATOM     17  O   UNL     1      40.649 -26.044 -16.141  0.00  0.00    -0.364 OA
ATOM     18  H   UNL     1      41.397 -25.513 -16.457  0.00  0.00    +0.212 HD
ENDBRANCH  16  17
ENDBRANCH  10  16
ENDBRANCH   5   9
BRANCH   3  19
ATOM     19  C   UNL     1      36.738 -23.047 -11.260  0.00  0.00    +0.242 C 
BRANCH  19  20
ATOM     20  O   UNL     1      36.434 -23.824 -10.118  0.00  0.00    -0.364 OA
ATOM     21  H   UNL     1      36.696 -23.339  -9.319  0.00  0.00    +0.212 HD
ENDBRANCH  19  20
ENDBRANCH   3  19
BRANCH   4  22
ATOM     22  C   UNL     1      32.988 -24.479 -14.208  0.00  0.00    +0.247 C 
BRANCH  22  23
ATOM     23  O   UNL     1      32.295 -25.236 -13.233  0.00  0.00    -0.364 OA
ATOM     24  H   UNL     1      32.160 -26.139 -13.561  0.00  0.00    +0.212 HD
ENDBRANCH  22  23
ENDBRANCH   4  22
TORSDOF 9
ENDMDL
MODEL 5
REMARK VINA RESULT:      -7.3     10.397     13.403
REMARK  Name = 62277
REMARK  9 active torsions:
REMARK  status: ('A' for Active; 'I' for Inactive)
REMARK    1  A    between atoms: N_3  and  C_19
REMARK    2  A    between atoms: N_4  and  C_22
REMARK    3  A    between atoms: C_5  and  N_9
REMARK    4  A    between atoms: N_9  and  C_13
REMARK    5  A    between atoms: N_10  and  C_16
REMARK    6  A    between atoms: C_13  and  O_14
REMARK    7  A    between atoms: C_16  and  O_17
REMARK    8  A    between atoms: C_19  and  O_20
REMARK    9  A    between atoms: C_22  and  O_23
REMARK                            x       y       z     vdW  Elec       q    Type
REMARK                         _______ _______ _______ _____ _____    ______ ____
ROOT
ATOM      1  O   UNL     1      35.207 -15.795 -21.585  0.00  0.00    -0.271 OA
ATOM      2  O   UNL     1      33.866 -17.345 -25.709  0.00  0.00    -0.252 OA
ATOM      3  N   UNL     1      33.731 -15.240 -24.680  0.00  0.00    -0.215 N 
ATOM      4  N   UNL     1      34.698 -16.915 -23.569  0.00  0.00    -0.184 N 
ATOM      5  C   UNL     1      34.123 -14.640 -23.426  0.00  0.00    +0.240 C 
ATOM      6  C   UNL     1      34.756 -15.827 -22.721  0.00  0.00    +0.273 C 
ATOM      7  C   UNL     1      34.075 -16.595 -24.763  0.00  0.00    +0.318 C 
ENDROOT
BRANCH   5   9
ATOM      8  O   UNL     1      33.127 -12.010 -23.524  0.00  0.00    -0.252 OA
ATOM      9  N   UNL     1      33.044 -14.154 -22.623  0.00  0.00    -0.215 N 
ATOM     10  N   UNL     1      31.557 -12.439 -21.902  0.00  0.00    -0.264 N 
ATOM     11  C   UNL     1      32.606 -12.807 -22.739  0.00  0.00    +0.309 C 
ATOM     12  H   UNL     1      31.175 -13.112 -21.293  0.00  0.00    +0.153 HD
BRANCH   9  13
ATOM     13  C   UNL     1      32.431 -15.106 -21.679  0.00  0.00    +0.242 C 
BRANCH  13  14
ATOM     14  O   UNL     1      32.678 -14.684 -20.348  0.00  0.00    -0.364 OA
ATOM     15  H   UNL     1      33.466 -15.134 -20.006  0.00  0.00    +0.212 HD
ENDBRANCH  13  14
ENDBRANCH   9  13
BRANCH  10  16
ATOM     16  C   UNL     1      31.011 -11.101 -21.896  0.00  0.00    +0.237 C 
BRANCH  16  17
ATOM     17  O   UNL     1      32.018 -10.197 -21.485  0.00  0.00    -0.364 OA
ATOM     18  H   UNL     1      32.061 -10.181 -20.516  0.00  0.00    +0.212 HD
ENDBRANCH  16  17
ENDBRANCH  10  16
ENDBRANCH   5   9
BRANCH   3  19
ATOM     19  C   UNL     1      33.096 -14.470 -25.732  0.00  0.00    +0.242 C 
BRANCH  19  20
ATOM     20  O   UNL     1      33.595 -14.900 -26.984  0.00  0.00    -0.364 OA
ATOM     21  H   UNL     1      34.095 -15.723 -26.866  0.00  0.00    +0.212 HD
ENDBRANCH  19  20
ENDBRANCH   3  19
BRANCH   4  22
ATOM     22  C   UNL     1      35.223 -18.227 -23.248  0.00  0.00    +0.247 C 
BRANCH  22  23
ATOM     23  O   UNL     1      36.561 -18.093 -22.808  0.00  0.00    -0.364 OA
ATOM     24  H   UNL     1      37.068 -17.588 -23.463  0.00  0.00    +0.212 HD
ENDBRANCH  22  23
ENDBRANCH   4  22
TORSDOF 9
ENDMDL
MODEL 6
REMARK VINA RESULT:      -7.1      7.282      9.342
REMARK  Name = 62277
REMARK  9 active torsions:
REMARK  status: ('A' for Active; 'I' for Inactive)
REMARK    1  A    between atoms: N_3  and  C_19
REMARK    2  A    between atoms: N_4  and  C_22
REMARK    3  A    between atoms: C_5  and  N_9
REMARK    4  A    between atoms: N_9  and  C_13
REMARK    5  A    between atoms: N_10  and  C_16
REMARK    6  A    between atoms: C_13  and  O_14
REMARK    7  A    between atoms: C_16  and  O_17
REMARK    8  A    between atoms: C_19  and  O_20
REMARK    9  A    between atoms: C_22  and  O_23
REMARK                            x       y       z     vdW  Elec       q    Type
REMARK                         _______ _______ _______ _____ _____    ______ ____
ROOT
ATOM      1  O   UNL     1      35.669 -18.983 -24.009  0.00  0.00    -0.271 OA
ATOM      2  O   UNL     1      33.376 -15.040 -23.377  0.00  0.00    -0.252 OA
ATOM      3  N   UNL     1      34.720 -16.343 -21.961  0.00  0.00    -0.215 N 
ATOM      4  N   UNL     1      34.423 -17.010 -24.069  0.00  0.00    -0.184 N 
ATOM      5  C   UNL     1      35.489 -17.562 -22.047  0.00  0.00    +0.240 C 
ATOM      6  C   UNL     1      35.235 -17.964 -23.490  0.00  0.00    +0.273 C 
ATOM      7  C   UNL     1      34.086 -16.015 -23.166  0.00  0.00    +0.318 C 
ENDROOT
BRANCH   5   9
ATOM      8  O   UNL     1      37.202 -19.384 -20.757  0.00  0.00    -0.252 OA
ATOM      9  N   UNL     1      35.047 -18.620 -21.193  0.00  0.00    -0.215 N 
ATOM     10  N   UNL     1      35.444 -20.496 -19.779  0.00  0.00    -0.264 N 
ATOM     11  C   UNL     1      35.985 -19.496 -20.582  0.00  0.00    +0.309 C 
ATOM     12  H   UNL     1      34.466 -20.542 -19.671  0.00  0.00    +0.153 HD
BRANCH   9  13
ATOM     13  C   UNL     1      33.593 -18.757 -20.994  0.00  0.00    +0.242 C 
BRANCH  13  14
ATOM     14  O   UNL     1      33.180 -20.060 -21.370  0.00  0.00    -0.364 OA
ATOM     15  H   UNL     1      33.909 -20.683 -21.229  0.00  0.00    +0.212 HD
ENDBRANCH  13  14
ENDBRANCH   9  13
BRANCH  10  16
ATOM     16  C   UNL     1      36.270 -21.468 -19.101  0.00  0.00    +0.237 C 
BRANCH  16  17
ATOM     17  O   UNL     1      36.933 -20.835 -18.024  0.00  0.00    -0.364 OA
ATOM     18  H   UNL     1      36.345 -20.810 -17.253  0.00  0.00    +0.212 HD
ENDBRANCH  16  17
ENDBRANCH  10  16
ENDBRANCH   5   9
BRANCH   3  19
ATOM     19  C   UNL     1      34.677 -15.549 -20.749  0.00  0.00    +0.242 C 
BRANCH  19  20
ATOM     20  O   UNL     1      33.331 -15.235 -20.450  0.00  0.00    -0.364 OA
ATOM     21  H   UNL     1      33.150 -15.443 -19.520  0.00  0.00    +0.212 HD
ENDBRANCH  19  20
ENDBRANCH   3  19
BRANCH   4  22
ATOM     22  C   UNL     1      33.981 -17.044 -25.448  0.00  0.00    +0.247 C 
BRANCH  22  23
ATOM     23  O   UNL     1      34.163 -15.764 -26.023  0.00  0.00    -0.364 OA
ATOM     24  H   UNL     1      33.298 -15.347 -26.164  0.00  0.00    +0.212 HD
ENDBRANCH  22  23
ENDBRANCH   4  22
TORSDOF 9
ENDMDL
MODEL 7
REMARK VINA RESULT:      -6.7     11.343     14.074
REMARK  Name = 62277
REMARK  9 active torsions:
REMARK  status: ('A' for Active; 'I' for Inactive)
REMARK    1  A    between atoms: N_3  and  C_19
REMARK    2  A    between atoms: N_4  and  C_22
REMARK    3  A    between atoms: C_5  and  N_9
REMARK    4  A    between atoms: N_9  and  C_13
REMARK    5  A    between atoms: N_10  and  C_16
REMARK    6  A    between atoms: C_13  and  O_14
REMARK    7  A    between atoms: C_16  and  O_17
REMARK    8  A    between atoms: C_19  and  O_20
REMARK    9  A    between atoms: C_22  and  O_23
REMARK                            x       y       z     vdW  Elec       q    Type
REMARK                         _______ _______ _______ _____ _____    ______ ____
ROOT
ATOM      1  O   UNL     1      32.679 -14.428 -25.587  0.00  0.00    -0.271 OA
ATOM      2  O   UNL     1      35.257 -16.486 -22.372  0.00  0.00    -0.252 OA
ATOM      3  N   UNL     1      33.648 -14.780 -22.269  0.00  0.00    -0.215 N 
ATOM      4  N   UNL     1      34.107 -15.701 -24.248  0.00  0.00    -0.184 N 
ATOM      5  C   UNL     1      32.780 -14.078 -23.185  0.00  0.00    +0.240 C 
ATOM      6  C   UNL     1      33.150 -14.739 -24.502  0.00  0.00    +0.273 C 
ATOM      7  C   UNL     1      34.438 -15.747 -22.905  0.00  0.00    +0.318 C 
ENDROOT
BRANCH   5   9
ATOM      8  O   UNL     1      31.277 -12.097 -21.868  0.00  0.00    -0.252 OA
ATOM      9  N   UNL     1      33.022 -12.673 -23.295  0.00  0.00    -0.215 N 
ATOM     10  N   UNL     1      32.530 -10.400 -22.781  0.00  0.00    -0.264 N 
ATOM     11  C   UNL     1      32.211 -11.742 -22.593  0.00  0.00    +0.309 C 
ATOM     12  H   UNL     1      33.285 -10.168 -23.370  0.00  0.00    +0.153 HD
BRANCH   9  13
ATOM     13  C   UNL     1      34.132 -12.253 -24.170  0.00  0.00    +0.242 C 
BRANCH  13  14
ATOM     14  O   UNL     1      33.623 -11.498 -25.257  0.00  0.00    -0.364 OA
ATOM     15  H   UNL     1      33.031 -10.807 -24.922  0.00  0.00    +0.212 HD
ENDBRANCH  13  14
ENDBRANCH   9  13
BRANCH  10  16
ATOM     16  C   UNL     1      31.788  -9.337 -22.144  0.00  0.00    +0.237 C 
BRANCH  16  17
ATOM     17  O   UNL     1      31.896  -9.481 -20.741  0.00  0.00    -0.364 OA
ATOM     18  H   UNL     1      32.375 -10.299 -20.536  0.00  0.00    +0.212 HD
ENDBRANCH  16  17
ENDBRANCH  10  16
ENDBRANCH   5   9
BRANCH   3  19
ATOM     19  C   UNL     1      33.634 -14.514 -20.845  0.00  0.00    +0.242 C 
BRANCH  19  20
ATOM     20  O   UNL     1      34.924 -14.754 -20.317  0.00  0.00    -0.364 OA
ATOM     21  H   UNL     1      34.948 -14.481 -19.386  0.00  0.00    +0.212 HD
ENDBRANCH  19  20
ENDBRANCH   3  19
BRANCH   4  22
ATOM     22  C   UNL     1      34.692 -16.556 -25.262  0.00  0.00    +0.247 C 
BRANCH  22  23
ATOM     23  O   UNL     1      33.661 -17.274 -25.911  0.00  0.00    -0.364 OA
ATOM     24  H   UNL     1      33.593 -16.981 -26.834  0.00  0.00    +0.212 HD
ENDBRANCH  22  23
ENDBRANCH   4  22
TORSDOF 9
ENDMDL
MODEL 8
REMARK VINA RESULT:      -6.6      1.921      2.473
REMARK  Name = 62277
REMARK  9 active torsions:
REMARK  status: ('A' for Active; 'I' for Inactive)
REMARK    1  A    between atoms: N_3  and  C_19
REMARK    2  A    between atoms: N_4  and  C_22
REMARK    3  A    between atoms: C_5  and  N_9
REMARK    4  A    between atoms: N_9  and  C_13
REMARK    5  A    between atoms: N_10  and  C_16
REMARK    6  A    between atoms: C_13  and  O_14
REMARK    7  A    between atoms: C_16  and  O_17
REMARK    8  A    between atoms: C_19  and  O_20
REMARK    9  A    between atoms: C_22  and  O_23
REMARK                            x       y       z     vdW  Elec       q    Type
REMARK                         _______ _______ _______ _____ _____    ______ ____
ROOT
ATOM      1  O   UNL     1      37.149 -22.151 -16.455  0.00  0.00    -0.271 OA
ATOM      2  O   UNL     1      32.912 -23.062 -18.016  0.00  0.00    -0.252 OA
ATOM      3  N   UNL     1      33.890 -23.214 -15.888  0.00  0.00    -0.215 N 
ATOM      4  N   UNL     1      35.132 -22.473 -17.587  0.00  0.00    -0.184 N 
ATOM      5  C   UNL     1      35.175 -22.946 -15.284  0.00  0.00    +0.240 C 
ATOM      6  C   UNL     1      35.966 -22.463 -16.487  0.00  0.00    +0.273 C 
ATOM      7  C   UNL     1      33.867 -22.931 -17.259  0.00  0.00    +0.318 C 
ENDROOT
BRANCH   5   9
ATOM      8  O   UNL     1      36.920 -22.861 -13.079  0.00  0.00    -0.252 OA
ATOM      9  N   UNL     1      35.835 -24.088 -14.732  0.00  0.00    -0.215 N 
ATOM     10  N   UNL     1      37.300 -25.126 -13.166  0.00  0.00    -0.264 N 
ATOM     11  C   UNL     1      36.703 -23.952 -13.614  0.00  0.00    +0.309 C 
ATOM     12  H   UNL     1      37.093 -25.971 -13.627  0.00  0.00    +0.153 HD
BRANCH   9  13
ATOM     13  C   UNL     1      35.580 -25.387 -15.380  0.00  0.00    +0.242 C 
BRANCH  13  14
ATOM     14  O   UNL     1      36.808 -25.965 -15.791  0.00  0.00    -0.364 OA
ATOM     15  H   UNL     1      37.538 -25.370 -15.563  0.00  0.00    +0.212 HD
ENDBRANCH  13  14
ENDBRANCH   9  13
BRANCH  10  16
ATOM     16  C   UNL     1      38.215 -25.145 -12.048  0.00  0.00    +0.237 C 
BRANCH  16  17
ATOM     17  O   UNL     1      37.632 -24.444 -10.967  0.00  0.00    -0.364 OA
ATOM     18  H   UNL     1      38.259 -24.411 -10.228  0.00  0.00    +0.212 HD
ENDBRANCH  16  17
ENDBRANCH  10  16
ENDBRANCH   5   9
BRANCH   3  19
ATOM     19  C   UNL     1      32.760 -23.678 -15.108  0.00  0.00    +0.242 C 
BRANCH  19  20
ATOM     20  O   UNL     1      32.593 -22.832 -13.987  0.00  0.00    -0.364 OA
ATOM     21  H   UNL     1      32.064 -23.288 -13.314  0.00  0.00    +0.212 HD
ENDBRANCH  19  20
ENDBRANCH   3  19
BRANCH   4  22
ATOM     22  C   UNL     1      35.530 -22.056 -18.916  0.00  0.00    +0.247 C 
BRANCH  22  23
ATOM     23  O   UNL     1      36.388 -20.937 -18.811  0.00  0.00    -0.364 OA
ATOM     24  H   UNL     1      35.859 -20.123 -18.802  0.00  0.00    +0.212 HD
ENDBRANCH  22  23
ENDBRANCH   4  22
TORSDOF 9
ENDMDL
MODEL 9
REMARK VINA RESULT:      -6.6     11.567     13.683
REMARK  Name = 62277
REMARK  9 active torsions:
REMARK  status: ('A' for Active; 'I' for Inactive)
REMARK    1  A    between atoms: N_3  and  C_19
REMARK    2  A    between atoms: N_4  and  C_22
REMARK    3  A    between atoms: C_5  and  N_9
REMARK    4  A    between atoms: N_9  and  C_13
REMARK    5  A    between atoms: N_10  and  C_16
REMARK    6  A    between atoms: C_13  and  O_14
REMARK    7  A    between atoms: C_16  and  O_17
REMARK    8  A    between atoms: C_19  and  O_20
REMARK    9  A    between atoms: C_22  and  O_23
REMARK                            x       y       z     vdW  Elec       q    Type
REMARK                         _______ _______ _______ _____ _____    ______ ____
ROOT
ATOM      1  O   UNL     1      34.378 -11.685 -24.850  0.00  0.00    -0.271 OA
ATOM      2  O   UNL     1      31.246 -11.681 -21.473  0.00  0.00    -0.252 OA
ATOM      3  N   UNL     1      32.809 -13.278 -22.191  0.00  0.00    -0.215 N 
ATOM      4  N   UNL     1      32.725 -11.313 -23.243  0.00  0.00    -0.184 N 
ATOM      5  C   UNL     1      33.833 -13.386 -23.203  0.00  0.00    +0.240 C 
ATOM      6  C   UNL     1      33.713 -12.033 -23.884  0.00  0.00    +0.273 C 
ATOM      7  C   UNL     1      32.150 -12.042 -22.216  0.00  0.00    +0.318 C 
ENDROOT
BRANCH   5   9
ATOM      8  O   UNL     1      35.167 -15.864 -23.234  0.00  0.00    -0.252 OA
ATOM      9  N   UNL     1      33.616 -14.409 -24.179  0.00  0.00    -0.215 N 
ATOM     10  N   UNL     1      34.054 -16.551 -25.123  0.00  0.00    -0.264 N 
ATOM     11  C   UNL     1      34.336 -15.632 -24.117  0.00  0.00    +0.309 C 
ATOM     12  H   UNL     1      33.382 -16.319 -25.805  0.00  0.00    +0.153 HD
BRANCH   9  13
ATOM     13  C   UNL     1      32.631 -14.124 -25.239  0.00  0.00    +0.242 C 
BRANCH  13  14
ATOM     14  O   UNL     1      33.276 -14.121 -26.501  0.00  0.00    -0.364 OA
ATOM     15  H   UNL     1      33.068 -14.941 -26.974  0.00  0.00    +0.212 HD
ENDBRANCH  13  14
ENDBRANCH   9  13
BRANCH  10  16
ATOM     16  C   UNL     1      34.714 -17.834 -25.201  0.00  0.00    +0.237 C 
BRANCH  16  17
ATOM     17  O   UNL     1      34.545 -18.511 -23.970  0.00  0.00    -0.364 OA
ATOM     18  H   UNL     1      35.414 -18.709 -23.589  0.00  0.00    +0.212 HD
ENDBRANCH  16  17
ENDBRANCH  10  16
ENDBRANCH   5   9
BRANCH   3  19
ATOM     19  C   UNL     1      32.558 -14.342 -21.239  0.00  0.00    +0.242 C 
BRANCH  19  20
ATOM     20  O   UNL     1      33.789 -14.768 -20.687  0.00  0.00    -0.364 OA
ATOM     21  H   UNL     1      33.697 -14.856 -19.725  0.00  0.00    +0.212 HD
ENDBRANCH  19  20
ENDBRANCH   3  19
BRANCH   4  22
ATOM     22  C   UNL     1      32.339  -9.963 -23.602  0.00  0.00    +0.247 C 
BRANCH  22  23
ATOM     23  O   UNL     1      32.419  -9.140 -22.454  0.00  0.00    -0.364 OA
ATOM     24  H   UNL     1      31.832  -8.375 -22.562  0.00  0.00    +0.212 HD
ENDBRANCH  22  23
ENDBRANCH   4  22
TORSDOF 9
ENDMDL
