MODEL 1
REMARK VINA RESULT:      -6.0      0.000      0.000
REMARK  Name = 44473425
REMARK  10 active torsions:
REMARK  status: ('A' for Active; 'I' for Inactive)
REMARK    1  A    between atoms: C_1  and  C_2
REMARK    2  A    between atoms: C_1  and  CA_11
REMARK    3  A    between atoms: C_2  and  C_4
REMARK    4  A    between atoms: C_2  and  C_7
REMARK    5  A    between atoms: C_4  and  O_5
REMARK    6  A    between atoms: C_7  and  C_8
REMARK    7  A    between atoms: C_8  and  C_10
REMARK    8  A    between atoms: CA_11  and  N_12
REMARK    9  A    between atoms: CA_11  and  C_17
REMARK   10  A    between atoms: C_17  and  O_18
REMARK                            x       y       z     vdW  Elec       q    Type
REMARK                         _______ _______ _______ _____ _____    ______ ____
ROOT
ATOM      1  C   UNL     1      37.811 -24.204 -14.426  0.00  0.00    +0.000 C 
ENDROOT
BRANCH   1   2
ATOM      2  C   UNL     1      36.998 -24.179 -13.113  0.00  0.00    +0.097 C 
BRANCH   2   4
ATOM      3  O   UNL     1      37.180 -22.424 -11.432  0.00  0.00    -0.250 OA
ATOM      4  C   UNL     1      37.703 -23.335 -12.061  0.00  0.00    +0.313 C 
BRANCH   4   5
ATOM      5  O   UNL     1      38.990 -23.722 -11.863  0.00  0.00    -0.480 OA
ATOM      6  H   UNL     1      39.324 -23.807 -10.992  0.00  0.00    +0.295 HD
ENDBRANCH   4   5
ENDBRANCH   2   4
BRANCH   2   7
ATOM      7  C   UNL     1      35.585 -23.597 -13.307  0.00  0.00    +0.014 C 
BRANCH   7   8
ATOM      8  C   UNL     1      34.775 -24.321 -14.386  0.00  0.00    +0.039 C 
BRANCH   8  10
ATOM      9  F   UNL     1      35.177 -22.612 -15.948  0.00  0.00    -0.234 F 
ATOM     10  C   UNL     1      34.179 -23.342 -15.384  0.00  0.00    +0.193 C 
ENDBRANCH   8  10
ENDBRANCH   7   8
ENDBRANCH   2   7
ENDBRANCH   1   2
BRANCH   1  11
ATOM     11  CA  UNL     1      38.502 -25.551 -14.716  0.00  0.00    +0.036 C 
BRANCH  11  12
ATOM     12  N   UNL     1      38.332 -26.480 -13.603  0.00  0.00    +0.389 N 
ATOM     13  H1  UNL     1      39.077 -26.336 -12.922  0.00  0.00    -0.088 HD
ATOM     14  H2  UNL     1      38.369 -27.438 -13.951  0.00  0.00    -0.088 HD
ATOM     15  H3  UNL     1      37.429 -26.315 -13.157  0.00  0.00    -0.088 HD
ENDBRANCH  11  12
BRANCH  11  17
ATOM     16  OXT UNL     1      40.742 -24.758 -14.167  0.00  0.00    -0.253 OA
ATOM     17  C   UNL     1      39.995 -25.363 -14.925  0.00  0.00    +0.293 C 
BRANCH  17  18
ATOM     18  O   UNL     1      40.428 -25.948 -16.074  0.00  0.00    -0.482 OA
ATOM     19  H   UNL     1      39.877 -26.554 -16.528  0.00  0.00    +0.295 HD
ENDBRANCH  17  18
ENDBRANCH  11  17
ENDBRANCH   1  11
TORSDOF 10
ENDMDL
MODEL 2
REMARK VINA RESULT:      -6.0      2.678      4.289
REMARK  Name = 44473425
REMARK  10 active torsions:
REMARK  status: ('A' for Active; 'I' for Inactive)
REMARK    1  A    between atoms: C_1  and  C_2
REMARK    2  A    between atoms: C_1  and  CA_11
REMARK    3  A    between atoms: C_2  and  C_4
REMARK    4  A    between atoms: C_2  and  C_7
REMARK    5  A    between atoms: C_4  and  O_5
REMARK    6  A    between atoms: C_7  and  C_8
REMARK    7  A    between atoms: C_8  and  C_10
REMARK    8  A    between atoms: CA_11  and  N_12
REMARK    9  A    between atoms: CA_11  and  C_17
REMARK   10  A    between atoms: C_17  and  O_18
REMARK                            x       y       z     vdW  Elec       q    Type
REMARK                         _______ _______ _______ _____ _____    ______ ____
ROOT
ATOM      1  C   UNL     1      36.342 -23.551 -13.271  0.00  0.00    +0.000 C 
ENDROOT
BRANCH   1   2
ATOM      2  C   UNL     1      37.356 -24.322 -14.144  0.00  0.00    +0.097 C 
BRANCH   2   4
ATOM      3  O   UNL     1      36.471 -26.093 -15.566  0.00  0.00    -0.250 OA
ATOM      4  C   UNL     1      36.840 -25.719 -14.461  0.00  0.00    +0.313 C 
BRANCH   4   5
ATOM      5  O   UNL     1      36.859 -26.536 -13.376  0.00  0.00    -0.480 OA
ATOM      6  H   UNL     1      36.333 -27.311 -13.365  0.00  0.00    +0.295 HD
ENDBRANCH   4   5
ENDBRANCH   2   4
BRANCH   2   7
ATOM      7  C   UNL     1      37.636 -23.615 -15.483  0.00  0.00    +0.014 C 
BRANCH   7   8
ATOM      8  C   UNL     1      36.611 -22.528 -15.820  0.00  0.00    +0.039 C 
BRANCH   8  10
ATOM      9  F   UNL     1      36.389 -22.066 -18.113  0.00  0.00    -0.234 F 
ATOM     10  C   UNL     1      37.065 -21.683 -16.998  0.00  0.00    +0.193 C 
ENDBRANCH   8  10
ENDBRANCH   7   8
ENDBRANCH   2   7
ENDBRANCH   1   2
BRANCH   1  11
ATOM     11  CA  UNL     1      36.741 -23.444 -11.786  0.00  0.00    +0.036 C 
BRANCH  11  12
ATOM     12  N   UNL     1      38.098 -23.936 -11.568  0.00  0.00    +0.389 N 
ATOM     13  H1  UNL     1      38.169 -24.334 -10.632  0.00  0.00    -0.088 HD
ATOM     14  H2  UNL     1      38.758 -23.164 -11.661  0.00  0.00    -0.088 HD
ATOM     15  H3  UNL     1      38.314 -24.653 -12.261  0.00  0.00    -0.088 HD
ENDBRANCH  11  12
BRANCH  11  17
ATOM     16  OXT UNL     1      35.859 -24.326  -9.690  0.00  0.00    -0.253 OA
ATOM     17  C   UNL     1      35.814 -24.271 -10.912  0.00  0.00    +0.293 C 
BRANCH  17  18
ATOM     18  O   UNL     1      34.906 -24.969 -11.646  0.00  0.00    -0.482 OA
ATOM     19  H   UNL     1      34.100 -25.245 -11.256  0.00  0.00    +0.295 HD
ENDBRANCH  17  18
ENDBRANCH  11  17
ENDBRANCH   1  11
TORSDOF 10
ENDMDL
MODEL 3
REMARK VINA RESULT:      -5.9      1.378      1.615
REMARK  Name = 44473425
REMARK  10 active torsions:
REMARK  status: ('A' for Active; 'I' for Inactive)
REMARK    1  A    between atoms: C_1  and  C_2
REMARK    2  A    between atoms: C_1  and  CA_11
REMARK    3  A    between atoms: C_2  and  C_4
REMARK    4  A    between atoms: C_2  and  C_7
REMARK    5  A    between atoms: C_4  and  O_5
REMARK    6  A    between atoms: C_7  and  C_8
REMARK    7  A    between atoms: C_8  and  C_10
REMARK    8  A    between atoms: CA_11  and  N_12
REMARK    9  A    between atoms: CA_11  and  C_17
REMARK   10  A    between atoms: C_17  and  O_18
REMARK                            x       y       z     vdW  Elec       q    Type
REMARK                         _______ _______ _______ _____ _____    ______ ____
ROOT
ATOM      1  C   UNL     1      38.475 -25.068 -12.752  0.00  0.00    +0.000 C 
ENDROOT
BRANCH   1   2
ATOM      2  C   UNL     1      37.283 -24.086 -12.767  0.00  0.00    +0.097 C 
BRANCH   2   4
ATOM      3  O   UNL     1      37.029 -23.170 -10.522  0.00  0.00    -0.250 OA
ATOM      4  C   UNL     1      37.433 -23.041 -11.670  0.00  0.00    +0.313 C 
BRANCH   4   5
ATOM      5  O   UNL     1      38.103 -21.939 -12.095  0.00  0.00    -0.480 OA
ATOM      6  H   UNL     1      39.038 -21.913 -12.049  0.00  0.00    +0.295 HD
ENDBRANCH   4   5
ENDBRANCH   2   4
BRANCH   2   7
ATOM      7  C   UNL     1      37.153 -23.338 -14.107  0.00  0.00    +0.014 C 
BRANCH   7   8
ATOM      8  C   UNL     1      35.705 -23.198 -14.584  0.00  0.00    +0.039 C 
BRANCH   8  10
ATOM      9  F   UNL     1      35.623 -25.406 -15.384  0.00  0.00    -0.234 F 
ATOM     10  C   UNL     1      34.981 -24.534 -14.562  0.00  0.00    +0.193 C 
ENDBRANCH   8  10
ENDBRANCH   7   8
ENDBRANCH   2   7
ENDBRANCH   1   2
BRANCH   1  11
ATOM     11  CA  UNL     1      38.880 -25.589 -14.145  0.00  0.00    +0.036 C 
BRANCH  11  12
ATOM     12  N   UNL     1      38.278 -26.892 -14.415  0.00  0.00    +0.389 N 
ATOM     13  H1  UNL     1      38.342 -27.475 -13.581  0.00  0.00    -0.088 HD
ATOM     14  H2  UNL     1      38.773 -27.342 -15.184  0.00  0.00    -0.088 HD
ATOM     15  H3  UNL     1      37.297 -26.767 -14.667  0.00  0.00    -0.088 HD
ENDBRANCH  11  12
BRANCH  11  17
ATOM     16  OXT UNL     1      41.004 -26.773 -13.956  0.00  0.00    -0.253 OA
ATOM     17  C   UNL     1      40.386 -25.757 -14.246  0.00  0.00    +0.293 C 
BRANCH  17  18
ATOM     18  O   UNL     1      40.997 -24.630 -14.701  0.00  0.00    -0.482 OA
ATOM     19  H   UNL     1      40.635 -23.789 -14.504  0.00  0.00    +0.295 HD
ENDBRANCH  17  18
ENDBRANCH  11  17
ENDBRANCH   1  11
TORSDOF 10
ENDMDL
MODEL 4
REMARK VINA RESULT:      -5.8      1.514      1.629
REMARK  Name = 44473425
REMARK  10 active torsions:
REMARK  status: ('A' for Active; 'I' for Inactive)
REMARK    1  A    between atoms: C_1  and  C_2
REMARK    2  A    between atoms: C_1  and  CA_11
REMARK    3  A    between atoms: C_2  and  C_4
REMARK    4  A    between atoms: C_2  and  C_7
REMARK    5  A    between atoms: C_4  and  O_5
REMARK    6  A    between atoms: C_7  and  C_8
REMARK    7  A    between atoms: C_8  and  C_10
REMARK    8  A    between atoms: CA_11  and  N_12
REMARK    9  A    between atoms: CA_11  and  C_17
REMARK   10  A    between atoms: C_17  and  O_18
REMARK                            x       y       z     vdW  Elec       q    Type
REMARK                         _______ _______ _______ _____ _____    ______ ____
ROOT
ATOM      1  C   UNL     1      38.310 -24.737 -13.129  0.00  0.00    +0.000 C 
ENDROOT
BRANCH   1   2
ATOM      2  C   UNL     1      36.822 -24.384 -12.913  0.00  0.00    +0.097 C 
BRANCH   2   4
ATOM      3  O   UNL     1      37.099 -23.273 -10.761  0.00  0.00    -0.250 OA
ATOM      4  C   UNL     1      36.540 -24.125 -11.440  0.00  0.00    +0.313 C 
BRANCH   4   5
ATOM      5  O   UNL     1      35.562 -24.930 -10.952  0.00  0.00    -0.480 OA
ATOM      6  H   UNL     1      34.799 -24.554 -10.557  0.00  0.00    +0.295 HD
ENDBRANCH   4   5
ENDBRANCH   2   4
BRANCH   2   7
ATOM      7  C   UNL     1      36.397 -23.128 -13.697  0.00  0.00    +0.014 C 
BRANCH   7   8
ATOM      8  C   UNL     1      35.793 -23.445 -15.068  0.00  0.00    +0.039 C 
BRANCH   8  10
ATOM      9  F   UNL     1      37.776 -22.832 -16.168  0.00  0.00    -0.234 F 
ATOM     10  C   UNL     1      36.435 -22.612 -16.164  0.00  0.00    +0.193 C 
ENDBRANCH   8  10
ENDBRANCH   7   8
ENDBRANCH   2   7
ENDBRANCH   1   2
BRANCH   1  11
ATOM     11  CA  UNL     1      38.600 -25.463 -14.457  0.00  0.00    +0.036 C 
BRANCH  11  12
ATOM     12  N   UNL     1      38.294 -26.887 -14.356  0.00  0.00    +0.389 N 
ATOM     13  H1  UNL     1      37.993 -27.236 -15.266  0.00  0.00    -0.088 HD
ATOM     14  H2  UNL     1      37.549 -27.028 -13.674  0.00  0.00    -0.088 HD
ATOM     15  H3  UNL     1      39.128 -27.393 -14.057  0.00  0.00    -0.088 HD
ENDBRANCH  11  12
BRANCH  11  17
ATOM     16  OXT UNL     1      40.920 -24.766 -14.174  0.00  0.00    -0.253 OA
ATOM     17  C   UNL     1      40.066 -25.341 -14.836  0.00  0.00    +0.293 C 
BRANCH  17  18
ATOM     18  O   UNL     1      40.341 -25.948 -16.022  0.00  0.00    -0.482 OA
ATOM     19  H   UNL     1      40.221 -26.873 -16.114  0.00  0.00    +0.295 HD
ENDBRANCH  17  18
ENDBRANCH  11  17
ENDBRANCH   1  11
TORSDOF 10
ENDMDL
MODEL 5
REMARK VINA RESULT:      -5.7      8.536      9.710
REMARK  Name = 44473425
REMARK  10 active torsions:
REMARK  status: ('A' for Active; 'I' for Inactive)
REMARK    1  A    between atoms: C_1  and  C_2
REMARK    2  A    between atoms: C_1  and  CA_11
REMARK    3  A    between atoms: C_2  and  C_4
REMARK    4  A    between atoms: C_2  and  C_7
REMARK    5  A    between atoms: C_4  and  O_5
REMARK    6  A    between atoms: C_7  and  C_8
REMARK    7  A    between atoms: C_8  and  C_10
REMARK    8  A    between atoms: CA_11  and  N_12
REMARK    9  A    between atoms: CA_11  and  C_17
REMARK   10  A    between atoms: C_17  and  O_18
REMARK                            x       y       z     vdW  Elec       q    Type
REMARK                         _______ _______ _______ _____ _____    ______ ____
ROOT
ATOM      1  C   UNL     1      34.844 -19.737 -21.849  0.00  0.00    +0.000 C 
ENDROOT
BRANCH   1   2
ATOM      2  C   UNL     1      34.636 -20.240 -20.403  0.00  0.00    +0.097 C 
BRANCH   2   4
ATOM      3  O   UNL     1      32.236 -19.825 -20.316  0.00  0.00    -0.250 OA
ATOM      4  C   UNL     1      33.176 -20.594 -20.163  0.00  0.00    +0.313 C 
BRANCH   4   5
ATOM      5  O   UNL     1      33.013 -21.887 -19.781  0.00  0.00    -0.480 OA
ATOM      6  H   UNL     1      32.403 -22.102 -19.103  0.00  0.00    +0.295 HD
ENDBRANCH   4   5
ENDBRANCH   2   4
BRANCH   2   7
ATOM      7  C   UNL     1      35.476 -21.492 -20.090  0.00  0.00    +0.014 C 
BRANCH   7   8
ATOM      8  C   UNL     1      36.742 -21.185 -19.284  0.00  0.00    +0.039 C 
BRANCH   8  10
ATOM      9  F   UNL     1      35.469 -22.385 -17.715  0.00  0.00    -0.234 F 
ATOM     10  C   UNL     1      36.620 -21.676 -17.850  0.00  0.00    +0.193 C 
ENDBRANCH   8  10
ENDBRANCH   7   8
ENDBRANCH   2   7
ENDBRANCH   1   2
BRANCH   1  11
ATOM     11  CA  UNL     1      35.605 -18.401 -21.949  0.00  0.00    +0.036 C 
BRANCH  11  12
ATOM     12  N   UNL     1      35.230 -17.499 -20.864  0.00  0.00    +0.389 N 
ATOM     13  H1  UNL     1      35.641 -17.828 -19.991  0.00  0.00    -0.088 HD
ATOM     14  H2  UNL     1      34.214 -17.477 -20.775  0.00  0.00    -0.088 HD
ATOM     15  H3  UNL     1      35.573 -16.560 -21.068  0.00  0.00    -0.088 HD
ENDBRANCH  11  12
BRANCH  11  17
ATOM     16  OXT UNL     1      34.691 -18.188 -24.200  0.00  0.00    -0.253 OA
ATOM     17  C   UNL     1      35.292 -17.692 -23.255  0.00  0.00    +0.293 C 
BRANCH  17  18
ATOM     18  O   UNL     1      35.763 -16.417 -23.272  0.00  0.00    -0.482 OA
ATOM     19  H   UNL     1      36.129 -16.042 -22.495  0.00  0.00    +0.295 HD
ENDBRANCH  17  18
ENDBRANCH  11  17
ENDBRANCH   1  11
TORSDOF 10
ENDMDL
MODEL 6
REMARK VINA RESULT:      -5.7     12.037     13.228
REMARK  Name = 44473425
REMARK  10 active torsions:
REMARK  status: ('A' for Active; 'I' for Inactive)
REMARK    1  A    between atoms: C_1  and  C_2
REMARK    2  A    between atoms: C_1  and  CA_11
REMARK    3  A    between atoms: C_2  and  C_4
REMARK    4  A    between atoms: C_2  and  C_7
REMARK    5  A    between atoms: C_4  and  O_5
REMARK    6  A    between atoms: C_7  and  C_8
REMARK    7  A    between atoms: C_8  and  C_10
REMARK    8  A    between atoms: CA_11  and  N_12
REMARK    9  A    between atoms: CA_11  and  C_17
REMARK   10  A    between atoms: C_17  and  O_18
REMARK                            x       y       z     vdW  Elec       q    Type
REMARK                         _______ _______ _______ _____ _____    ______ ____
ROOT
ATOM      1  C   UNL     1      34.824 -15.756 -23.274  0.00  0.00    +0.000 C 
ENDROOT
BRANCH   1   2
ATOM      2  C   UNL     1      34.443 -16.527 -21.991  0.00  0.00    +0.097 C 
BRANCH   2   4
ATOM      3  O   UNL     1      35.663 -18.071 -20.554  0.00  0.00    -0.250 OA
ATOM      4  C   UNL     1      35.498 -17.572 -21.659  0.00  0.00    +0.313 C 
BRANCH   4   5
ATOM      5  O   UNL     1      36.234 -17.927 -22.744  0.00  0.00    -0.480 OA
ATOM      6  H   UNL     1      37.095 -18.280 -22.630  0.00  0.00    +0.295 HD
ENDBRANCH   4   5
ENDBRANCH   2   4
BRANCH   2   7
ATOM      7  C   UNL     1      34.304 -15.601 -20.768  0.00  0.00    +0.014 C 
BRANCH   7   8
ATOM      8  C   UNL     1      32.862 -15.154 -20.508  0.00  0.00    +0.039 C 
BRANCH   8  10
ATOM      9  F   UNL     1      32.202 -12.930 -20.138  0.00  0.00    -0.234 F 
ATOM     10  C   UNL     1      32.586 -13.789 -21.118  0.00  0.00    +0.193 C 
ENDBRANCH   8  10
ENDBRANCH   7   8
ENDBRANCH   2   7
ENDBRANCH   1   2
BRANCH   1  11
ATOM     11  CA  UNL     1      34.116 -16.258 -24.547  0.00  0.00    +0.036 C 
BRANCH  11  12
ATOM     12  N   UNL     1      35.058 -16.915 -25.449  0.00  0.00    +0.389 N 
ATOM     13  H1  UNL     1      36.009 -16.642 -25.205  0.00  0.00    -0.088 HD
ATOM     14  H2  UNL     1      34.859 -16.636 -26.410  0.00  0.00    -0.088 HD
ATOM     15  H3  UNL     1      34.962 -17.927 -25.362  0.00  0.00    -0.088 HD
ENDBRANCH  11  12
BRANCH  11  17
ATOM     16  OXT UNL     1      32.974 -14.118 -24.801  0.00  0.00    -0.253 OA
ATOM     17  C   UNL     1      33.486 -15.106 -25.311  0.00  0.00    +0.293 C 
BRANCH  17  18
ATOM     18  O   UNL     1      33.545 -15.292 -26.657  0.00  0.00    -0.482 OA
ATOM     19  H   UNL     1      32.936 -15.866 -27.078  0.00  0.00    +0.295 HD
ENDBRANCH  17  18
ENDBRANCH  11  17
ENDBRANCH   1  11
TORSDOF 10
ENDMDL
MODEL 7
REMARK VINA RESULT:      -5.7     10.117     11.268
REMARK  Name = 44473425
REMARK  10 active torsions:
REMARK  status: ('A' for Active; 'I' for Inactive)
REMARK    1  A    between atoms: C_1  and  C_2
REMARK    2  A    between atoms: C_1  and  CA_11
REMARK    3  A    between atoms: C_2  and  C_4
REMARK    4  A    between atoms: C_2  and  C_7
REMARK    5  A    between atoms: C_4  and  O_5
REMARK    6  A    between atoms: C_7  and  C_8
REMARK    7  A    between atoms: C_8  and  C_10
REMARK    8  A    between atoms: CA_11  and  N_12
REMARK    9  A    between atoms: CA_11  and  C_17
REMARK   10  A    between atoms: C_17  and  O_18
REMARK                            x       y       z     vdW  Elec       q    Type
REMARK                         _______ _______ _______ _____ _____    ______ ____
ROOT
ATOM      1  C   UNL     1      35.664 -18.283 -22.706  0.00  0.00    +0.000 C 
ENDROOT
BRANCH   1   2
ATOM      2  C   UNL     1      35.025 -18.282 -21.300  0.00  0.00    +0.097 C 
BRANCH   2   4
ATOM      3  O   UNL     1      33.056 -16.882 -20.972  0.00  0.00    -0.250 OA
ATOM      4  C   UNL     1      34.274 -16.981 -21.053  0.00  0.00    +0.313 C 
BRANCH   4   5
ATOM      5  O   UNL     1      35.110 -15.923 -20.897  0.00  0.00    -0.480 OA
ATOM      6  H   UNL     1      34.962 -15.308 -20.206  0.00  0.00    +0.295 HD
ENDBRANCH   4   5
ENDBRANCH   2   4
BRANCH   2   7
ATOM      7  C   UNL     1      34.027 -19.439 -21.107  0.00  0.00    +0.014 C 
BRANCH   7   8
ATOM      8  C   UNL     1      34.603 -20.606 -20.300  0.00  0.00    +0.039 C 
BRANCH   8  10
ATOM      9  F   UNL     1      32.447 -20.503 -19.373  0.00  0.00    -0.234 F 
ATOM     10  C   UNL     1      33.521 -21.324 -19.511  0.00  0.00    +0.193 C 
ENDBRANCH   8  10
ENDBRANCH   7   8
ENDBRANCH   2   7
ENDBRANCH   1   2
BRANCH   1  11
ATOM     11  CA  UNL     1      34.654 -18.129 -23.860  0.00  0.00    +0.036 C 
BRANCH  11  12
ATOM     12  N   UNL     1      34.725 -19.262 -24.778  0.00  0.00    +0.389 N 
ATOM     13  H1  UNL     1      33.785 -19.611 -24.960  0.00  0.00    -0.088 HD
ATOM     14  H2  UNL     1      35.289 -20.002 -24.361  0.00  0.00    -0.088 HD
ATOM     15  H3  UNL     1      35.152 -18.962 -25.654  0.00  0.00    -0.088 HD
ENDBRANCH  11  12
BRANCH  11  17
ATOM     16  OXT UNL     1      34.595 -16.690 -25.828  0.00  0.00    -0.253 OA
ATOM     17  C   UNL     1      34.936 -16.873 -24.667  0.00  0.00    +0.293 C 
BRANCH  17  18
ATOM     18  O   UNL     1      35.631 -15.950 -23.950  0.00  0.00    -0.482 OA
ATOM     19  H   UNL     1      35.346 -15.712 -23.090  0.00  0.00    +0.295 HD
ENDBRANCH  17  18
ENDBRANCH  11  17
ENDBRANCH   1  11
TORSDOF 10
ENDMDL
MODEL 8
REMARK VINA RESULT:      -5.6      9.726     11.074
REMARK  Name = 44473425
REMARK  10 active torsions:
REMARK  status: ('A' for Active; 'I' for Inactive)
REMARK    1  A    between atoms: C_1  and  C_2
REMARK    2  A    between atoms: C_1  and  CA_11
REMARK    3  A    between atoms: C_2  and  C_4
REMARK    4  A    between atoms: C_2  and  C_7
REMARK    5  A    between atoms: C_4  and  O_5
REMARK    6  A    between atoms: C_7  and  C_8
REMARK    7  A    between atoms: C_8  and  C_10
REMARK    8  A    between atoms: CA_11  and  N_12
REMARK    9  A    between atoms: CA_11  and  C_17
REMARK   10  A    between atoms: C_17  and  O_18
REMARK                            x       y       z     vdW  Elec       q    Type
REMARK                         _______ _______ _______ _____ _____    ______ ____
ROOT
ATOM      1  C   UNL     1      34.048 -17.350 -21.162  0.00  0.00    +0.000 C 
ENDROOT
BRANCH   1   2
ATOM      2  C   UNL     1      34.706 -18.516 -21.931  0.00  0.00    +0.097 C 
BRANCH   2   4
ATOM      3  O   UNL     1      36.532 -19.143 -20.444  0.00  0.00    -0.250 OA
ATOM      4  C   UNL     1      36.160 -18.682 -21.516  0.00  0.00    +0.313 C 
BRANCH   4   5
ATOM      5  O   UNL     1      37.024 -18.288 -22.486  0.00  0.00    -0.480 OA
ATOM      6  H   UNL     1      37.848 -17.906 -22.253  0.00  0.00    +0.295 HD
ENDBRANCH   4   5
ENDBRANCH   2   4
BRANCH   2   7
ATOM      7  C   UNL     1      33.994 -19.859 -21.683  0.00  0.00    +0.014 C 
BRANCH   7   8
ATOM      8  C   UNL     1      32.969 -19.801 -20.547  0.00  0.00    +0.039 C 
BRANCH   8  10
ATOM      9  F   UNL     1      34.426 -21.154 -19.295  0.00  0.00    -0.234 F 
ATOM     10  C   UNL     1      33.114 -20.986 -19.607  0.00  0.00    +0.193 C 
ENDBRANCH   8  10
ENDBRANCH   7   8
ENDBRANCH   2   7
ENDBRANCH   1   2
BRANCH   1  11
ATOM     11  CA  UNL     1      34.672 -15.971 -21.452  0.00  0.00    +0.036 C 
BRANCH  11  12
ATOM     12  N   UNL     1      34.039 -14.928 -20.650  0.00  0.00    +0.389 N 
ATOM     13  H1  UNL     1      34.747 -14.270 -20.327  0.00  0.00    -0.088 HD
ATOM     14  H2  UNL     1      33.575 -15.351 -19.846  0.00  0.00    -0.088 HD
ATOM     15  H3  UNL     1      33.350 -14.434 -21.218  0.00  0.00    -0.088 HD
ENDBRANCH  11  12
BRANCH  11  17
ATOM     16  OXT UNL     1      33.489 -15.086 -23.392  0.00  0.00    -0.253 OA
ATOM     17  C   UNL     1      34.496 -15.589 -22.911  0.00  0.00    +0.293 C 
BRANCH  17  18
ATOM     18  O   UNL     1      35.599 -15.876 -23.652  0.00  0.00    -0.482 OA
ATOM     19  H   UNL     1      35.687 -16.716 -24.057  0.00  0.00    +0.295 HD
ENDBRANCH  17  18
ENDBRANCH  11  17
ENDBRANCH   1  11
TORSDOF 10
ENDMDL
MODEL 9
REMARK VINA RESULT:      -5.6      6.866      8.866
REMARK  Name = 44473425
REMARK  10 active torsions:
REMARK  status: ('A' for Active; 'I' for Inactive)
REMARK    1  A    between atoms: C_1  and  C_2
REMARK    2  A    between atoms: C_1  and  CA_11
REMARK    3  A    between atoms: C_2  and  C_4
REMARK    4  A    between atoms: C_2  and  C_7
REMARK    5  A    between atoms: C_4  and  O_5
REMARK    6  A    between atoms: C_7  and  C_8
REMARK    7  A    between atoms: C_8  and  C_10
REMARK    8  A    between atoms: CA_11  and  N_12
REMARK    9  A    between atoms: CA_11  and  C_17
REMARK   10  A    between atoms: C_17  and  O_18
REMARK                            x       y       z     vdW  Elec       q    Type
REMARK                         _______ _______ _______ _____ _____    ______ ____
ROOT
ATOM      1  C   UNL     1      30.096 -23.200 -16.208  0.00  0.00    +0.000 C 
ENDROOT
BRANCH   1   2
ATOM      2  C   UNL     1      30.449 -23.350 -14.712  0.00  0.00    +0.097 C 
BRANCH   2   4
ATOM      3  O   UNL     1      29.983 -25.725 -15.000  0.00  0.00    -0.250 OA
ATOM      4  C   UNL     1      30.339 -24.804 -14.277  0.00  0.00    +0.313 C 
BRANCH   4   5
ATOM      5  O   UNL     1      30.713 -24.987 -12.984  0.00  0.00    -0.480 OA
ATOM      6  H   UNL     1      30.538 -24.322 -12.348  0.00  0.00    +0.295 HD
ENDBRANCH   4   5
ENDBRANCH   2   4
BRANCH   2   7
ATOM      7  C   UNL     1      31.880 -22.876 -14.395  0.00  0.00    +0.014 C 
BRANCH   7   8
ATOM      8  C   UNL     1      32.932 -23.445 -15.352  0.00  0.00    +0.039 C 
BRANCH   8  10
ATOM      9  F   UNL     1      34.987 -24.577 -15.479  0.00  0.00    -0.234 F 
ATOM     10  C   UNL     1      34.037 -24.167 -14.598  0.00  0.00    +0.193 C 
ENDBRANCH   8  10
ENDBRANCH   7   8
ENDBRANCH   2   7
ENDBRANCH   1   2
BRANCH   1  11
ATOM     11  CA  UNL     1      28.792 -22.424 -16.474  0.00  0.00    +0.036 C 
BRANCH  11  12
ATOM     12  N   UNL     1      28.088 -22.134 -15.228  0.00  0.00    +0.389 N 
ATOM     13  H1  UNL     1      28.762 -21.870 -14.510  0.00  0.00    -0.088 HD
ATOM     14  H2  UNL     1      27.576 -22.963 -14.926  0.00  0.00    -0.088 HD
ATOM     15  H3  UNL     1      27.433 -21.366 -15.379  0.00  0.00    -0.088 HD
ENDBRANCH  11  12
BRANCH  11  17
ATOM     16  OXT UNL     1      27.021 -22.754 -18.119  0.00  0.00    -0.253 OA
ATOM     17  C   UNL     1      27.848 -23.229 -17.351  0.00  0.00    +0.293 C 
BRANCH  17  18
ATOM     18  O   UNL     1      28.016 -24.568 -17.188  0.00  0.00    -0.482 OA
ATOM     19  H   UNL     1      27.534 -25.025 -16.528  0.00  0.00    +0.295 HD
ENDBRANCH  17  18
ENDBRANCH  11  17
ENDBRANCH   1  11
TORSDOF 10
ENDMDL
