MODEL 1
REMARK VINA RESULT:     -10.2      0.000      0.000
REMARK  Name = 19150
REMARK  9 active torsions:
REMARK  status: ('A' for Active; 'I' for Inactive)
REMARK    1  A    between atoms: CA_5  and  N_11
REMARK    2  A    between atoms: CA_7  and  C_26
REMARK    3  A    between atoms: C_8  and  C_29
REMARK    4  A    between atoms: C_12  and  CA_14
REMARK    5  A    between atoms: CA_14  and  C_15
REMARK    6  A    between atoms: CA_14  and  N_21
REMARK    7  A    between atoms: C_26  and  O_27
REMARK    8  A    between atoms: C_29  and  O_30
REMARK    9  A    between atoms: O_30  and  C_32
REMARK                            x       y       z     vdW  Elec       q    Type
REMARK                         _______ _______ _______ _____ _____    ______ ____
ROOT
ATOM      1  S   UNL     1      34.777 -18.946 -23.792  0.00  0.00    -0.114 S 
ATOM      2  O   UNL     1      34.652 -16.116 -20.106  0.00  0.00    -0.273 OA
ATOM      3  N   UNL     1      34.854 -16.697 -22.382  0.00  0.00    -0.242 N 
ATOM      4  C   UNL     1      35.712 -17.812 -22.740  0.00  0.00    +0.155 C 
ATOM      5  CA  UNL     1      35.748 -18.144 -21.233  0.00  0.00    +0.178 C 
ATOM      6  C   UNL     1      35.014 -16.786 -21.044  0.00  0.00    +0.251 C 
ATOM      7  CA  UNL     1      34.188 -15.936 -23.287  0.00  0.00    +0.127 C 
ATOM      8  C   UNL     1      34.038 -16.335 -24.573  0.00  0.00    +0.030 C 
ATOM      9  C   UNL     1      34.504 -17.694 -25.091  0.00  0.00    +0.086 C 
ENDROOT
BRANCH   5  11
ATOM     10  O   UNL     1      36.801 -20.664 -20.310  0.00  0.00    -0.277 OA
ATOM     11  N   UNL     1      34.983 -19.295 -20.751  0.00  0.00    -0.298 N 
ATOM     12  C   UNL     1      35.586 -20.478 -20.323  0.00  0.00    +0.206 C 
ATOM     13  H   UNL     1      34.001 -19.230 -20.728  0.00  0.00    +0.150 HD
BRANCH  12  14
ATOM     14  CA  UNL     1      34.575 -21.534 -19.888  0.00  0.00    +0.036 C 
BRANCH  14  15
ATOM     15  C   UNL     1      34.904 -22.059 -18.505  0.00  0.00    -0.034 C 
ATOM     16  C   UNL     1      36.161 -21.826 -17.977  0.00  0.00    -0.006 C 
ATOM     17  C   UNL     1      33.940 -22.759 -17.802  0.00  0.00    -0.006 C 
ATOM     18  C   UNL     1      36.465 -22.308 -16.704  0.00  0.00    -0.000 C 
ATOM     19  C   UNL     1      34.242 -23.241 -16.529  0.00  0.00    -0.000 C 
ATOM     20  C   UNL     1      35.505 -23.017 -15.979  0.00  0.00    -0.000 C 
ENDBRANCH  14  15
BRANCH  14  21
ATOM     21  N   UNL     1      33.242 -20.931 -19.953  0.00  0.00    +0.390 N 
ATOM     22  H1  UNL     1      33.097 -20.338 -19.136  0.00  0.00    -0.088 HD
ATOM     23  H2  UNL     1      32.535 -21.667 -19.967  0.00  0.00    -0.088 HD
ATOM     24  H3  UNL     1      33.163 -20.367 -20.800  0.00  0.00    -0.088 HD
ENDBRANCH  14  21
ENDBRANCH  12  14
ENDBRANCH   5  11
BRANCH   7  26
ATOM     25  OXT UNL     1      32.440 -14.601 -22.386  0.00  0.00    -0.244 OA
ATOM     26  C   UNL     1      33.580 -14.691 -22.793  0.00  0.00    +0.352 C 
BRANCH  26  27
ATOM     27  O   UNL     1      34.482 -13.693 -22.870  0.00  0.00    -0.476 OA
ATOM     28  H   UNL     1      34.883 -13.362 -22.089  0.00  0.00    +0.295 HD
ENDBRANCH  26  27
ENDBRANCH   7  26
BRANCH   8  29
ATOM     29  C   UNL     1      33.384 -15.509 -25.656  0.00  0.00    +0.233 C 
BRANCH  29  30
ATOM     30  O   UNL     1      33.628 -14.140 -25.413  0.00  0.00    -0.444 OA
BRANCH  30  32
ATOM     31  O   UNL     1      33.646 -13.704 -27.681  0.00  0.00    -0.250 OA
ATOM     32  C   UNL     1      33.672 -13.328 -26.517  0.00  0.00    +0.318 C 
ATOM     33  C   UNL     1      33.757 -11.891 -26.101  0.00  0.00    +0.121 C 
ENDBRANCH  30  32
ENDBRANCH  29  30
ENDBRANCH   8  29
TORSDOF 9
ENDMDL
MODEL 2
REMARK VINA RESULT:     -10.2      5.266     10.744
REMARK  Name = 19150
REMARK  9 active torsions:
REMARK  status: ('A' for Active; 'I' for Inactive)
REMARK    1  A    between atoms: CA_5  and  N_11
REMARK    2  A    between atoms: CA_7  and  C_26
REMARK    3  A    between atoms: C_8  and  C_29
REMARK    4  A    between atoms: C_12  and  CA_14
REMARK    5  A    between atoms: CA_14  and  C_15
REMARK    6  A    between atoms: CA_14  and  N_21
REMARK    7  A    between atoms: C_26  and  O_27
REMARK    8  A    between atoms: C_29  and  O_30
REMARK    9  A    between atoms: O_30  and  C_32
REMARK                            x       y       z     vdW  Elec       q    Type
REMARK                         _______ _______ _______ _____ _____    ______ ____
ROOT
ATOM      1  S   UNL     1      33.524 -11.805 -24.049  0.00  0.00    -0.114 S 
ATOM      2  O   UNL     1      31.891 -12.381 -19.734  0.00  0.00    -0.273 OA
ATOM      3  N   UNL     1      32.598 -13.037 -21.886  0.00  0.00    -0.242 N 
ATOM      4  C   UNL     1      32.110 -12.293 -23.033  0.00  0.00    +0.155 C 
ATOM      5  CA  UNL     1      31.601 -11.247 -22.018  0.00  0.00    +0.178 C 
ATOM      6  C   UNL     1      31.994 -12.292 -20.935  0.00  0.00    +0.251 C 
ATOM      7  CA  UNL     1      33.408 -14.122 -21.979  0.00  0.00    +0.127 C 
ATOM      8  C   UNL     1      34.061 -14.421 -23.127  0.00  0.00    +0.030 C 
ATOM      9  C   UNL     1      34.031 -13.530 -24.368  0.00  0.00    +0.086 C 
ENDROOT
BRANCH   5  11
ATOM     10  O   UNL     1      30.885  -8.723 -23.213  0.00  0.00    -0.277 OA
ATOM     11  N   UNL     1      32.322  -9.979 -21.897  0.00  0.00    -0.298 N 
ATOM     12  C   UNL     1      31.895  -8.803 -22.516  0.00  0.00    +0.206 C 
ATOM     13  H   UNL     1      33.143  -9.955 -21.354  0.00  0.00    +0.150 HD
BRANCH  12  14
ATOM     14  CA  UNL     1      32.826  -7.624 -22.256  0.00  0.00    +0.036 C 
BRANCH  14  15
ATOM     15  C   UNL     1      33.104  -6.863 -23.536  0.00  0.00    -0.034 C 
ATOM     16  C   UNL     1      32.180  -5.937 -23.983  0.00  0.00    -0.006 C 
ATOM     17  C   UNL     1      34.277  -7.112 -24.227  0.00  0.00    -0.006 C 
ATOM     18  C   UNL     1      32.435  -5.236 -25.162  0.00  0.00    -0.000 C 
ATOM     19  C   UNL     1      34.533  -6.411 -25.405  0.00  0.00    -0.000 C 
ATOM     20  C   UNL     1      33.612  -5.473 -25.874  0.00  0.00    -0.000 C 
ENDBRANCH  14  15
BRANCH  14  21
ATOM     21  N   UNL     1      32.205  -6.782 -21.230  0.00  0.00    +0.390 N 
ATOM     22  H1  UNL     1      32.826  -6.006 -21.004  0.00  0.00    -0.088 HD
ATOM     23  H2  UNL     1      32.037  -7.338 -20.390  0.00  0.00    -0.088 HD
ATOM     24  H3  UNL     1      31.318  -6.417 -21.579  0.00  0.00    -0.088 HD
ENDBRANCH  14  21
ENDBRANCH  12  14
ENDBRANCH   5  11
BRANCH   7  26
ATOM     25  OXT UNL     1      34.650 -15.030 -20.168  0.00  0.00    -0.244 OA
ATOM     26  C   UNL     1      33.596 -14.920 -20.759  0.00  0.00    +0.352 C 
BRANCH  26  27
ATOM     27  O   UNL     1      32.426 -15.496 -20.417  0.00  0.00    -0.476 OA
ATOM     28  H   UNL     1      32.005 -15.262 -19.613  0.00  0.00    +0.295 HD
ENDBRANCH  26  27
ENDBRANCH   7  26
BRANCH   8  29
ATOM     29  C   UNL     1      34.912 -15.651 -23.334  0.00  0.00    +0.233 C 
BRANCH  29  30
ATOM     30  O   UNL     1      34.096 -16.717 -23.770  0.00  0.00    -0.444 OA
BRANCH  30  32
ATOM     31  O   UNL     1      34.810 -16.825 -25.964  0.00  0.00    -0.250 OA
ATOM     32  C   UNL     1      34.503 -17.363 -24.909  0.00  0.00    +0.318 C 
ATOM     33  C   UNL     1      34.523 -18.845 -24.687  0.00  0.00    +0.121 C 
ENDBRANCH  30  32
ENDBRANCH  29  30
ENDBRANCH   8  29
TORSDOF 9
ENDMDL
MODEL 3
REMARK VINA RESULT:      -9.3      5.408     11.024
REMARK  Name = 19150
REMARK  9 active torsions:
REMARK  status: ('A' for Active; 'I' for Inactive)
REMARK    1  A    between atoms: CA_5  and  N_11
REMARK    2  A    between atoms: CA_7  and  C_26
REMARK    3  A    between atoms: C_8  and  C_29
REMARK    4  A    between atoms: C_12  and  CA_14
REMARK    5  A    between atoms: CA_14  and  C_15
REMARK    6  A    between atoms: CA_14  and  N_21
REMARK    7  A    between atoms: C_26  and  O_27
REMARK    8  A    between atoms: C_29  and  O_30
REMARK    9  A    between atoms: O_30  and  C_32
REMARK                            x       y       z     vdW  Elec       q    Type
REMARK                         _______ _______ _______ _____ _____    ______ ____
ROOT
ATOM      1  S   UNL     1      35.454 -22.702 -16.364  0.00  0.00    -0.114 S 
ATOM      2  O   UNL     1      30.910 -23.649 -16.103  0.00  0.00    -0.273 OA
ATOM      3  N   UNL     1      33.191 -23.811 -15.527  0.00  0.00    -0.242 N 
ATOM      4  C   UNL     1      34.167 -23.951 -16.592  0.00  0.00    +0.155 C 
ATOM      5  CA  UNL     1      33.021 -23.587 -17.561  0.00  0.00    +0.178 C 
ATOM      6  C   UNL     1      32.098 -23.707 -16.314  0.00  0.00    +0.251 C 
ATOM      7  CA  UNL     1      33.508 -23.809 -14.208  0.00  0.00    +0.127 C 
ATOM      8  C   UNL     1      34.785 -23.645 -13.787  0.00  0.00    +0.030 C 
ATOM      9  C   UNL     1      35.949 -23.351 -14.731  0.00  0.00    +0.086 C 
ENDROOT
BRANCH   5  11
ATOM     10  O   UNL     1      33.883 -22.890 -20.222  0.00  0.00    -0.277 OA
ATOM     11  N   UNL     1      33.014 -22.255 -18.168  0.00  0.00    -0.298 N 
ATOM     12  C   UNL     1      33.454 -22.016 -19.471  0.00  0.00    +0.206 C 
ATOM     13  H   UNL     1      32.683 -21.497 -17.634  0.00  0.00    +0.150 HD
BRANCH  12  14
ATOM     14  CA  UNL     1      33.366 -20.546 -19.865  0.00  0.00    +0.036 C 
BRANCH  14  15
ATOM     15  C   UNL     1      34.703 -20.041 -20.368  0.00  0.00    -0.034 C 
ATOM     16  C   UNL     1      35.865 -20.575 -19.844  0.00  0.00    -0.006 C 
ATOM     17  C   UNL     1      34.730 -19.058 -21.342  0.00  0.00    -0.006 C 
ATOM     18  C   UNL     1      37.097 -20.111 -20.307  0.00  0.00    -0.000 C 
ATOM     19  C   UNL     1      35.960 -18.594 -21.806  0.00  0.00    -0.000 C 
ATOM     20  C   UNL     1      37.145 -19.120 -21.288  0.00  0.00    -0.000 C 
ENDBRANCH  14  15
BRANCH  14  21
ATOM     21  N   UNL     1      32.306 -20.414 -20.869  0.00  0.00    +0.390 N 
ATOM     22  H1  UNL     1      31.496 -20.962 -20.581  0.00  0.00    -0.088 HD
ATOM     23  H2  UNL     1      32.645 -20.757 -21.768  0.00  0.00    -0.088 HD
ATOM     24  H3  UNL     1      32.040 -19.434 -20.958  0.00  0.00    -0.088 HD
ENDBRANCH  14  21
ENDBRANCH  12  14
ENDBRANCH   5  11
BRANCH   7  26
ATOM     25  OXT UNL     1      31.809 -24.963 -13.010  0.00  0.00    -0.244 OA
ATOM     26  C   UNL     1      32.395 -23.928 -13.254  0.00  0.00    +0.352 C 
BRANCH  26  27
ATOM     27  O   UNL     1      32.142 -22.721 -12.710  0.00  0.00    -0.476 OA
ATOM     28  H   UNL     1      31.301 -22.322 -12.823  0.00  0.00    +0.295 HD
ENDBRANCH  26  27
ENDBRANCH   7  26
BRANCH   8  29
ATOM     29  C   UNL     1      35.228 -23.714 -12.345  0.00  0.00    +0.233 C 
BRANCH  29  30
ATOM     30  O   UNL     1      35.626 -25.034 -12.040  0.00  0.00    -0.444 OA
BRANCH  30  32
ATOM     31  O   UNL     1      37.762 -24.672 -11.238  0.00  0.00    -0.250 OA
ATOM     32  C   UNL     1      36.977 -25.258 -11.971  0.00  0.00    +0.318 C 
ATOM     33  C   UNL     1      37.373 -26.339 -12.930  0.00  0.00    +0.121 C 
ENDBRANCH  30  32
ENDBRANCH  29  30
ENDBRANCH   8  29
TORSDOF 9
ENDMDL
MODEL 4
REMARK VINA RESULT:      -9.2      3.345      5.210
REMARK  Name = 19150
REMARK  9 active torsions:
REMARK  status: ('A' for Active; 'I' for Inactive)
REMARK    1  A    between atoms: CA_5  and  N_11
REMARK    2  A    between atoms: CA_7  and  C_26
REMARK    3  A    between atoms: C_8  and  C_29
REMARK    4  A    between atoms: C_12  and  CA_14
REMARK    5  A    between atoms: CA_14  and  C_15
REMARK    6  A    between atoms: CA_14  and  N_21
REMARK    7  A    between atoms: C_26  and  O_27
REMARK    8  A    between atoms: C_29  and  O_30
REMARK    9  A    between atoms: O_30  and  C_32
REMARK                            x       y       z     vdW  Elec       q    Type
REMARK                         _______ _______ _______ _____ _____    ______ ____
ROOT
ATOM      1  S   UNL     1      32.588 -13.954 -21.208  0.00  0.00    -0.114 S 
ATOM      2  O   UNL     1      34.635 -14.547 -25.340  0.00  0.00    -0.273 OA
ATOM      3  N   UNL     1      33.215 -13.533 -23.753  0.00  0.00    -0.242 N 
ATOM      4  C   UNL     1      32.355 -14.381 -22.949  0.00  0.00    +0.155 C 
ATOM      5  CA  UNL     1      33.187 -15.568 -23.482  0.00  0.00    +0.178 C 
ATOM      6  C   UNL     1      33.838 -14.521 -24.431  0.00  0.00    +0.251 C 
ATOM      7  CA  UNL     1      33.223 -12.178 -23.678  0.00  0.00    +0.127 C 
ATOM      8  C   UNL     1      32.642 -11.523 -22.644  0.00  0.00    +0.030 C 
ATOM      9  C   UNL     1      32.027 -12.233 -21.440  0.00  0.00    +0.086 C 
ENDROOT
BRANCH   5  11
ATOM     10  O   UNL     1      34.564 -18.062 -23.918  0.00  0.00    -0.277 OA
ATOM     11  N   UNL     1      34.142 -16.215 -22.582  0.00  0.00    -0.298 N 
ATOM     12  C   UNL     1      34.760 -17.430 -22.882  0.00  0.00    +0.206 C 
ATOM     13  H   UNL     1      34.357 -15.773 -21.729  0.00  0.00    +0.150 HD
BRANCH  12  14
ATOM     14  CA  UNL     1      35.696 -17.907 -21.777  0.00  0.00    +0.036 C 
BRANCH  14  15
ATOM     15  C   UNL     1      35.110 -19.100 -21.050  0.00  0.00    -0.034 C 
ATOM     16  C   UNL     1      35.962 -20.032 -20.487  0.00  0.00    -0.006 C 
ATOM     17  C   UNL     1      33.734 -19.229 -20.966  0.00  0.00    -0.006 C 
ATOM     18  C   UNL     1      35.422 -21.131 -19.818  0.00  0.00    -0.000 C 
ATOM     19  C   UNL     1      33.194 -20.326 -20.297  0.00  0.00    -0.000 C 
ATOM     20  C   UNL     1      34.038 -21.279 -19.723  0.00  0.00    -0.000 C 
ENDBRANCH  14  15
BRANCH  14  21
ATOM     21  N   UNL     1      36.993 -18.209 -22.389  0.00  0.00    +0.390 N 
ATOM     22  H1  UNL     1      37.638 -17.438 -22.218  0.00  0.00    -0.088 HD
ATOM     23  H2  UNL     1      36.874 -18.335 -23.395  0.00  0.00    -0.088 HD
ATOM     24  H3  UNL     1      37.371 -19.065 -21.982  0.00  0.00    -0.088 HD
ENDBRANCH  14  21
ENDBRANCH  12  14
ENDBRANCH   5  11
BRANCH   7  26
ATOM     25  OXT UNL     1      33.643 -11.476 -25.910  0.00  0.00    -0.244 OA
ATOM     26  C   UNL     1      33.947 -11.455 -24.735  0.00  0.00    +0.352 C 
BRANCH  26  27
ATOM     27  O   UNL     1      34.980 -10.783 -24.189  0.00  0.00    -0.476 OA
ATOM     28  H   UNL     1      34.969  -9.846 -24.166  0.00  0.00    +0.295 HD
ENDBRANCH  26  27
ENDBRANCH   7  26
BRANCH   8  29
ATOM     29  C   UNL     1      32.537 -10.021 -22.531  0.00  0.00    +0.233 C 
BRANCH  29  30
ATOM     30  O   UNL     1      31.882  -9.687 -21.326  0.00  0.00    -0.444 OA
BRANCH  30  32
ATOM     31  O   UNL     1      32.198  -8.298 -19.508  0.00  0.00    -0.250 OA
ATOM     32  C   UNL     1      32.311  -8.545 -20.701  0.00  0.00    +0.318 C 
ATOM     33  C   UNL     1      32.952  -7.620 -21.691  0.00  0.00    +0.121 C 
ENDBRANCH  30  32
ENDBRANCH  29  30
ENDBRANCH   8  29
TORSDOF 9
ENDMDL
MODEL 5
REMARK VINA RESULT:      -9.0      3.188      5.546
REMARK  Name = 19150
REMARK  9 active torsions:
REMARK  status: ('A' for Active; 'I' for Inactive)
REMARK    1  A    between atoms: CA_5  and  N_11
REMARK    2  A    between atoms: CA_7  and  C_26
REMARK    3  A    between atoms: C_8  and  C_29
REMARK    4  A    between atoms: C_12  and  CA_14
REMARK    5  A    between atoms: CA_14  and  C_15
REMARK    6  A    between atoms: CA_14  and  N_21
REMARK    7  A    between atoms: C_26  and  O_27
REMARK    8  A    between atoms: C_29  and  O_30
REMARK    9  A    between atoms: O_30  and  C_32
REMARK                            x       y       z     vdW  Elec       q    Type
REMARK                         _______ _______ _______ _____ _____    ______ ____
ROOT
ATOM      1  S   UNL     1      32.685 -20.753 -19.798  0.00  0.00    -0.114 S 
ATOM      2  O   UNL     1      36.904 -22.038 -18.326  0.00  0.00    -0.273 OA
ATOM      3  N   UNL     1      35.308 -21.165 -19.827  0.00  0.00    -0.242 N 
ATOM      4  C   UNL     1      34.069 -21.894 -20.023  0.00  0.00    +0.155 C 
ATOM      5  CA  UNL     1      34.476 -22.731 -18.792  0.00  0.00    +0.178 C 
ATOM      6  C   UNL     1      35.838 -21.985 -18.893  0.00  0.00    +0.251 C 
ATOM      7  CA  UNL     1      35.627 -20.025 -20.490  0.00  0.00    +0.127 C 
ATOM      8  C   UNL     1      34.693 -19.318 -21.171  0.00  0.00    +0.030 C 
ATOM      9  C   UNL     1      33.207 -19.672 -21.173  0.00  0.00    +0.086 C 
ENDROOT
BRANCH   5  11
ATOM     10  O   UNL     1      34.658 -24.326 -16.398  0.00  0.00    -0.277 OA
ATOM     11  N   UNL     1      33.777 -22.503 -17.527  0.00  0.00    -0.298 N 
ATOM     12  C   UNL     1      33.930 -23.336 -16.417  0.00  0.00    +0.206 C 
ATOM     13  H   UNL     1      33.173 -21.729 -17.456  0.00  0.00    +0.150 HD
BRANCH  12  14
ATOM     14  CA  UNL     1      33.080 -22.901 -15.228  0.00  0.00    +0.036 C 
BRANCH  14  15
ATOM     15  C   UNL     1      31.699 -23.519 -15.297  0.00  0.00    -0.034 C 
ATOM     16  C   UNL     1      31.431 -24.655 -14.554  0.00  0.00    -0.006 C 
ATOM     17  C   UNL     1      30.737 -22.933 -16.101  0.00  0.00    -0.006 C 
ATOM     18  C   UNL     1      30.159 -25.224 -14.617  0.00  0.00    -0.000 C 
ATOM     19  C   UNL     1      29.465 -23.502 -16.164  0.00  0.00    -0.000 C 
ATOM     20  C   UNL     1      29.176 -24.648 -15.422  0.00  0.00    -0.000 C 
ENDBRANCH  14  15
BRANCH  14  21
ATOM     21  N   UNL     1      33.798 -23.273 -14.006  0.00  0.00    +0.390 N 
ATOM     22  H1  UNL     1      33.145 -23.303 -13.223  0.00  0.00    -0.088 HD
ATOM     23  H2  UNL     1      34.525 -22.583 -13.815  0.00  0.00    -0.088 HD
ATOM     24  H3  UNL     1      34.225 -24.192 -14.127  0.00  0.00    -0.088 HD
ENDBRANCH  14  21
ENDBRANCH  12  14
ENDBRANCH   5  11
BRANCH   7  26
ATOM     25  OXT UNL     1      37.724 -19.285 -21.330  0.00  0.00    -0.244 OA
ATOM     26  C   UNL     1      37.017 -19.556 -20.381  0.00  0.00    +0.352 C 
BRANCH  26  27
ATOM     27  O   UNL     1      37.362 -19.480 -19.081  0.00  0.00    -0.476 OA
ATOM     28  H   UNL     1      38.232 -19.705 -18.813  0.00  0.00    +0.295 HD
ENDBRANCH  26  27
ENDBRANCH   7  26
BRANCH   8  29
ATOM     29  C   UNL     1      34.984 -18.089 -21.999  0.00  0.00    +0.233 C 
BRANCH  29  30
ATOM     30  O   UNL     1      35.094 -18.455 -23.358  0.00  0.00    -0.444 OA
BRANCH  30  32
ATOM     31  O   UNL     1      34.660 -17.623 -25.468  0.00  0.00    -0.250 OA
ATOM     32  C   UNL     1      34.862 -17.461 -24.273  0.00  0.00    +0.318 C 
ATOM     33  C   UNL     1      34.888 -16.121 -23.601  0.00  0.00    +0.121 C 
ENDBRANCH  30  32
ENDBRANCH  29  30
ENDBRANCH   8  29
TORSDOF 9
ENDMDL
MODEL 6
REMARK VINA RESULT:      -9.0      4.791      7.256
REMARK  Name = 19150
REMARK  9 active torsions:
REMARK  status: ('A' for Active; 'I' for Inactive)
REMARK    1  A    between atoms: CA_5  and  N_11
REMARK    2  A    between atoms: CA_7  and  C_26
REMARK    3  A    between atoms: C_8  and  C_29
REMARK    4  A    between atoms: C_12  and  CA_14
REMARK    5  A    between atoms: CA_14  and  C_15
REMARK    6  A    between atoms: CA_14  and  N_21
REMARK    7  A    between atoms: C_26  and  O_27
REMARK    8  A    between atoms: C_29  and  O_30
REMARK    9  A    between atoms: O_30  and  C_32
REMARK                            x       y       z     vdW  Elec       q    Type
REMARK                         _______ _______ _______ _____ _____    ______ ____
ROOT
ATOM      1  S   UNL     1      31.981 -11.815 -20.274  0.00  0.00    -0.114 S 
ATOM      2  O   UNL     1      33.742 -11.884 -24.576  0.00  0.00    -0.273 OA
ATOM      3  N   UNL     1      32.521 -11.025 -22.751  0.00  0.00    -0.242 N 
ATOM      4  C   UNL     1      31.616 -11.912 -22.042  0.00  0.00    +0.155 C 
ATOM      5  CA  UNL     1      32.289 -13.064 -22.820  0.00  0.00    +0.178 C 
ATOM      6  C   UNL     1      33.000 -11.938 -23.624  0.00  0.00    +0.251 C 
ATOM      7  CA  UNL     1      32.677  -9.710 -22.453  0.00  0.00    +0.127 C 
ATOM      8  C   UNL     1      32.222  -9.190 -21.288  0.00  0.00    +0.030 C 
ATOM      9  C   UNL     1      31.595 -10.034 -20.179  0.00  0.00    +0.086 C 
ENDROOT
BRANCH   5  11
ATOM     10  O   UNL     1      31.627 -15.476 -21.387  0.00  0.00    -0.277 OA
ATOM     11  N   UNL     1      33.213 -13.945 -22.105  0.00  0.00    -0.298 N 
ATOM     12  C   UNL     1      32.795 -15.098 -21.438  0.00  0.00    +0.206 C 
ATOM     13  H   UNL     1      34.170 -13.716 -22.097  0.00  0.00    +0.150 HD
BRANCH  12  14
ATOM     14  CA  UNL     1      33.942 -15.835 -20.754  0.00  0.00    +0.036 C 
BRANCH  14  15
ATOM     15  C   UNL     1      34.366 -17.043 -21.564  0.00  0.00    -0.034 C 
ATOM     16  C   UNL     1      34.977 -16.851 -22.790  0.00  0.00    -0.006 C 
ATOM     17  C   UNL     1      34.133 -18.310 -21.059  0.00  0.00    -0.006 C 
ATOM     18  C   UNL     1      35.368 -17.963 -23.537  0.00  0.00    -0.000 C 
ATOM     19  C   UNL     1      34.525 -19.421 -21.804  0.00  0.00    -0.000 C 
ATOM     20  C   UNL     1      35.141 -19.249 -23.044  0.00  0.00    -0.000 C 
ENDBRANCH  14  15
BRANCH  14  21
ATOM     21  N   UNL     1      35.036 -14.880 -20.562  0.00  0.00    +0.390 N 
ATOM     22  H1  UNL     1      34.750 -14.164 -19.895  0.00  0.00    -0.088 HD
ATOM     23  H2  UNL     1      35.265 -14.440 -21.454  0.00  0.00    -0.088 HD
ATOM     24  H3  UNL     1      35.857 -15.368 -20.204  0.00  0.00    -0.088 HD
ENDBRANCH  14  21
ENDBRANCH  12  14
ENDBRANCH   5  11
BRANCH   7  26
ATOM     25  OXT UNL     1      34.630  -8.836 -23.487  0.00  0.00    -0.244 OA
ATOM     26  C   UNL     1      33.419  -8.890 -23.422  0.00  0.00    +0.352 C 
BRANCH  26  27
ATOM     27  O   UNL     1      32.548  -8.224 -24.205  0.00  0.00    -0.476 OA
ATOM     28  H   UNL     1      32.511  -8.404 -25.124  0.00  0.00    +0.295 HD
ENDBRANCH  26  27
ENDBRANCH   7  26
BRANCH   8  29
ATOM     29  C   UNL     1      32.283  -7.727 -20.921  0.00  0.00    +0.233 C 
BRANCH  29  30
ATOM     30  O   UNL     1      31.197  -7.048 -21.514  0.00  0.00    -0.444 OA
BRANCH  30  32
ATOM     31  O   UNL     1      32.459  -5.637 -22.838  0.00  0.00    -0.250 OA
ATOM     32  C   UNL     1      31.489  -5.856 -22.124  0.00  0.00    +0.318 C 
ATOM     33  C   UNL     1      30.442  -4.835 -21.798  0.00  0.00    +0.121 C 
ENDBRANCH  30  32
ENDBRANCH  29  30
ENDBRANCH   8  29
TORSDOF 9
ENDMDL
MODEL 7
REMARK VINA RESULT:      -8.7      4.749      8.211
REMARK  Name = 19150
REMARK  9 active torsions:
REMARK  status: ('A' for Active; 'I' for Inactive)
REMARK    1  A    between atoms: CA_5  and  N_11
REMARK    2  A    between atoms: CA_7  and  C_26
REMARK    3  A    between atoms: C_8  and  C_29
REMARK    4  A    between atoms: C_12  and  CA_14
REMARK    5  A    between atoms: CA_14  and  C_15
REMARK    6  A    between atoms: CA_14  and  N_21
REMARK    7  A    between atoms: C_26  and  O_27
REMARK    8  A    between atoms: C_29  and  O_30
REMARK    9  A    between atoms: O_30  and  C_32
REMARK                            x       y       z     vdW  Elec       q    Type
REMARK                         _______ _______ _______ _____ _____    ______ ____
ROOT
ATOM      1  S   UNL     1      37.095 -22.390 -16.039  0.00  0.00    -0.114 S 
ATOM      2  O   UNL     1      32.790 -24.105 -16.417  0.00  0.00    -0.273 OA
ATOM      3  N   UNL     1      34.595 -22.663 -16.891  0.00  0.00    -0.242 N 
ATOM      4  C   UNL     1      35.332 -22.086 -15.782  0.00  0.00    +0.155 C 
ATOM      5  CA  UNL     1      34.584 -23.096 -14.884  0.00  0.00    +0.178 C 
ATOM      6  C   UNL     1      33.746 -23.413 -16.156  0.00  0.00    +0.251 C 
ATOM      7  CA  UNL     1      34.855 -22.388 -18.194  0.00  0.00    +0.127 C 
ATOM      8  C   UNL     1      36.007 -21.785 -18.574  0.00  0.00    +0.030 C 
ATOM      9  C   UNL     1      37.141 -21.455 -17.606  0.00  0.00    +0.086 C 
ENDROOT
BRANCH   5  11
ATOM     10  O   UNL     1      35.619 -23.434 -12.215  0.00  0.00    -0.277 OA
ATOM     11  N   UNL     1      35.320 -24.249 -14.365  0.00  0.00    -0.298 N 
ATOM     12  C   UNL     1      35.783 -24.322 -13.050  0.00  0.00    +0.206 C 
ATOM     13  H   UNL     1      35.493 -25.007 -14.969  0.00  0.00    +0.150 HD
BRANCH  12  14
ATOM     14  CA  UNL     1      36.537 -25.614 -12.758  0.00  0.00    +0.036 C 
BRANCH  14  15
ATOM     15  C   UNL     1      37.858 -25.647 -13.498  0.00  0.00    -0.034 C 
ATOM     16  C   UNL     1      37.986 -26.457 -14.612  0.00  0.00    -0.006 C 
ATOM     17  C   UNL     1      38.907 -24.866 -13.044  0.00  0.00    -0.006 C 
ATOM     18  C   UNL     1      39.203 -26.488 -15.295  0.00  0.00    -0.000 C 
ATOM     19  C   UNL     1      40.122 -24.896 -13.726  0.00  0.00    -0.000 C 
ATOM     20  C   UNL     1      40.271 -25.708 -14.852  0.00  0.00    -0.000 C 
ENDBRANCH  14  15
BRANCH  14  21
ATOM     21  N   UNL     1      36.709 -25.713 -11.306  0.00  0.00    +0.390 N 
ATOM     22  H1  UNL     1      35.971 -25.186 -10.839  0.00  0.00    -0.088 HD
ATOM     23  H2  UNL     1      37.618 -25.329 -11.044  0.00  0.00    -0.088 HD
ATOM     24  H3  UNL     1      36.659 -26.691 -11.022  0.00  0.00    -0.088 HD
ENDBRANCH  14  21
ENDBRANCH  12  14
ENDBRANCH   5  11
BRANCH   7  26
ATOM     25  OXT UNL     1      33.904 -23.899 -19.764  0.00  0.00    -0.244 OA
ATOM     26  C   UNL     1      33.861 -22.835 -19.182  0.00  0.00    +0.352 C 
BRANCH  26  27
ATOM     27  O   UNL     1      32.917 -21.884 -19.327  0.00  0.00    -0.476 OA
ATOM     28  H   UNL     1      32.038 -22.049 -19.046  0.00  0.00    +0.295 HD
ENDBRANCH  26  27
ENDBRANCH   7  26
BRANCH   8  29
ATOM     29  C   UNL     1      36.333 -21.373 -19.990  0.00  0.00    +0.233 C 
BRANCH  29  30
ATOM     30  O   UNL     1      36.203 -19.972 -20.112  0.00  0.00    -0.444 OA
BRANCH  30  32
ATOM     31  O   UNL     1      34.110 -19.883 -21.085  0.00  0.00    -0.250 OA
ATOM     32  C   UNL     1      35.279 -19.528 -21.023  0.00  0.00    +0.318 C 
ATOM     33  C   UNL     1      35.902 -18.528 -21.949  0.00  0.00    +0.121 C 
ENDBRANCH  30  32
ENDBRANCH  29  30
ENDBRANCH   8  29
TORSDOF 9
ENDMDL
MODEL 8
REMARK VINA RESULT:      -8.6      9.039     10.653
REMARK  Name = 19150
REMARK  9 active torsions:
REMARK  status: ('A' for Active; 'I' for Inactive)
REMARK    1  A    between atoms: CA_5  and  N_11
REMARK    2  A    between atoms: CA_7  and  C_26
REMARK    3  A    between atoms: C_8  and  C_29
REMARK    4  A    between atoms: C_12  and  CA_14
REMARK    5  A    between atoms: CA_14  and  C_15
REMARK    6  A    between atoms: CA_14  and  N_21
REMARK    7  A    between atoms: C_26  and  O_27
REMARK    8  A    between atoms: C_29  and  O_30
REMARK    9  A    between atoms: O_30  and  C_32
REMARK                            x       y       z     vdW  Elec       q    Type
REMARK                         _______ _______ _______ _____ _____    ______ ____
ROOT
ATOM      1  S   UNL     1      32.763 -23.170 -16.666  0.00  0.00    -0.114 S 
ATOM      2  O   UNL     1      31.671 -25.585 -12.847  0.00  0.00    -0.273 OA
ATOM      3  N   UNL     1      31.336 -24.054 -14.609  0.00  0.00    -0.242 N 
ATOM      4  C   UNL     1      32.383 -23.092 -14.901  0.00  0.00    +0.155 C 
ATOM      5  CA  UNL     1      33.283 -23.931 -13.967  0.00  0.00    +0.178 C 
ATOM      6  C   UNL     1      31.980 -24.706 -13.617  0.00  0.00    +0.251 C 
ATOM      7  CA  UNL     1      30.149 -24.100 -15.265  0.00  0.00    +0.127 C 
ATOM      8  C   UNL     1      29.962 -23.444 -16.435  0.00  0.00    +0.030 C 
ATOM      9  C   UNL     1      31.073 -22.692 -17.164  0.00  0.00    +0.086 C 
ENDROOT
BRANCH   5  11
ATOM     10  O   UNL     1      36.073 -23.280 -14.284  0.00  0.00    -0.277 OA
ATOM     11  N   UNL     1      34.320 -24.772 -14.565  0.00  0.00    -0.298 N 
ATOM     12  C   UNL     1      35.652 -24.367 -14.674  0.00  0.00    +0.206 C 
ATOM     13  H   UNL     1      34.068 -25.662 -14.903  0.00  0.00    +0.150 HD
BRANCH  12  14
ATOM     14  CA  UNL     1      36.535 -25.410 -15.351  0.00  0.00    +0.036 C 
BRANCH  14  15
ATOM     15  C   UNL     1      37.921 -25.423 -14.739  0.00  0.00    -0.034 C 
ATOM     16  C   UNL     1      38.064 -25.738 -13.400  0.00  0.00    -0.006 C 
ATOM     17  C   UNL     1      39.012 -25.119 -15.534  0.00  0.00    -0.006 C 
ATOM     18  C   UNL     1      39.340 -25.749 -12.836  0.00  0.00    -0.000 C 
ATOM     19  C   UNL     1      40.287 -25.131 -14.972  0.00  0.00    -0.000 C 
ATOM     20  C   UNL     1      40.452 -25.445 -13.622  0.00  0.00    -0.000 C 
ENDBRANCH  14  15
BRANCH  14  21
ATOM     21  N   UNL     1      35.863 -26.707 -15.236  0.00  0.00    +0.390 N 
ATOM     22  H1  UNL     1      36.426 -27.424 -15.692  0.00  0.00    -0.088 HD
ATOM     23  H2  UNL     1      34.948 -26.658 -15.685  0.00  0.00    -0.088 HD
ATOM     24  H3  UNL     1      35.745 -26.944 -14.250  0.00  0.00    -0.088 HD
ENDBRANCH  14  21
ENDBRANCH  12  14
ENDBRANCH   5  11
BRANCH   7  26
ATOM     25  OXT UNL     1      28.049 -24.526 -14.235  0.00  0.00    -0.244 OA
ATOM     26  C   UNL     1      29.097 -24.946 -14.682  0.00  0.00    +0.352 C 
BRANCH  26  27
ATOM     27  O   UNL     1      29.485 -26.236 -14.727  0.00  0.00    -0.476 OA
ATOM     28  H   UNL     1      29.534 -26.683 -15.549  0.00  0.00    +0.295 HD
ENDBRANCH  26  27
ENDBRANCH   7  26
BRANCH   8  29
ATOM     29  C   UNL     1      28.650 -23.379 -17.181  0.00  0.00    +0.233 C 
BRANCH  29  30
ATOM     30  O   UNL     1      28.157 -22.057 -17.148  0.00  0.00    -0.444 OA
BRANCH  30  32
ATOM     31  O   UNL     1      26.372 -22.325 -15.707  0.00  0.00    -0.250 OA
ATOM     32  C   UNL     1      26.854 -21.906 -16.751  0.00  0.00    +0.318 C 
ATOM     33  C   UNL     1      26.081 -21.145 -17.785  0.00  0.00    +0.121 C 
ENDBRANCH  30  32
ENDBRANCH  29  30
ENDBRANCH   8  29
TORSDOF 9
ENDMDL
MODEL 9
REMARK VINA RESULT:      -8.5      5.096      8.160
REMARK  Name = 19150
REMARK  9 active torsions:
REMARK  status: ('A' for Active; 'I' for Inactive)
REMARK    1  A    between atoms: CA_5  and  N_11
REMARK    2  A    between atoms: CA_7  and  C_26
REMARK    3  A    between atoms: C_8  and  C_29
REMARK    4  A    between atoms: C_12  and  CA_14
REMARK    5  A    between atoms: CA_14  and  C_15
REMARK    6  A    between atoms: CA_14  and  N_21
REMARK    7  A    between atoms: C_26  and  O_27
REMARK    8  A    between atoms: C_29  and  O_30
REMARK    9  A    between atoms: O_30  and  C_32
REMARK                            x       y       z     vdW  Elec       q    Type
REMARK                         _______ _______ _______ _____ _____    ______ ____
ROOT
ATOM      1  S   UNL     1      31.905 -10.755 -21.958  0.00  0.00    -0.114 S 
ATOM      2  O   UNL     1      35.359 -10.359 -25.045  0.00  0.00    -0.273 OA
ATOM      3  N   UNL     1      33.450  -9.687 -23.836  0.00  0.00    -0.242 N 
ATOM      4  C   UNL     1      32.346 -10.620 -23.706  0.00  0.00    +0.155 C 
ATOM      5  CA  UNL     1      33.313 -11.692 -24.255  0.00  0.00    +0.178 C 
ATOM      6  C   UNL     1      34.279 -10.502 -24.523  0.00  0.00    +0.251 C 
ATOM      7  CA  UNL     1      33.434  -8.425 -23.336  0.00  0.00    +0.127 C 
ATOM      8  C   UNL     1      32.508  -8.036 -22.427  0.00  0.00    +0.030 C 
ATOM      9  C   UNL     1      31.480  -8.986 -21.815  0.00  0.00    +0.086 C 
ENDROOT
BRANCH   5  11
ATOM     10  O   UNL     1      32.093 -14.187 -23.485  0.00  0.00    -0.277 OA
ATOM     11  N   UNL     1      33.854 -12.687 -23.329  0.00  0.00    -0.298 N 
ATOM     12  C   UNL     1      33.185 -13.872 -23.017  0.00  0.00    +0.206 C 
ATOM     13  H   UNL     1      34.727 -12.514 -22.910  0.00  0.00    +0.150 HD
BRANCH  12  14
ATOM     14  CA  UNL     1      33.943 -14.734 -22.014  0.00  0.00    +0.036 C 
BRANCH  14  15
ATOM     15  C   UNL     1      34.380 -16.040 -22.645  0.00  0.00    -0.034 C 
ATOM     16  C   UNL     1      34.608 -17.138 -21.835  0.00  0.00    -0.006 C 
ATOM     17  C   UNL     1      34.539 -16.105 -24.019  0.00  0.00    -0.006 C 
ATOM     18  C   UNL     1      35.010 -18.341 -22.417  0.00  0.00    -0.000 C 
ATOM     19  C   UNL     1      34.940 -17.307 -24.600  0.00  0.00    -0.000 C 
ATOM     20  C   UNL     1      35.177 -18.426 -23.799  0.00  0.00    -0.000 C 
ENDBRANCH  14  15
BRANCH  14  21
ATOM     21  N   UNL     1      35.076 -13.949 -21.516  0.00  0.00    +0.390 N 
ATOM     22  H1  UNL     1      35.868 -14.055 -22.150  0.00  0.00    -0.088 HD
ATOM     23  H2  UNL     1      35.338 -14.281 -20.587  0.00  0.00    -0.088 HD
ATOM     24  H3  UNL     1      34.812 -12.965 -21.464  0.00  0.00    -0.088 HD
ENDBRANCH  14  21
ENDBRANCH  12  14
ENDBRANCH   5  11
BRANCH   7  26
ATOM     25  OXT UNL     1      34.448  -6.819 -24.765  0.00  0.00    -0.244 OA
ATOM     26  C   UNL     1      34.506  -7.520 -23.775  0.00  0.00    +0.352 C 
BRANCH  26  27
ATOM     27  O   UNL     1      35.540  -7.600 -22.914  0.00  0.00    -0.476 OA
ATOM     28  H   UNL     1      36.417  -7.480 -23.222  0.00  0.00    +0.295 HD
ENDBRANCH  26  27
ENDBRANCH   7  26
BRANCH   8  29
ATOM     29  C   UNL     1      32.374  -6.632 -21.887  0.00  0.00    +0.233 C 
BRANCH  29  30
ATOM     30  O   UNL     1      31.128  -6.096 -22.278  0.00  0.00    -0.444 OA
BRANCH  30  32
ATOM     31  O   UNL     1      31.016  -5.777 -24.562  0.00  0.00    -0.250 OA
ATOM     32  C   UNL     1      31.126  -5.344 -23.424  0.00  0.00    +0.318 C 
ATOM     33  C   UNL     1      31.276  -3.890 -23.091  0.00  0.00    +0.121 C 
ENDBRANCH  30  32
ENDBRANCH  29  30
ENDBRANCH   8  29
TORSDOF 9
ENDMDL
