MODEL 1
REMARK VINA RESULT:      -9.8      0.000      0.000
REMARK  Name = 30281577
REMARK  5 active torsions:
REMARK  status: ('A' for Active; 'I' for Inactive)
REMARK    1  A    between atoms: C_5  and  C_10
REMARK    2  A    between atoms: C_6  and  C_16
REMARK    3  A    between atoms: C_7  and  N_22
REMARK    4  A    between atoms: N_22  and  C_25
REMARK    5  A    between atoms: C_25  and  C_28
REMARK                            x       y       z     vdW  Elec       q    Type
REMARK                         _______ _______ _______ _____ _____    ______ ____
ROOT
ATOM      1  O   UNL     1      32.579 -22.760 -16.650  0.00  0.00    -0.440 OA
ATOM      2  N   UNL     1      31.393 -24.413 -13.159  0.00  0.00    -0.235 NA
ATOM      3  N   UNL     1      30.753 -23.209 -15.178  0.00  0.00    -0.214 NA
ATOM      4  C   UNL     1      33.066 -23.870 -14.749  0.00  0.00    +0.153 C 
ATOM      5  C   UNL     1      34.263 -23.698 -15.487  0.00  0.00    +0.028 C 
ATOM      6  C   UNL     1      33.913 -23.019 -16.630  0.00  0.00    +0.144 C 
ATOM      7  C   UNL     1      32.691 -24.450 -13.540  0.00  0.00    +0.099 C 
ATOM      8  C   UNL     1      32.057 -23.279 -15.502  0.00  0.00    +0.214 C 
ATOM      9  C   UNL     1      30.518 -23.803 -13.990  0.00  0.00    +0.254 C 
ENDROOT
BRANCH   5  10
ATOM     10  C   UNL     1      35.607 -24.108 -15.193  0.00  0.00    -0.000 C 
ATOM     11  C   UNL     1      36.540 -23.172 -14.747  0.00  0.00    -0.000 C 
ATOM     12  C   UNL     1      35.978 -25.443 -15.352  0.00  0.00    -0.000 C 
ATOM     13  C   UNL     1      37.844 -23.571 -14.460  0.00  0.00    -0.000 C 
ATOM     14  C   UNL     1      37.285 -25.842 -15.066  0.00  0.00    -0.000 C 
ATOM     15  C   UNL     1      38.218 -24.906 -14.620  0.00  0.00    -0.000 C 
ENDBRANCH   5  10
BRANCH   6  16
ATOM     16  C   UNL     1      34.633 -22.537 -17.779  0.00  0.00    +0.034 C 
ATOM     17  C   UNL     1      35.915 -22.011 -17.627  0.00  0.00    +0.003 C 
ATOM     18  C   UNL     1      34.049 -22.597 -19.044  0.00  0.00    +0.003 C 
ATOM     19  C   UNL     1      36.615 -21.544 -18.739  0.00  0.00    +0.000 C 
ATOM     20  C   UNL     1      34.748 -22.130 -20.157  0.00  0.00    +0.000 C 
ATOM     21  C   UNL     1      36.031 -21.603 -20.005  0.00  0.00    +0.000 C 
ENDBRANCH   6  16
BRANCH   7  22
ATOM     22  N   UNL     1      33.698 -25.080 -12.717  0.00  0.00    -0.376 NA
ATOM     23  H   UNL     1      33.824 -26.055 -12.663  0.00  0.00    +0.126 HD
ATOM     24  H   UNL     1      32.943 -25.482 -12.230  0.00  0.00    +0.126 HD
BRANCH  22  25
ATOM     25  C   UNL     1      34.528 -24.097 -11.958  0.00  0.00    +0.186 C 
BRANCH  25  28
ATOM     26  O   UNL     1      35.502 -24.388  -9.818  0.00  0.00    -0.244 OA
ATOM     27  O   UNL     1      36.429 -25.428 -11.629  0.00  0.00    -0.244 OA
ATOM     28  C   UNL     1      35.586 -24.692 -11.040  0.00  0.00    +0.383 C 
ENDBRANCH  25  28
ENDBRANCH  22  25
ENDBRANCH   7  22
TORSDOF 5
ENDMDL
MODEL 2
REMARK VINA RESULT:      -9.6      2.302      5.182
REMARK  Name = 30281577
REMARK  5 active torsions:
REMARK  status: ('A' for Active; 'I' for Inactive)
REMARK    1  A    between atoms: C_5  and  C_10
REMARK    2  A    between atoms: C_6  and  C_16
REMARK    3  A    between atoms: C_7  and  N_22
REMARK    4  A    between atoms: N_22  and  C_25
REMARK    5  A    between atoms: C_25  and  C_28
REMARK                            x       y       z     vdW  Elec       q    Type
REMARK                         _______ _______ _______ _____ _____    ______ ____
ROOT
ATOM      1  O   UNL     1      33.478 -24.387 -12.739  0.00  0.00    -0.440 OA
ATOM      2  N   UNL     1      37.493 -24.276 -12.293  0.00  0.00    -0.235 NA
ATOM      3  N   UNL     1      35.332 -24.772 -11.284  0.00  0.00    -0.214 NA
ATOM      4  C   UNL     1      35.526 -23.956 -13.579  0.00  0.00    +0.153 C 
ATOM      5  C   UNL     1      34.563 -23.671 -14.578  0.00  0.00    +0.028 C 
ATOM      6  C   UNL     1      33.338 -23.949 -14.018  0.00  0.00    +0.144 C 
ATOM      7  C   UNL     1      36.913 -23.907 -13.459  0.00  0.00    +0.099 C 
ATOM      8  C   UNL     1      34.814 -24.393 -12.467  0.00  0.00    +0.214 C 
ATOM      9  C   UNL     1      36.678 -24.679 -11.293  0.00  0.00    +0.254 C 
ENDROOT
BRANCH   5  10
ATOM     10  C   UNL     1      34.726 -23.192 -15.921  0.00  0.00    -0.000 C 
ATOM     11  C   UNL     1      35.824 -22.398 -16.250  0.00  0.00    -0.000 C 
ATOM     12  C   UNL     1      33.785 -23.521 -16.897  0.00  0.00    -0.000 C 
ATOM     13  C   UNL     1      35.983 -21.934 -17.555  0.00  0.00    -0.000 C 
ATOM     14  C   UNL     1      33.944 -23.056 -18.203  0.00  0.00    -0.000 C 
ATOM     15  C   UNL     1      35.043 -22.262 -18.532  0.00  0.00    -0.000 C 
ENDBRANCH   5  10
BRANCH   6  16
ATOM     16  C   UNL     1      31.977 -23.878 -14.481  0.00  0.00    +0.034 C 
ATOM     17  C   UNL     1      31.267 -25.051 -14.736  0.00  0.00    +0.003 C 
ATOM     18  C   UNL     1      31.369 -22.638 -14.674  0.00  0.00    +0.003 C 
ATOM     19  C   UNL     1      29.948 -24.984 -15.184  0.00  0.00    +0.000 C 
ATOM     20  C   UNL     1      30.050 -22.571 -15.121  0.00  0.00    +0.000 C 
ATOM     21  C   UNL     1      29.339 -23.744 -15.377  0.00  0.00    +0.000 C 
ENDBRANCH   6  16
BRANCH   7  22
ATOM     22  N   UNL     1      37.702 -23.461 -14.583  0.00  0.00    -0.376 NA
ATOM     23  H   UNL     1      37.839 -22.513 -14.810  0.00  0.00    +0.126 HD
ATOM     24  H   UNL     1      36.863 -23.081 -14.929  0.00  0.00    +0.126 HD
BRANCH  22  25
ATOM     25  C   UNL     1      38.290 -24.590 -15.366  0.00  0.00    +0.186 C 
BRANCH  25  28
ATOM     26  O   UNL     1      40.385 -24.654 -14.262  0.00  0.00    -0.244 OA
ATOM     27  O   UNL     1      39.247 -26.601 -14.633  0.00  0.00    -0.244 OA
ATOM     28  C   UNL     1      39.421 -25.349 -14.686  0.00  0.00    +0.383 C 
ENDBRANCH  25  28
ENDBRANCH  22  25
ENDBRANCH   7  22
TORSDOF 5
ENDMDL
MODEL 3
REMARK VINA RESULT:      -9.5     12.092     15.456
REMARK  Name = 30281577
REMARK  5 active torsions:
REMARK  status: ('A' for Active; 'I' for Inactive)
REMARK    1  A    between atoms: C_5  and  C_10
REMARK    2  A    between atoms: C_6  and  C_16
REMARK    3  A    between atoms: C_7  and  N_22
REMARK    4  A    between atoms: N_22  and  C_25
REMARK    5  A    between atoms: C_25  and  C_28
REMARK                            x       y       z     vdW  Elec       q    Type
REMARK                         _______ _______ _______ _____ _____    ______ ____
ROOT
ATOM      1  O   UNL     1      31.971 -10.856 -21.865  0.00  0.00    -0.440 OA
ATOM      2  N   UNL     1      32.968 -14.771 -21.831  0.00  0.00    -0.235 NA
ATOM      3  N   UNL     1      31.778 -12.950 -20.734  0.00  0.00    -0.214 NA
ATOM      4  C   UNL     1      33.038 -12.608 -22.800  0.00  0.00    +0.153 C 
ATOM      5  C   UNL     1      33.265 -11.465 -23.604  0.00  0.00    +0.028 C 
ATOM      6  C   UNL     1      32.597 -10.429 -22.994  0.00  0.00    +0.144 C 
ATOM      7  C   UNL     1      33.399 -13.953 -22.818  0.00  0.00    +0.099 C 
ATOM      8  C   UNL     1      32.238 -12.187 -21.743  0.00  0.00    +0.214 C 
ATOM      9  C   UNL     1      32.196 -14.226 -20.864  0.00  0.00    +0.254 C 
ENDROOT
BRANCH   5  10
ATOM     10  C   UNL     1      34.016 -11.312 -24.817  0.00  0.00    -0.000 C 
ATOM     11  C   UNL     1      35.080 -10.412 -24.871  0.00  0.00    -0.000 C 
ATOM     12  C   UNL     1      33.681 -12.065 -25.943  0.00  0.00    -0.000 C 
ATOM     13  C   UNL     1      35.810 -10.266 -26.050  0.00  0.00    -0.000 C 
ATOM     14  C   UNL     1      34.412 -11.918 -27.123  0.00  0.00    -0.000 C 
ATOM     15  C   UNL     1      35.476 -11.018 -27.176  0.00  0.00    -0.000 C 
ENDBRANCH   5  10
BRANCH   6  16
ATOM     16  C   UNL     1      32.421  -9.031 -23.283  0.00  0.00    +0.034 C 
ATOM     17  C   UNL     1      33.468  -8.137 -23.063  0.00  0.00    +0.003 C 
ATOM     18  C   UNL     1      31.203  -8.570 -23.783  0.00  0.00    +0.003 C 
ATOM     19  C   UNL     1      33.299  -6.781 -23.344  0.00  0.00    +0.000 C 
ATOM     20  C   UNL     1      31.034  -7.214 -24.064  0.00  0.00    +0.000 C 
ATOM     21  C   UNL     1      32.082  -6.319 -23.844  0.00  0.00    +0.000 C 
ENDBRANCH   6  16
BRANCH   7  22
ATOM     22  N   UNL     1      34.229 -14.445 -23.893  0.00  0.00    -0.376 NA
ATOM     23  H   UNL     1      34.766 -13.862 -24.477  0.00  0.00    +0.126 HD
ATOM     24  H   UNL     1      33.632 -13.938 -24.489  0.00  0.00    +0.126 HD
BRANCH  22  25
ATOM     25  C   UNL     1      34.188 -15.933 -24.026  0.00  0.00    +0.186 C 
BRANCH  25  28
ATOM     26  O   UNL     1      34.516 -17.663 -25.611  0.00  0.00    -0.244 OA
ATOM     27  O   UNL     1      33.715 -15.638 -26.304  0.00  0.00    -0.244 OA
ATOM     28  C   UNL     1      34.137 -16.470 -25.450  0.00  0.00    +0.383 C 
ENDBRANCH  25  28
ENDBRANCH  22  25
ENDBRANCH   7  22
TORSDOF 5
ENDMDL
MODEL 4
REMARK VINA RESULT:      -9.1      1.943      4.210
REMARK  Name = 30281577
REMARK  5 active torsions:
REMARK  status: ('A' for Active; 'I' for Inactive)
REMARK    1  A    between atoms: C_5  and  C_10
REMARK    2  A    between atoms: C_6  and  C_16
REMARK    3  A    between atoms: C_7  and  N_22
REMARK    4  A    between atoms: N_22  and  C_25
REMARK    5  A    between atoms: C_25  and  C_28
REMARK                            x       y       z     vdW  Elec       q    Type
REMARK                         _______ _______ _______ _____ _____    ______ ____
ROOT
ATOM      1  O   UNL     1      37.188 -22.835 -16.894  0.00  0.00    -0.440 OA
ATOM      2  N   UNL     1      37.534 -24.849 -13.409  0.00  0.00    -0.235 NA
ATOM      3  N   UNL     1      38.668 -23.852 -15.321  0.00  0.00    -0.214 NA
ATOM      4  C   UNL     1      36.237 -23.788 -15.086  0.00  0.00    +0.153 C 
ATOM      5  C   UNL     1      35.211 -23.242 -15.896  0.00  0.00    +0.028 C 
ATOM      6  C   UNL     1      35.841 -22.676 -16.980  0.00  0.00    +0.144 C 
ATOM      7  C   UNL     1      36.321 -24.481 -13.881  0.00  0.00    +0.099 C 
ATOM      8  C   UNL     1      37.434 -23.514 -15.738  0.00  0.00    +0.214 C 
ATOM      9  C   UNL     1      38.617 -24.517 -14.148  0.00  0.00    +0.254 C 
ENDROOT
BRANCH   5  10
ATOM     10  C   UNL     1      33.788 -23.228 -15.716  0.00  0.00    -0.000 C 
ATOM     11  C   UNL     1      32.957 -23.823 -16.665  0.00  0.00    -0.000 C 
ATOM     12  C   UNL     1      33.235 -22.620 -14.588  0.00  0.00    -0.000 C 
ATOM     13  C   UNL     1      31.574 -23.811 -16.488  0.00  0.00    -0.000 C 
ATOM     14  C   UNL     1      31.850 -22.606 -14.412  0.00  0.00    -0.000 C 
ATOM     15  C   UNL     1      31.020 -23.202 -15.362  0.00  0.00    -0.000 C 
ENDBRANCH   5  10
BRANCH   6  16
ATOM     16  C   UNL     1      35.395 -21.971 -18.153  0.00  0.00    +0.034 C 
ATOM     17  C   UNL     1      34.048 -22.003 -18.514  0.00  0.00    +0.003 C 
ATOM     18  C   UNL     1      36.309 -21.257 -18.927  0.00  0.00    +0.003 C 
ATOM     19  C   UNL     1      33.614 -21.319 -19.649  0.00  0.00    +0.000 C 
ATOM     20  C   UNL     1      35.875 -20.573 -20.063  0.00  0.00    +0.000 C 
ATOM     21  C   UNL     1      34.528 -20.604 -20.425  0.00  0.00    +0.000 C 
ENDBRANCH   6  16
BRANCH   7  22
ATOM     22  N   UNL     1      35.108 -24.792 -13.160  0.00  0.00    -0.376 NA
ATOM     23  H   UNL     1      34.471 -25.487 -13.443  0.00  0.00    +0.126 HD
ATOM     24  H   UNL     1      34.636 -24.495 -13.972  0.00  0.00    +0.126 HD
BRANCH  22  25
ATOM     25  C   UNL     1      34.922 -23.949 -11.941  0.00  0.00    +0.186 C 
BRANCH  25  28
ATOM     26  O   UNL     1      36.724 -23.734 -10.418  0.00  0.00    -0.244 OA
ATOM     27  O   UNL     1      35.180 -25.391 -10.110  0.00  0.00    -0.244 OA
ATOM     28  C   UNL     1      35.689 -24.396 -10.703  0.00  0.00    +0.383 C 
ENDBRANCH  25  28
ENDBRANCH  22  25
ENDBRANCH   7  22
TORSDOF 5
ENDMDL
MODEL 5
REMARK VINA RESULT:      -9.0     11.988     15.501
REMARK  Name = 30281577
REMARK  5 active torsions:
REMARK  status: ('A' for Active; 'I' for Inactive)
REMARK    1  A    between atoms: C_5  and  C_10
REMARK    2  A    between atoms: C_6  and  C_16
REMARK    3  A    between atoms: C_7  and  N_22
REMARK    4  A    between atoms: N_22  and  C_25
REMARK    5  A    between atoms: C_25  and  C_28
REMARK                            x       y       z     vdW  Elec       q    Type
REMARK                         _______ _______ _______ _____ _____    ______ ____
ROOT
ATOM      1  O   UNL     1      32.433 -13.593 -22.046  0.00  0.00    -0.440 OA
ATOM      2  N   UNL     1      31.277  -9.771 -21.427  0.00  0.00    -0.235 NA
ATOM      3  N   UNL     1      31.183 -12.087 -20.678  0.00  0.00    -0.214 NA
ATOM      4  C   UNL     1      32.455 -11.422 -22.656  0.00  0.00    +0.153 C 
ATOM      5  C   UNL     1      33.244 -12.154 -23.577  0.00  0.00    +0.028 C 
ATOM      6  C   UNL     1      33.198 -13.464 -23.162  0.00  0.00    +0.144 C 
ATOM      7  C   UNL     1      32.075 -10.095 -22.471  0.00  0.00    +0.099 C 
ATOM      8  C   UNL     1      31.977 -12.346 -21.733  0.00  0.00    +0.214 C 
ATOM      9  C   UNL     1      30.886 -10.773 -20.608  0.00  0.00    +0.254 C 
ENDROOT
BRANCH   5  10
ATOM     10  C   UNL     1      33.977 -11.717 -24.730  0.00  0.00    -0.000 C 
ATOM     11  C   UNL     1      33.732 -12.297 -25.974  0.00  0.00    -0.000 C 
ATOM     12  C   UNL     1      34.935 -10.709 -24.606  0.00  0.00    -0.000 C 
ATOM     13  C   UNL     1      34.445 -11.871 -27.094  0.00  0.00    -0.000 C 
ATOM     14  C   UNL     1      35.648 -10.283 -25.727  0.00  0.00    -0.000 C 
ATOM     15  C   UNL     1      35.402 -10.864 -26.972  0.00  0.00    -0.000 C 
ENDBRANCH   5  10
BRANCH   6  16
ATOM     16  C   UNL     1      33.768 -14.696 -23.641  0.00  0.00    +0.034 C 
ATOM     17  C   UNL     1      33.428 -15.176 -24.905  0.00  0.00    +0.003 C 
ATOM     18  C   UNL     1      34.661 -15.408 -22.841  0.00  0.00    +0.003 C 
ATOM     19  C   UNL     1      33.981 -16.368 -25.371  0.00  0.00    +0.000 C 
ATOM     20  C   UNL     1      35.214 -16.601 -23.307  0.00  0.00    +0.000 C 
ATOM     21  C   UNL     1      34.874 -17.082 -24.572  0.00  0.00    +0.000 C 
ENDBRANCH   6  16
BRANCH   7  22
ATOM     22  N   UNL     1      32.543  -9.092 -23.399  0.00  0.00    -0.376 NA
ATOM     23  H   UNL     1      32.364  -9.121 -24.367  0.00  0.00    +0.126 HD
ATOM     24  H   UNL     1      33.066  -9.819 -23.808  0.00  0.00    +0.126 HD
BRANCH  22  25
ATOM     25  C   UNL     1      33.325  -8.005 -22.737  0.00  0.00    +0.186 C 
BRANCH  25  28
ATOM     26  O   UNL     1      32.268  -6.279 -21.505  0.00  0.00    -0.244 OA
ATOM     27  O   UNL     1      32.521  -6.057 -23.765  0.00  0.00    -0.244 OA
ATOM     28  C   UNL     1      32.637  -6.649 -22.654  0.00  0.00    +0.383 C 
ENDBRANCH  25  28
ENDBRANCH  22  25
ENDBRANCH   7  22
TORSDOF 5
ENDMDL
MODEL 6
REMARK VINA RESULT:      -8.7     10.910     14.398
REMARK  Name = 30281577
REMARK  5 active torsions:
REMARK  status: ('A' for Active; 'I' for Inactive)
REMARK    1  A    between atoms: C_5  and  C_10
REMARK    2  A    between atoms: C_6  and  C_16
REMARK    3  A    between atoms: C_7  and  N_22
REMARK    4  A    between atoms: N_22  and  C_25
REMARK    5  A    between atoms: C_25  and  C_28
REMARK                            x       y       z     vdW  Elec       q    Type
REMARK                         _______ _______ _______ _____ _____    ______ ____
ROOT
ATOM      1  O   UNL     1      32.824 -13.863 -20.600  0.00  0.00    -0.440 OA
ATOM      2  N   UNL     1      31.162 -10.193 -20.912  0.00  0.00    -0.235 NA
ATOM      3  N   UNL     1      31.765 -12.053 -19.459  0.00  0.00    -0.214 NA
ATOM      4  C   UNL     1      32.225 -12.091 -21.858  0.00  0.00    +0.153 C 
ATOM      5  C   UNL     1      32.832 -13.053 -22.701  0.00  0.00    +0.028 C 
ATOM      6  C   UNL     1      33.177 -14.109 -21.890  0.00  0.00    +0.144 C 
ATOM      7  C   UNL     1      31.659 -10.826 -22.000  0.00  0.00    +0.099 C 
ATOM      8  C   UNL     1      32.242 -12.630 -20.577  0.00  0.00    +0.214 C 
ATOM      9  C   UNL     1      31.244 -10.838 -19.726  0.00  0.00    +0.254 C 
ENDROOT
BRANCH   5  10
ATOM     10  C   UNL     1      33.083 -13.030 -24.114  0.00  0.00    -0.000 C 
ATOM     11  C   UNL     1      33.834 -11.997 -24.673  0.00  0.00    -0.000 C 
ATOM     12  C   UNL     1      32.576 -14.044 -24.928  0.00  0.00    -0.000 C 
ATOM     13  C   UNL     1      34.079 -11.976 -26.045  0.00  0.00    -0.000 C 
ATOM     14  C   UNL     1      32.821 -14.022 -26.302  0.00  0.00    -0.000 C 
ATOM     15  C   UNL     1      33.572 -12.988 -26.860  0.00  0.00    -0.000 C 
ENDBRANCH   5  10
BRANCH   6  16
ATOM     16  C   UNL     1      33.814 -15.381 -22.104  0.00  0.00    +0.034 C 
ATOM     17  C   UNL     1      33.578 -16.435 -21.221  0.00  0.00    +0.003 C 
ATOM     18  C   UNL     1      34.667 -15.560 -23.193  0.00  0.00    +0.003 C 
ATOM     19  C   UNL     1      34.194 -17.669 -21.428  0.00  0.00    +0.000 C 
ATOM     20  C   UNL     1      35.283 -16.794 -23.399  0.00  0.00    +0.000 C 
ATOM     21  C   UNL     1      35.047 -17.849 -22.517  0.00  0.00    +0.000 C 
ENDBRANCH   6  16
BRANCH   7  22
ATOM     22  N   UNL     1      31.615 -10.216 -23.309  0.00  0.00    -0.376 NA
ATOM     23  H   UNL     1      31.425 -10.716 -24.136  0.00  0.00    +0.126 HD
ATOM     24  H   UNL     1      32.380 -10.798 -23.525  0.00  0.00    +0.126 HD
BRANCH  22  25
ATOM     25  C   UNL     1      31.889  -8.748 -23.277  0.00  0.00    +0.186 C 
BRANCH  25  28
ATOM     26  O   UNL     1      34.209  -8.777 -23.754  0.00  0.00    -0.244 OA
ATOM     27  O   UNL     1      33.448  -7.623 -21.934  0.00  0.00    -0.244 OA
ATOM     28  C   UNL     1      33.324  -8.348 -22.964  0.00  0.00    +0.383 C 
ENDBRANCH  25  28
ENDBRANCH  22  25
ENDBRANCH   7  22
TORSDOF 5
ENDMDL
MODEL 7
REMARK VINA RESULT:      -8.6      1.979      5.563
REMARK  Name = 30281577
REMARK  5 active torsions:
REMARK  status: ('A' for Active; 'I' for Inactive)
REMARK    1  A    between atoms: C_5  and  C_10
REMARK    2  A    between atoms: C_6  and  C_16
REMARK    3  A    between atoms: C_7  and  N_22
REMARK    4  A    between atoms: N_22  and  C_25
REMARK    5  A    between atoms: C_25  and  C_28
REMARK                            x       y       z     vdW  Elec       q    Type
REMARK                         _______ _______ _______ _____ _____    ______ ____
ROOT
ATOM      1  O   UNL     1      33.677 -24.917 -13.437  0.00  0.00    -0.440 OA
ATOM      2  N   UNL     1      29.936 -23.973 -14.638  0.00  0.00    -0.235 NA
ATOM      3  N   UNL     1      31.344 -25.000 -12.936  0.00  0.00    -0.214 NA
ATOM      4  C   UNL     1      32.286 -23.992 -14.952  0.00  0.00    +0.153 C 
ATOM      5  C   UNL     1      33.616 -23.848 -15.419  0.00  0.00    +0.028 C 
ATOM      6  C   UNL     1      34.420 -24.425 -14.464  0.00  0.00    +0.144 C 
ATOM      7  C   UNL     1      31.010 -23.652 -15.395  0.00  0.00    +0.099 C 
ATOM      8  C   UNL     1      32.372 -24.654 -13.732  0.00  0.00    +0.214 C 
ATOM      9  C   UNL     1      30.166 -24.618 -13.472  0.00  0.00    +0.254 C 
ENDROOT
BRANCH   5  10
ATOM     10  C   UNL     1      34.124 -23.244 -16.617  0.00  0.00    -0.000 C 
ATOM     11  C   UNL     1      33.407 -23.347 -17.809  0.00  0.00    -0.000 C 
ATOM     12  C   UNL     1      35.334 -22.551 -16.588  0.00  0.00    -0.000 C 
ATOM     13  C   UNL     1      33.901 -22.759 -18.972  0.00  0.00    -0.000 C 
ATOM     14  C   UNL     1      35.829 -21.962 -17.753  0.00  0.00    -0.000 C 
ATOM     15  C   UNL     1      35.111 -22.066 -18.945  0.00  0.00    -0.000 C 
ENDBRANCH   5  10
BRANCH   6  16
ATOM     16  C   UNL     1      35.839 -24.615 -14.320  0.00  0.00    +0.034 C 
ATOM     17  C   UNL     1      36.479 -25.638 -15.020  0.00  0.00    +0.003 C 
ATOM     18  C   UNL     1      36.574 -23.778 -13.480  0.00  0.00    +0.003 C 
ATOM     19  C   UNL     1      37.855 -25.823 -14.881  0.00  0.00    +0.000 C 
ATOM     20  C   UNL     1      37.949 -23.963 -13.342  0.00  0.00    +0.000 C 
ATOM     21  C   UNL     1      38.590 -24.986 -14.042  0.00  0.00    +0.000 C 
ENDBRANCH   6  16
BRANCH   7  22
ATOM     22  N   UNL     1      30.862 -22.962 -16.656  0.00  0.00    -0.376 NA
ATOM     23  H   UNL     1      31.453 -23.110 -17.429  0.00  0.00    +0.126 HD
ATOM     24  H   UNL     1      31.750 -22.581 -16.468  0.00  0.00    +0.126 HD
BRANCH  22  25
ATOM     25  C   UNL     1      29.718 -22.002 -16.663  0.00  0.00    +0.186 C 
BRANCH  25  28
ATOM     26  O   UNL     1      28.274 -23.545 -17.736  0.00  0.00    -0.244 OA
ATOM     27  O   UNL     1      27.425 -22.102 -16.181  0.00  0.00    -0.244 OA
ATOM     28  C   UNL     1      28.341 -22.614 -16.887  0.00  0.00    +0.383 C 
ENDBRANCH  25  28
ENDBRANCH  22  25
ENDBRANCH   7  22
TORSDOF 5
ENDMDL
MODEL 8
REMARK VINA RESULT:      -8.5     11.023     14.316
REMARK  Name = 30281577
REMARK  5 active torsions:
REMARK  status: ('A' for Active; 'I' for Inactive)
REMARK    1  A    between atoms: C_5  and  C_10
REMARK    2  A    between atoms: C_6  and  C_16
REMARK    3  A    between atoms: C_7  and  N_22
REMARK    4  A    between atoms: N_22  and  C_25
REMARK    5  A    between atoms: C_25  and  C_28
REMARK                            x       y       z     vdW  Elec       q    Type
REMARK                         _______ _______ _______ _____ _____    ______ ____
ROOT
ATOM      1  O   UNL     1      33.338 -11.326 -25.501  0.00  0.00    -0.440 OA
ATOM      2  N   UNL     1      33.630 -15.068 -26.995  0.00  0.00    -0.235 NA
ATOM      3  N   UNL     1      33.517 -12.680 -27.459  0.00  0.00    -0.214 NA
ATOM      4  C   UNL     1      33.448 -13.554 -25.179  0.00  0.00    +0.153 C 
ATOM      5  C   UNL     1      33.347 -12.924 -23.914  0.00  0.00    +0.028 C 
ATOM      6  C   UNL     1      33.282 -11.573 -24.165  0.00  0.00    +0.144 C 
ATOM      7  C   UNL     1      33.549 -14.857 -25.661  0.00  0.00    +0.099 C 
ATOM      8  C   UNL     1      33.439 -12.534 -26.124  0.00  0.00    +0.214 C 
ATOM      9  C   UNL     1      33.609 -13.982 -27.799  0.00  0.00    +0.254 C 
ENDROOT
BRANCH   5  10
ATOM     10  C   UNL     1      33.311 -13.483 -22.593  0.00  0.00    -0.000 C 
ATOM     11  C   UNL     1      32.161 -13.362 -21.815  0.00  0.00    -0.000 C 
ATOM     12  C   UNL     1      34.429 -14.149 -22.089  0.00  0.00    -0.000 C 
ATOM     13  C   UNL     1      32.127 -13.908 -20.532  0.00  0.00    -0.000 C 
ATOM     14  C   UNL     1      34.395 -14.694 -20.804  0.00  0.00    -0.000 C 
ATOM     15  C   UNL     1      33.243 -14.573 -20.026  0.00  0.00    -0.000 C 
ENDBRANCH   5  10
BRANCH   6  16
ATOM     16  C   UNL     1      33.173 -10.397 -23.343  0.00  0.00    +0.034 C 
ATOM     17  C   UNL     1      34.040  -9.324 -23.543  0.00  0.00    +0.003 C 
ATOM     18  C   UNL     1      32.200 -10.332 -22.345  0.00  0.00    +0.003 C 
ATOM     19  C   UNL     1      33.935  -8.184 -22.748  0.00  0.00    +0.000 C 
ATOM     20  C   UNL     1      32.095  -9.191 -21.549  0.00  0.00    +0.000 C 
ATOM     21  C   UNL     1      32.962  -8.117 -21.750  0.00  0.00    +0.000 C 
ENDBRANCH   6  16
BRANCH   7  22
ATOM     22  N   UNL     1      33.564 -15.957 -24.723  0.00  0.00    -0.376 NA
ATOM     23  H   UNL     1      32.968 -16.013 -23.942  0.00  0.00    +0.126 HD
ATOM     24  H   UNL     1      33.836 -15.287 -24.055  0.00  0.00    +0.126 HD
BRANCH  22  25
ATOM     25  C   UNL     1      34.577 -17.000 -25.066  0.00  0.00    +0.186 C 
BRANCH  25  28
ATOM     26  O   UNL     1      34.707 -19.173 -24.132  0.00  0.00    -0.244 OA
ATOM     27  O   UNL     1      35.479 -17.386 -22.936  0.00  0.00    -0.244 OA
ATOM     28  C   UNL     1      34.955 -17.952 -23.939  0.00  0.00    +0.383 C 
ENDBRANCH  25  28
ENDBRANCH  22  25
ENDBRANCH   7  22
TORSDOF 5
ENDMDL
MODEL 9
REMARK VINA RESULT:      -8.2     12.212     15.058
REMARK  Name = 30281577
REMARK  5 active torsions:
REMARK  status: ('A' for Active; 'I' for Inactive)
REMARK    1  A    between atoms: C_5  and  C_10
REMARK    2  A    between atoms: C_6  and  C_16
REMARK    3  A    between atoms: C_7  and  N_22
REMARK    4  A    between atoms: N_22  and  C_25
REMARK    5  A    between atoms: C_25  and  C_28
REMARK                            x       y       z     vdW  Elec       q    Type
REMARK                         _______ _______ _______ _____ _____    ______ ____
ROOT
ATOM      1  O   UNL     1      33.310 -10.907 -24.851  0.00  0.00    -0.440 OA
ATOM      2  N   UNL     1      33.225 -14.724 -23.530  0.00  0.00    -0.235 NA
ATOM      3  N   UNL     1      33.721 -13.202 -25.366  0.00  0.00    -0.214 NA
ATOM      4  C   UNL     1      32.881 -12.399 -23.216  0.00  0.00    +0.153 C 
ATOM      5  C   UNL     1      32.580 -11.103 -22.730  0.00  0.00    +0.028 C 
ATOM      6  C   UNL     1      32.857 -10.235 -23.760  0.00  0.00    +0.144 C 
ATOM      7  C   UNL     1      32.840 -13.703 -22.729  0.00  0.00    +0.099 C 
ATOM      8  C   UNL     1      33.326 -12.230 -24.523  0.00  0.00    +0.214 C 
ATOM      9  C   UNL     1      33.635 -14.414 -24.780  0.00  0.00    +0.254 C 
ENDROOT
BRANCH   5  10
ATOM     10  C   UNL     1      32.087 -10.678 -21.451  0.00  0.00    -0.000 C 
ATOM     11  C   UNL     1      31.079 -11.403 -20.816  0.00  0.00    -0.000 C 
ATOM     12  C   UNL     1      32.618  -9.540 -20.843  0.00  0.00    -0.000 C 
ATOM     13  C   UNL     1      30.601 -10.990 -19.573  0.00  0.00    -0.000 C 
ATOM     14  C   UNL     1      32.139  -9.127 -19.599  0.00  0.00    -0.000 C 
ATOM     15  C   UNL     1      31.131  -9.852 -18.964  0.00  0.00    -0.000 C 
ENDBRANCH   5  10
BRANCH   6  16
ATOM     16  C   UNL     1      32.774  -8.808 -23.927  0.00  0.00    +0.034 C 
ATOM     17  C   UNL     1      31.528  -8.183 -23.970  0.00  0.00    +0.003 C 
ATOM     18  C   UNL     1      33.939  -8.051 -24.048  0.00  0.00    +0.003 C 
ATOM     19  C   UNL     1      31.447  -6.800 -24.131  0.00  0.00    +0.000 C 
ATOM     20  C   UNL     1      33.858  -6.668 -24.209  0.00  0.00    +0.000 C 
ATOM     21  C   UNL     1      32.611  -6.042 -24.252  0.00  0.00    +0.000 C 
ENDBRANCH   6  16
BRANCH   7  22
ATOM     22  N   UNL     1      32.386 -13.938 -21.378  0.00  0.00    -0.376 NA
ATOM     23  H   UNL     1      31.912 -13.265 -20.840  0.00  0.00    +0.126 HD
ATOM     24  H   UNL     1      33.011 -13.222 -21.122  0.00  0.00    +0.126 HD
BRANCH  22  25
ATOM     25  C   UNL     1      32.713 -15.309 -20.884  0.00  0.00    +0.186 C 
BRANCH  25  28
ATOM     26  O   UNL     1      34.906 -14.665 -20.259  0.00  0.00    -0.244 OA
ATOM     27  O   UNL     1      34.526 -16.791 -21.006  0.00  0.00    -0.244 OA
ATOM     28  C   UNL     1      34.194 -15.611 -20.696  0.00  0.00    +0.383 C 
ENDBRANCH  25  28
ENDBRANCH  22  25
ENDBRANCH   7  22
TORSDOF 5
ENDMDL
