MODEL 1
REMARK VINA RESULT:      -6.6      0.000      0.000
REMARK  Name = 3282
REMARK  3 active torsions:
REMARK  status: ('A' for Active; 'I' for Inactive)
REMARK    1  A    between atoms: C_1  and  O_12
REMARK    2  A    between atoms: C_2  and  C_9
REMARK    3  A    between atoms: O_12  and  C_13
REMARK                            x       y       z     vdW  Elec       q    Type
REMARK                         _______ _______ _______ _____ _____    ______ ____
ROOT
ATOM      1  C   UNL     1      34.900 -16.929 -22.502  0.00  0.00    +0.143 C 
ATOM      2  C   UNL     1      34.842 -18.322 -22.533  0.00  0.00    +0.087 C 
ATOM      3  C   UNL     1      34.817 -16.202 -23.691  0.00  0.00    +0.037 C 
ATOM      4  C   UNL     1      34.700 -18.989 -23.750  0.00  0.00    +0.008 C 
ATOM      5  C   UNL     1      34.676 -16.868 -24.907  0.00  0.00    +0.003 C 
ATOM      6  C   UNL     1      34.617 -18.261 -24.938  0.00  0.00    +0.000 C 
ENDROOT
BRANCH   2   9
ATOM      7  O   UNL     1      33.988 -19.831 -20.937  0.00  0.00    -0.270 OA
ATOM      8  N   UNL     1      36.098 -19.015 -20.563  0.00  0.00    -0.325 N 
ATOM      9  C   UNL     1      34.925 -19.101 -21.304  0.00  0.00    +0.246 C 
ATOM     10  H   UNL     1      36.192 -19.527 -19.727  0.00  0.00    +0.145 HD
ATOM     11  H   UNL     1      36.837 -18.443 -20.875  0.00  0.00    +0.145 HD
ENDBRANCH   2   9
BRANCH   1  12
ATOM     12  O   UNL     1      35.037 -16.260 -21.323  0.00  0.00    -0.475 OA
BRANCH  12  13
ATOM     13  C   UNL     1      34.382 -14.998 -21.215  0.00  0.00    +0.206 C 
ATOM     14  C   UNL     1      33.022 -15.202 -20.578  0.00  0.00    +0.051 C 
ENDBRANCH  12  13
ENDBRANCH   1  12
TORSDOF 3
ENDMDL
MODEL 2
REMARK VINA RESULT:      -6.5      4.116      5.698
REMARK  Name = 3282
REMARK  3 active torsions:
REMARK  status: ('A' for Active; 'I' for Inactive)
REMARK    1  A    between atoms: C_1  and  O_12
REMARK    2  A    between atoms: C_2  and  C_9
REMARK    3  A    between atoms: O_12  and  C_13
REMARK                            x       y       z     vdW  Elec       q    Type
REMARK                         _______ _______ _______ _____ _____    ______ ____
ROOT
ATOM      1  C   UNL     1      35.359 -21.296 -19.568  0.00  0.00    +0.143 C 
ATOM      2  C   UNL     1      33.982 -21.515 -19.568  0.00  0.00    +0.087 C 
ATOM      3  C   UNL     1      35.894 -20.222 -20.280  0.00  0.00    +0.037 C 
ATOM      4  C   UNL     1      33.139 -20.661 -20.279  0.00  0.00    +0.008 C 
ATOM      5  C   UNL     1      35.051 -19.368 -20.991  0.00  0.00    +0.003 C 
ATOM      6  C   UNL     1      33.674 -19.587 -20.991  0.00  0.00    +0.000 C 
ENDROOT
BRANCH   2   9
ATOM      7  O   UNL     1      33.850 -23.783 -18.944  0.00  0.00    -0.270 OA
ATOM      8  N   UNL     1      32.339 -22.356 -17.977  0.00  0.00    -0.325 N 
ATOM      9  C   UNL     1      33.402 -22.630 -18.830  0.00  0.00    +0.246 C 
ATOM     10  H   UNL     1      31.921 -23.083 -17.461  0.00  0.00    +0.145 HD
ATOM     11  H   UNL     1      32.004 -21.434 -17.887  0.00  0.00    +0.145 HD
ENDBRANCH   2   9
BRANCH   1  12
ATOM     12  O   UNL     1      36.199 -22.119 -18.878  0.00  0.00    -0.475 OA
BRANCH  12  13
ATOM     13  C   UNL     1      36.822 -21.579 -17.715  0.00  0.00    +0.206 C 
ATOM     14  C   UNL     1      36.432 -22.415 -16.514  0.00  0.00    +0.051 C 
ENDBRANCH  12  13
ENDBRANCH   1  12
TORSDOF 3
ENDMDL
MODEL 3
REMARK VINA RESULT:      -6.5      2.332      3.244
REMARK  Name = 3282
REMARK  3 active torsions:
REMARK  status: ('A' for Active; 'I' for Inactive)
REMARK    1  A    between atoms: C_1  and  O_12
REMARK    2  A    between atoms: C_2  and  C_9
REMARK    3  A    between atoms: O_12  and  C_13
REMARK                            x       y       z     vdW  Elec       q    Type
REMARK                         _______ _______ _______ _____ _____    ______ ____
ROOT
ATOM      1  C   UNL     1      34.880 -16.690 -22.276  0.00  0.00    +0.143 C 
ATOM      2  C   UNL     1      34.669 -17.270 -23.527  0.00  0.00    +0.087 C 
ATOM      3  C   UNL     1      35.123 -17.498 -21.165  0.00  0.00    +0.037 C 
ATOM      4  C   UNL     1      34.701 -18.658 -23.667  0.00  0.00    +0.008 C 
ATOM      5  C   UNL     1      35.155 -18.885 -21.305  0.00  0.00    +0.003 C 
ATOM      6  C   UNL     1      34.944 -19.465 -22.556  0.00  0.00    +0.000 C 
ENDROOT
BRANCH   2   9
ATOM      7  O   UNL     1      34.970 -16.681 -25.788  0.00  0.00    -0.270 OA
ATOM      8  N   UNL     1      33.515 -15.394 -24.569  0.00  0.00    -0.325 N 
ATOM      9  C   UNL     1      34.415 -16.446 -24.701  0.00  0.00    +0.246 C 
ATOM     10  H   UNL     1      33.317 -14.814 -25.340  0.00  0.00    +0.145 HD
ATOM     11  H   UNL     1      33.073 -15.229 -23.704  0.00  0.00    +0.145 HD
ENDBRANCH   2   9
BRANCH   1  12
ATOM     12  O   UNL     1      34.854 -15.337 -22.120  0.00  0.00    -0.475 OA
BRANCH  12  13
ATOM     13  C   UNL     1      34.380 -14.839 -20.870  0.00  0.00    +0.206 C 
ATOM     14  C   UNL     1      32.883 -14.624 -20.961  0.00  0.00    +0.051 C 
ENDBRANCH  12  13
ENDBRANCH   1  12
TORSDOF 3
ENDMDL
MODEL 4
REMARK VINA RESULT:      -6.4      1.785      3.384
REMARK  Name = 3282
REMARK  3 active torsions:
REMARK  status: ('A' for Active; 'I' for Inactive)
REMARK    1  A    between atoms: C_1  and  O_12
REMARK    2  A    between atoms: C_2  and  C_9
REMARK    3  A    between atoms: O_12  and  C_13
REMARK                            x       y       z     vdW  Elec       q    Type
REMARK                         _______ _______ _______ _____ _____    ______ ____
ROOT
ATOM      1  C   UNL     1      34.701 -17.936 -21.986  0.00  0.00    +0.143 C 
ATOM      2  C   UNL     1      34.394 -16.581 -22.112  0.00  0.00    +0.087 C 
ATOM      3  C   UNL     1      35.027 -18.685 -23.118  0.00  0.00    +0.037 C 
ATOM      4  C   UNL     1      34.413 -15.975 -23.369  0.00  0.00    +0.008 C 
ATOM      5  C   UNL     1      35.047 -18.079 -24.373  0.00  0.00    +0.003 C 
ATOM      6  C   UNL     1      34.739 -16.724 -24.499  0.00  0.00    +0.000 C 
ENDROOT
BRANCH   2   9
ATOM      7  O   UNL     1      34.932 -15.299 -20.211  0.00  0.00    -0.270 OA
ATOM      8  N   UNL     1      32.704 -15.557 -20.687  0.00  0.00    -0.325 N 
ATOM      9  C   UNL     1      34.052 -15.781 -20.944  0.00  0.00    +0.246 C 
ATOM     10  H   UNL     1      32.433 -15.021 -19.907  0.00  0.00    +0.145 HD
ATOM     11  H   UNL     1      32.019 -15.935 -21.285  0.00  0.00    +0.145 HD
ENDBRANCH   2   9
BRANCH   1  12
ATOM     12  O   UNL     1      34.689 -18.546 -20.768  0.00  0.00    -0.475 OA
BRANCH  12  13
ATOM     13  C   UNL     1      34.420 -19.946 -20.748  0.00  0.00    +0.206 C 
ATOM     14  C   UNL     1      32.961 -20.164 -20.404  0.00  0.00    +0.051 C 
ENDBRANCH  12  13
ENDBRANCH   1  12
TORSDOF 3
ENDMDL
MODEL 5
REMARK VINA RESULT:      -6.3      2.136      3.884
REMARK  Name = 3282
REMARK  3 active torsions:
REMARK  status: ('A' for Active; 'I' for Inactive)
REMARK    1  A    between atoms: C_1  and  O_12
REMARK    2  A    between atoms: C_2  and  C_9
REMARK    3  A    between atoms: O_12  and  C_13
REMARK                            x       y       z     vdW  Elec       q    Type
REMARK                         _______ _______ _______ _____ _____    ______ ____
ROOT
ATOM      1  C   UNL     1      34.970 -17.136 -22.294  0.00  0.00    +0.143 C 
ATOM      2  C   UNL     1      34.576 -16.536 -23.490  0.00  0.00    +0.087 C 
ATOM      3  C   UNL     1      34.909 -16.416 -21.100  0.00  0.00    +0.037 C 
ATOM      4  C   UNL     1      34.122 -15.217 -23.494  0.00  0.00    +0.008 C 
ATOM      5  C   UNL     1      34.455 -15.098 -21.104  0.00  0.00    +0.003 C 
ATOM      6  C   UNL     1      34.061 -14.498 -22.300  0.00  0.00    +0.000 C 
ENDROOT
BRANCH   2   9
ATOM      7  O   UNL     1      35.052 -16.738 -25.789  0.00  0.00    -0.270 OA
ATOM      8  N   UNL     1      34.210 -18.595 -24.740  0.00  0.00    -0.325 N 
ATOM      9  C   UNL     1      34.630 -17.270 -24.748  0.00  0.00    +0.246 C 
ATOM     10  H   UNL     1      34.232 -19.124 -25.571  0.00  0.00    +0.145 HD
ATOM     11  H   UNL     1      33.891 -19.006 -23.904  0.00  0.00    +0.145 HD
ENDBRANCH   2   9
BRANCH   1  12
ATOM     12  O   UNL     1      35.416 -18.423 -22.270  0.00  0.00    -0.475 OA
BRANCH  12  13
ATOM     13  C   UNL     1      35.155 -19.177 -21.088  0.00  0.00    +0.206 C 
ATOM     14  C   UNL     1      33.762 -19.765 -21.176  0.00  0.00    +0.051 C 
ENDBRANCH  12  13
ENDBRANCH   1  12
TORSDOF 3
ENDMDL
MODEL 6
REMARK VINA RESULT:      -6.3      8.268      9.699
REMARK  Name = 3282
REMARK  3 active torsions:
REMARK  status: ('A' for Active; 'I' for Inactive)
REMARK    1  A    between atoms: C_1  and  O_12
REMARK    2  A    between atoms: C_2  and  C_9
REMARK    3  A    between atoms: O_12  and  C_13
REMARK                            x       y       z     vdW  Elec       q    Type
REMARK                         _______ _______ _______ _____ _____    ______ ____
ROOT
ATOM      1  C   UNL     1      32.100  -9.412 -21.833  0.00  0.00    +0.143 C 
ATOM      2  C   UNL     1      32.031  -8.855 -20.556  0.00  0.00    +0.087 C 
ATOM      3  C   UNL     1      31.817 -10.766 -22.019  0.00  0.00    +0.037 C 
ATOM      4  C   UNL     1      31.679  -9.651 -19.465  0.00  0.00    +0.008 C 
ATOM      5  C   UNL     1      31.465 -11.561 -20.929  0.00  0.00    +0.003 C 
ATOM      6  C   UNL     1      31.396 -11.004 -19.652  0.00  0.00    +0.000 C 
ENDROOT
BRANCH   2   9
ATOM      7  O   UNL     1      33.071  -7.072 -19.421  0.00  0.00    -0.270 OA
ATOM      8  N   UNL     1      31.743  -6.525 -21.208  0.00  0.00    -0.325 N 
ATOM      9  C   UNL     1      32.321  -7.444 -20.339  0.00  0.00    +0.246 C 
ATOM     10  H   UNL     1      31.915  -5.562 -21.094  0.00  0.00    +0.145 HD
ATOM     11  H   UNL     1      31.161  -6.837 -21.939  0.00  0.00    +0.145 HD
ENDBRANCH   2   9
BRANCH   1  12
ATOM     12  O   UNL     1      32.441  -8.651 -22.911  0.00  0.00    -0.475 OA
BRANCH  12  13
ATOM     13  C   UNL     1      33.705  -8.915 -23.515  0.00  0.00    +0.206 C 
ATOM     14  C   UNL     1      34.595  -7.700 -23.347  0.00  0.00    +0.051 C 
ENDBRANCH  12  13
ENDBRANCH   1  12
TORSDOF 3
ENDMDL
MODEL 7
REMARK VINA RESULT:      -6.3      2.138      3.130
REMARK  Name = 3282
REMARK  3 active torsions:
REMARK  status: ('A' for Active; 'I' for Inactive)
REMARK    1  A    between atoms: C_1  and  O_12
REMARK    2  A    between atoms: C_2  and  C_9
REMARK    3  A    between atoms: O_12  and  C_13
REMARK                            x       y       z     vdW  Elec       q    Type
REMARK                         _______ _______ _______ _____ _____    ______ ____
ROOT
ATOM      1  C   UNL     1      34.675 -16.762 -23.253  0.00  0.00    +0.143 C 
ATOM      2  C   UNL     1      34.429 -17.018 -21.904  0.00  0.00    +0.087 C 
ATOM      3  C   UNL     1      34.967 -17.816 -24.120  0.00  0.00    +0.037 C 
ATOM      4  C   UNL     1      34.474 -18.326 -21.422  0.00  0.00    +0.008 C 
ATOM      5  C   UNL     1      35.013 -19.124 -23.638  0.00  0.00    +0.003 C 
ATOM      6  C   UNL     1      34.766 -19.379 -22.289  0.00  0.00    +0.000 C 
ENDROOT
BRANCH   2   9
ATOM      7  O   UNL     1      34.959 -15.525 -20.160  0.00  0.00    -0.270 OA
ATOM      8  N   UNL     1      32.859 -15.354 -21.065  0.00  0.00    -0.325 N 
ATOM      9  C   UNL     1      34.120 -15.933 -20.982  0.00  0.00    +0.246 C 
ATOM     10  H   UNL     1      32.613 -14.618 -20.459  0.00  0.00    +0.145 HD
ATOM     11  H   UNL     1      32.210 -15.679 -21.731  0.00  0.00    +0.145 HD
ENDBRANCH   2   9
BRANCH   1  12
ATOM     12  O   UNL     1      34.635 -15.492 -23.744  0.00  0.00    -0.475 OA
BRANCH  12  13
ATOM     13  C   UNL     1      33.612 -15.197 -24.693  0.00  0.00    +0.206 C 
ATOM     14  C   UNL     1      33.047 -13.823 -24.398  0.00  0.00    +0.051 C 
ENDBRANCH  12  13
ENDBRANCH   1  12
TORSDOF 3
ENDMDL
MODEL 8
REMARK VINA RESULT:      -6.2      7.969      9.402
REMARK  Name = 3282
REMARK  3 active torsions:
REMARK  status: ('A' for Active; 'I' for Inactive)
REMARK    1  A    between atoms: C_1  and  O_12
REMARK    2  A    between atoms: C_2  and  C_9
REMARK    3  A    between atoms: O_12  and  C_13
REMARK                            x       y       z     vdW  Elec       q    Type
REMARK                         _______ _______ _______ _____ _____    ______ ____
ROOT
ATOM      1  C   UNL     1      32.576  -9.336 -22.500  0.00  0.00    +0.143 C 
ATOM      2  C   UNL     1      33.131  -8.101 -22.163  0.00  0.00    +0.087 C 
ATOM      3  C   UNL     1      33.134 -10.093 -23.531  0.00  0.00    +0.037 C 
ATOM      4  C   UNL     1      34.244  -7.624 -22.856  0.00  0.00    +0.008 C 
ATOM      5  C   UNL     1      34.246  -9.615 -24.224  0.00  0.00    +0.003 C 
ATOM      6  C   UNL     1      34.801  -8.381 -23.887  0.00  0.00    +0.000 C 
ENDROOT
BRANCH   2   9
ATOM      7  O   UNL     1      31.895  -6.278 -21.330  0.00  0.00    -0.270 OA
ATOM      8  N   UNL     1      32.787  -7.715 -19.782  0.00  0.00    -0.325 N 
ATOM      9  C   UNL     1      32.566  -7.296 -21.089  0.00  0.00    +0.246 C 
ATOM     10  H   UNL     1      32.421  -7.197 -19.029  0.00  0.00    +0.145 HD
ATOM     11  H   UNL     1      33.310  -8.531 -19.608  0.00  0.00    +0.145 HD
ENDBRANCH   2   9
BRANCH   1  12
ATOM     12  O   UNL     1      31.490  -9.820 -21.834  0.00  0.00    -0.475 OA
BRANCH  12  13
ATOM     13  C   UNL     1      31.533 -11.188 -21.434  0.00  0.00    +0.206 C 
ATOM     14  C   UNL     1      31.483 -11.261 -19.922  0.00  0.00    +0.051 C 
ENDBRANCH  12  13
ENDBRANCH   1  12
TORSDOF 3
ENDMDL
MODEL 9
REMARK VINA RESULT:      -6.1      2.690      3.696
REMARK  Name = 3282
REMARK  3 active torsions:
REMARK  status: ('A' for Active; 'I' for Inactive)
REMARK    1  A    between atoms: C_1  and  O_12
REMARK    2  A    between atoms: C_2  and  C_9
REMARK    3  A    between atoms: O_12  and  C_13
REMARK                            x       y       z     vdW  Elec       q    Type
REMARK                         _______ _______ _______ _____ _____    ______ ____
ROOT
ATOM      1  C   UNL     1      34.715 -15.863 -22.866  0.00  0.00    +0.143 C 
ATOM      2  C   UNL     1      34.133 -15.507 -24.082  0.00  0.00    +0.087 C 
ATOM      3  C   UNL     1      35.273 -17.132 -22.705  0.00  0.00    +0.037 C 
ATOM      4  C   UNL     1      34.109 -16.418 -25.138  0.00  0.00    +0.008 C 
ATOM      5  C   UNL     1      35.248 -18.043 -23.760  0.00  0.00    +0.003 C 
ATOM      6  C   UNL     1      34.666 -17.687 -24.977  0.00  0.00    +0.000 C 
ENDROOT
BRANCH   2   9
ATOM      7  O   UNL     1      32.471 -14.038 -24.876  0.00  0.00    -0.270 OA
ATOM      8  N   UNL     1      34.225 -13.096 -23.739  0.00  0.00    -0.325 N 
ATOM      9  C   UNL     1      33.547 -14.187 -24.273  0.00  0.00    +0.246 C 
ATOM     10  H   UNL     1      33.860 -12.188 -23.846  0.00  0.00    +0.145 HD
ATOM     11  H   UNL     1      35.070 -13.232 -23.252  0.00  0.00    +0.145 HD
ENDBRANCH   2   9
BRANCH   1  12
ATOM     12  O   UNL     1      34.750 -14.986 -21.823  0.00  0.00    -0.475 OA
BRANCH  12  13
ATOM     13  C   UNL     1      34.231 -15.443 -20.576  0.00  0.00    +0.206 C 
ATOM     14  C   UNL     1      32.727 -15.257 -20.571  0.00  0.00    +0.051 C 
ENDBRANCH  12  13
ENDBRANCH   1  12
TORSDOF 3
ENDMDL
