MODEL 1
REMARK VINA RESULT:      -9.1      0.000      0.000
REMARK  Name = 5488186
REMARK  2 active torsions:
REMARK  status: ('A' for Active; 'I' for Inactive)
REMARK    1  A    between atoms: C_13  and  O_16
REMARK    2  A    between atoms: C_15  and  O_18
REMARK                            x       y       z     vdW  Elec       q    Type
REMARK                         _______ _______ _______ _____ _____    ______ ____
ROOT
ATOM      1  O   UNL     1      34.006 -17.416 -25.739  0.00  0.00    -0.421 OA
ATOM      2  O   UNL     1      34.633 -19.535 -25.177  0.00  0.00    -0.244 OA
ATOM      3  C   UNL     1      34.510 -16.562 -23.091  0.00  0.00    +0.009 A 
ATOM      4  C   UNL     1      34.030 -15.607 -24.098  0.00  0.00    +0.035 A 
ATOM      5  C   UNL     1      34.716 -17.903 -23.456  0.00  0.00    +0.079 A 
ATOM      6  C   UNL     1      33.792 -16.064 -25.395  0.00  0.00    +0.152 A 
ATOM      7  C   UNL     1      34.780 -16.207 -21.755  0.00  0.00    +0.003 C 
ATOM      8  C   UNL     1      33.787 -14.245 -23.856  0.00  0.00    +0.006 C 
ATOM      9  C   UNL     1      35.174 -18.848 -22.523  0.00  0.00    +0.043 C 
ATOM     10  C   UNL     1      34.458 -18.371 -24.839  0.00  0.00    +0.346 A 
ATOM     11  C   UNL     1      33.336 -15.232 -26.422  0.00  0.00    +0.074 C 
ATOM     12  C   UNL     1      35.236 -17.147 -20.826  0.00  0.00    +0.037 C 
ATOM     13  C   UNL     1      35.433 -18.466 -21.210  0.00  0.00    +0.134 C 
ATOM     14  C   UNL     1      33.329 -13.396 -24.873  0.00  0.00    +0.037 C 
ATOM     15  C   UNL     1      33.103 -13.890 -26.155  0.00  0.00    +0.137 C 
ENDROOT
BRANCH  13  16
ATOM     16  O   UNL     1      35.876 -19.383 -20.307  0.00  0.00    -0.506 OA
ATOM     17  H   UNL     1      36.100 -20.248 -20.588  0.00  0.00    +0.292 HD
ENDBRANCH  13  16
BRANCH  15  18
ATOM     18  O   UNL     1      32.659 -13.062 -27.138  0.00  0.00    -0.505 OA
ATOM     19  H   UNL     1      32.534 -12.150 -26.962  0.00  0.00    +0.292 HD
ENDBRANCH  15  18
TORSDOF 2
ENDMDL
MODEL 2
REMARK VINA RESULT:      -8.9      1.696      2.840
REMARK  Name = 5488186
REMARK  2 active torsions:
REMARK  status: ('A' for Active; 'I' for Inactive)
REMARK    1  A    between atoms: C_13  and  O_16
REMARK    2  A    between atoms: C_15  and  O_18
REMARK                            x       y       z     vdW  Elec       q    Type
REMARK                         _______ _______ _______ _____ _____    ______ ____
ROOT
ATOM      1  O   UNL     1      34.302 -14.340 -22.265  0.00  0.00    -0.421 OA
ATOM      2  O   UNL     1      34.921 -15.091 -20.203  0.00  0.00    -0.244 OA
ATOM      3  C   UNL     1      34.508 -16.969 -23.287  0.00  0.00    +0.009 A 
ATOM      4  C   UNL     1      34.109 -15.862 -24.165  0.00  0.00    +0.035 A 
ATOM      5  C   UNL     1      34.786 -16.709 -21.934  0.00  0.00    +0.079 A 
ATOM      6  C   UNL     1      34.017 -14.577 -23.627  0.00  0.00    +0.152 A 
ATOM      7  C   UNL     1      34.632 -18.300 -23.728  0.00  0.00    +0.003 C 
ATOM      8  C   UNL     1      33.806 -15.994 -25.531  0.00  0.00    +0.006 C 
ATOM      9  C   UNL     1      35.171 -17.738 -21.060  0.00  0.00    +0.043 C 
ATOM     10  C   UNL     1      34.684 -15.338 -21.378  0.00  0.00    +0.346 A 
ATOM     11  C   UNL     1      33.646 -13.461 -24.381  0.00  0.00    +0.074 C 
ATOM     12  C   UNL     1      35.015 -19.326 -22.859  0.00  0.00    +0.037 C 
ATOM     13  C   UNL     1      35.285 -19.045 -21.526  0.00  0.00    +0.134 C 
ATOM     14  C   UNL     1      33.432 -14.886 -26.303  0.00  0.00    +0.037 C 
ATOM     15  C   UNL     1      33.352 -13.621 -25.729  0.00  0.00    +0.137 C 
ENDROOT
BRANCH  13  16
ATOM     16  O   UNL     1      35.658 -20.043 -20.679  0.00  0.00    -0.506 OA
ATOM     17  H   UNL     1      36.483 -20.000 -20.238  0.00  0.00    +0.292 HD
ENDBRANCH  13  16
BRANCH  15  18
ATOM     18  O   UNL     1      32.988 -12.549 -26.483  0.00  0.00    -0.505 OA
ATOM     19  H   UNL     1      33.532 -12.269 -27.193  0.00  0.00    +0.292 HD
ENDBRANCH  15  18
TORSDOF 2
ENDMDL
MODEL 3
REMARK VINA RESULT:      -8.6      9.515     11.979
REMARK  Name = 5488186
REMARK  2 active torsions:
REMARK  status: ('A' for Active; 'I' for Inactive)
REMARK    1  A    between atoms: C_13  and  O_16
REMARK    2  A    between atoms: C_15  and  O_18
REMARK                            x       y       z     vdW  Elec       q    Type
REMARK                         _______ _______ _______ _____ _____    ______ ____
ROOT
ATOM      1  O   UNL     1      34.584 -23.145 -17.070  0.00  0.00    -0.421 OA
ATOM      2  O   UNL     1      32.855 -22.735 -18.500  0.00  0.00    -0.244 OA
ATOM      3  C   UNL     1      32.755 -23.418 -14.932  0.00  0.00    +0.009 A 
ATOM      4  C   UNL     1      34.196 -23.576 -14.698  0.00  0.00    +0.035 A 
ATOM      5  C   UNL     1      32.294 -23.131 -16.228  0.00  0.00    +0.079 A 
ATOM      6  C   UNL     1      35.070 -23.435 -15.777  0.00  0.00    +0.152 A 
ATOM      7  C   UNL     1      31.789 -23.540 -13.915  0.00  0.00    +0.003 C 
ATOM      8  C   UNL     1      34.777 -23.863 -13.452  0.00  0.00    +0.006 C 
ATOM      9  C   UNL     1      30.925 -22.973 -16.494  0.00  0.00    +0.043 C 
ATOM     10  C   UNL     1      33.237 -22.984 -17.363  0.00  0.00    +0.346 A 
ATOM     11  C   UNL     1      36.456 -23.566 -15.656  0.00  0.00    +0.074 C 
ATOM     12  C   UNL     1      30.425 -23.383 -14.179  0.00  0.00    +0.037 C 
ATOM     13  C   UNL     1      29.993 -23.099 -15.467  0.00  0.00    +0.134 C 
ATOM     14  C   UNL     1      36.165 -23.998 -13.311  0.00  0.00    +0.037 C 
ATOM     15  C   UNL     1      37.003 -23.850 -14.412  0.00  0.00    +0.137 C 
ENDROOT
BRANCH  13  16
ATOM     16  O   UNL     1      28.666 -22.946 -15.726  0.00  0.00    -0.506 OA
ATOM     17  H   UNL     1      28.037 -23.489 -15.292  0.00  0.00    +0.292 HD
ENDBRANCH  13  16
BRANCH  15  18
ATOM     18  O   UNL     1      38.349 -23.982 -14.269  0.00  0.00    -0.505 OA
ATOM     19  H   UNL     1      38.861 -23.260 -13.962  0.00  0.00    +0.292 HD
ENDBRANCH  15  18
TORSDOF 2
ENDMDL
MODEL 4
REMARK VINA RESULT:      -8.5      6.101      9.039
REMARK  Name = 5488186
REMARK  2 active torsions:
REMARK  status: ('A' for Active; 'I' for Inactive)
REMARK    1  A    between atoms: C_13  and  O_16
REMARK    2  A    between atoms: C_15  and  O_18
REMARK                            x       y       z     vdW  Elec       q    Type
REMARK                         _______ _______ _______ _____ _____    ______ ____
ROOT
ATOM      1  O   UNL     1      32.805 -22.428 -18.304  0.00  0.00    -0.421 OA
ATOM      2  O   UNL     1      31.683 -23.607 -16.707  0.00  0.00    -0.244 OA
ATOM      3  C   UNL     1      35.218 -22.778 -16.871  0.00  0.00    +0.009 A 
ATOM      4  C   UNL     1      35.209 -22.031 -18.136  0.00  0.00    +0.035 A 
ATOM      5  C   UNL     1      34.016 -23.316 -16.380  0.00  0.00    +0.079 A 
ATOM      6  C   UNL     1      34.000 -21.879 -18.816  0.00  0.00    +0.152 A 
ATOM      7  C   UNL     1      36.381 -22.989 -16.106  0.00  0.00    +0.003 C 
ATOM      8  C   UNL     1      36.342 -21.447 -18.727  0.00  0.00    +0.006 C 
ATOM      9  C   UNL     1      33.981 -24.036 -15.176  0.00  0.00    +0.043 C 
ATOM     10  C   UNL     1      32.740 -23.145 -17.117  0.00  0.00    +0.346 A 
ATOM     11  C   UNL     1      33.890 -21.187 -20.026  0.00  0.00    +0.074 C 
ATOM     12  C   UNL     1      36.347 -23.706 -14.906  0.00  0.00    +0.037 C 
ATOM     13  C   UNL     1      35.148 -24.229 -14.441  0.00  0.00    +0.134 C 
ATOM     14  C   UNL     1      36.251 -20.749 -19.939  0.00  0.00    +0.037 C 
ATOM     15  C   UNL     1      35.026 -20.619 -20.587  0.00  0.00    +0.137 C 
ENDROOT
BRANCH  13  16
ATOM     16  O   UNL     1      35.113 -24.927 -13.273  0.00  0.00    -0.506 OA
ATOM     17  H   UNL     1      34.827 -24.509 -12.485  0.00  0.00    +0.292 HD
ENDBRANCH  13  16
BRANCH  15  18
ATOM     18  O   UNL     1      34.943 -19.941 -21.763  0.00  0.00    -0.505 OA
ATOM     19  H   UNL     1      34.390 -20.258 -22.450  0.00  0.00    +0.292 HD
ENDBRANCH  15  18
TORSDOF 2
ENDMDL
MODEL 5
REMARK VINA RESULT:      -8.5      7.554     11.300
REMARK  Name = 5488186
REMARK  2 active torsions:
REMARK  status: ('A' for Active; 'I' for Inactive)
REMARK    1  A    between atoms: C_13  and  O_16
REMARK    2  A    between atoms: C_15  and  O_18
REMARK                            x       y       z     vdW  Elec       q    Type
REMARK                         _______ _______ _______ _____ _____    ______ ____
ROOT
ATOM      1  O   UNL     1      35.114 -23.448 -14.553  0.00  0.00    -0.421 OA
ATOM      2  O   UNL     1      37.179 -22.735 -15.207  0.00  0.00    -0.244 OA
ATOM      3  C   UNL     1      34.080 -22.802 -17.104  0.00  0.00    +0.009 A 
ATOM      4  C   UNL     1      33.203 -23.369 -16.071  0.00  0.00    +0.035 A 
ATOM      5  C   UNL     1      35.437 -22.584 -16.812  0.00  0.00    +0.079 A 
ATOM      6  C   UNL     1      33.748 -23.676 -14.824  0.00  0.00    +0.152 A 
ATOM      7  C   UNL     1      33.632 -22.457 -18.394  0.00  0.00    +0.003 C 
ATOM      8  C   UNL     1      31.833 -23.632 -16.241  0.00  0.00    +0.006 C 
ATOM      9  C   UNL     1      36.309 -22.044 -17.771  0.00  0.00    +0.043 C 
ATOM     10  C   UNL     1      35.999 -22.916 -15.481  0.00  0.00    +0.346 A 
ATOM     11  C   UNL     1      32.995 -24.219 -13.778  0.00  0.00    +0.074 C 
ATOM     12  C   UNL     1      34.499 -21.919 -19.349  0.00  0.00    +0.037 C 
ATOM     13  C   UNL     1      35.837 -21.712 -19.038  0.00  0.00    +0.134 C 
ATOM     14  C   UNL     1      31.063 -24.176 -15.204  0.00  0.00    +0.037 C 
ATOM     15  C   UNL     1      31.644 -24.469 -13.974  0.00  0.00    +0.137 C 
ENDROOT
BRANCH  13  16
ATOM     16  O   UNL     1      36.682 -21.189 -19.967  0.00  0.00    -0.506 OA
ATOM     17  H   UNL     1      36.860 -21.659 -20.757  0.00  0.00    +0.292 HD
ENDBRANCH  13  16
BRANCH  15  18
ATOM     18  O   UNL     1      30.892 -24.996 -12.971  0.00  0.00    -0.505 OA
ATOM     19  H   UNL     1      30.784 -24.525 -12.168  0.00  0.00    +0.292 HD
ENDBRANCH  15  18
TORSDOF 2
ENDMDL
MODEL 6
REMARK VINA RESULT:      -8.5      8.388     11.452
REMARK  Name = 5488186
REMARK  2 active torsions:
REMARK  status: ('A' for Active; 'I' for Inactive)
REMARK    1  A    between atoms: C_13  and  O_16
REMARK    2  A    between atoms: C_15  and  O_18
REMARK                            x       y       z     vdW  Elec       q    Type
REMARK                         _______ _______ _______ _____ _____    ______ ____
ROOT
ATOM      1  O   UNL     1      32.666 -23.916 -15.245  0.00  0.00    -0.421 OA
ATOM      2  O   UNL     1      32.363 -24.700 -13.126  0.00  0.00    -0.244 OA
ATOM      3  C   UNL     1      35.384 -23.395 -14.666  0.00  0.00    +0.009 A 
ATOM      4  C   UNL     1      34.840 -23.096 -15.997  0.00  0.00    +0.035 A 
ATOM      5  C   UNL     1      34.541 -23.942 -13.684  0.00  0.00    +0.079 A 
ATOM      6  C   UNL     1      33.494 -23.367 -16.248  0.00  0.00    +0.152 A 
ATOM      7  C   UNL     1      36.726 -23.160 -14.309  0.00  0.00    +0.003 C 
ATOM      8  C   UNL     1      35.580 -22.550 -17.059  0.00  0.00    +0.006 C 
ATOM      9  C   UNL     1      35.022 -24.241 -12.399  0.00  0.00    +0.043 C 
ATOM     10  C   UNL     1      33.113 -24.223 -13.967  0.00  0.00    +0.346 A 
ATOM     11  C   UNL     1      32.885 -23.119 -17.481  0.00  0.00    +0.074 C 
ATOM     12  C   UNL     1      37.205 -23.458 -13.030  0.00  0.00    +0.037 C 
ATOM     13  C   UNL     1      36.354 -23.999 -12.076  0.00  0.00    +0.134 C 
ATOM     14  C   UNL     1      34.986 -22.294 -18.303  0.00  0.00    +0.037 C 
ATOM     15  C   UNL     1      33.640 -22.578 -18.513  0.00  0.00    +0.137 C 
ENDROOT
BRANCH  13  16
ATOM     16  O   UNL     1      36.819 -24.289 -10.830  0.00  0.00    -0.506 OA
ATOM     17  H   UNL     1      36.340 -24.873 -10.275  0.00  0.00    +0.292 HD
ENDBRANCH  13  16
BRANCH  15  18
ATOM     18  O   UNL     1      33.069 -22.327 -19.722  0.00  0.00    -0.505 OA
ATOM     19  H   UNL     1      33.326 -22.824 -20.473  0.00  0.00    +0.292 HD
ENDBRANCH  15  18
TORSDOF 2
ENDMDL
MODEL 7
REMARK VINA RESULT:      -8.4      7.578     10.733
REMARK  Name = 5488186
REMARK  2 active torsions:
REMARK  status: ('A' for Active; 'I' for Inactive)
REMARK    1  A    between atoms: C_13  and  O_16
REMARK    2  A    between atoms: C_15  and  O_18
REMARK                            x       y       z     vdW  Elec       q    Type
REMARK                         _______ _______ _______ _____ _____    ______ ____
ROOT
ATOM      1  O   UNL     1      35.837 -22.878 -15.584  0.00  0.00    -0.421 OA
ATOM      2  O   UNL     1      35.615 -23.623 -13.441  0.00  0.00    -0.244 OA
ATOM      3  C   UNL     1      33.099 -23.405 -16.054  0.00  0.00    +0.009 A 
ATOM      4  C   UNL     1      33.941 -22.851 -17.123  0.00  0.00    +0.035 A 
ATOM      5  C   UNL     1      33.668 -23.670 -14.797  0.00  0.00    +0.079 A 
ATOM      6  C   UNL     1      35.288 -22.602 -16.854  0.00  0.00    +0.152 A 
ATOM      7  C   UNL     1      31.731 -23.692 -16.219  0.00  0.00    +0.003 C 
ATOM      8  C   UNL     1      33.491 -22.544 -18.418  0.00  0.00    +0.006 C 
ATOM      9  C   UNL     1      32.898 -24.200 -13.749  0.00  0.00    +0.043 C 
ATOM     10  C   UNL     1      35.101 -23.400 -14.529  0.00  0.00    +0.346 A 
ATOM     11  C   UNL     1      36.168 -22.077 -17.805  0.00  0.00    +0.074 C 
ATOM     12  C   UNL     1      30.964 -24.220 -15.176  0.00  0.00    +0.037 C 
ATOM     13  C   UNL     1      31.547 -24.474 -13.942  0.00  0.00    +0.134 C 
ATOM     14  C   UNL     1      34.359 -22.016 -19.384  0.00  0.00    +0.037 C 
ATOM     15  C   UNL     1      35.696 -21.783 -19.077  0.00  0.00    +0.137 C 
ENDROOT
BRANCH  13  16
ATOM     16  O   UNL     1      30.802 -24.987 -12.925  0.00  0.00    -0.506 OA
ATOM     17  H   UNL     1      30.441 -25.849 -12.997  0.00  0.00    +0.292 HD
ENDBRANCH  13  16
BRANCH  15  18
ATOM     18  O   UNL     1      36.534 -21.271 -20.018  0.00  0.00    -0.505 OA
ATOM     19  H   UNL     1      36.309 -20.478 -20.463  0.00  0.00    +0.292 HD
ENDBRANCH  15  18
TORSDOF 2
ENDMDL
MODEL 8
REMARK VINA RESULT:      -8.4      8.546     11.199
REMARK  Name = 5488186
REMARK  2 active torsions:
REMARK  status: ('A' for Active; 'I' for Inactive)
REMARK    1  A    between atoms: C_13  and  O_16
REMARK    2  A    between atoms: C_15  and  O_18
REMARK                            x       y       z     vdW  Elec       q    Type
REMARK                         _______ _______ _______ _____ _____    ______ ____
ROOT
ATOM      1  O   UNL     1      36.646 -22.781 -16.829  0.00  0.00    -0.421 OA
ATOM      2  O   UNL     1      38.581 -23.028 -15.647  0.00  0.00    -0.244 OA
ATOM      3  C   UNL     1      35.160 -23.632 -14.579  0.00  0.00    +0.009 A 
ATOM      4  C   UNL     1      34.474 -23.270 -15.826  0.00  0.00    +0.035 A 
ATOM      5  C   UNL     1      36.562 -23.550 -14.515  0.00  0.00    +0.079 A 
ATOM      6  C   UNL     1      35.240 -22.854 -16.916  0.00  0.00    +0.152 A 
ATOM      7  C   UNL     1      34.484 -24.064 -13.421  0.00  0.00    +0.003 C 
ATOM      8  C   UNL     1      33.082 -23.310 -16.013  0.00  0.00    +0.006 C 
ATOM      9  C   UNL     1      37.256 -23.887 -13.342  0.00  0.00    +0.043 C 
ATOM     10  C   UNL     1      37.360 -23.106 -15.683  0.00  0.00    +0.346 A 
ATOM     11  C   UNL     1      34.680 -22.489 -18.144  0.00  0.00    +0.074 C 
ATOM     12  C   UNL     1      35.175 -24.399 -12.253  0.00  0.00    +0.037 C 
ATOM     13  C   UNL     1      36.560 -24.311 -12.213  0.00  0.00    +0.134 C 
ATOM     14  C   UNL     1      32.503 -22.948 -17.237  0.00  0.00    +0.037 C 
ATOM     15  C   UNL     1      33.301 -22.538 -18.301  0.00  0.00    +0.137 C 
ENDROOT
BRANCH  13  16
ATOM     16  O   UNL     1      37.234 -24.637 -11.077  0.00  0.00    -0.506 OA
ATOM     17  H   UNL     1      37.781 -24.003 -10.658  0.00  0.00    +0.292 HD
ENDBRANCH  13  16
BRANCH  15  18
ATOM     18  O   UNL     1      32.733 -22.189 -19.486  0.00  0.00    -0.505 OA
ATOM     19  H   UNL     1      32.729 -22.794 -20.201  0.00  0.00    +0.292 HD
ENDBRANCH  15  18
TORSDOF 2
ENDMDL
MODEL 9
REMARK VINA RESULT:      -8.4     10.611     12.050
REMARK  Name = 5488186
REMARK  2 active torsions:
REMARK  status: ('A' for Active; 'I' for Inactive)
REMARK    1  A    between atoms: C_13  and  O_16
REMARK    2  A    between atoms: C_15  and  O_18
REMARK                            x       y       z     vdW  Elec       q    Type
REMARK                         _______ _______ _______ _____ _____    ______ ____
ROOT
ATOM      1  O   UNL     1      32.691 -24.252 -13.188  0.00  0.00    -0.421 OA
ATOM      2  O   UNL     1      34.671 -24.586 -12.108  0.00  0.00    -0.244 OA
ATOM      3  C   UNL     1      34.086 -23.297 -15.454  0.00  0.00    +0.009 A 
ATOM      4  C   UNL     1      32.618 -23.363 -15.461  0.00  0.00    +0.035 A 
ATOM      5  C   UNL     1      34.789 -23.713 -14.311  0.00  0.00    +0.079 A 
ATOM      6  C   UNL     1      31.963 -23.840 -14.325  0.00  0.00    +0.152 A 
ATOM      7  C   UNL     1      34.844 -22.832 -16.546  0.00  0.00    +0.003 C 
ATOM      8  C   UNL     1      31.806 -22.977 -16.540  0.00  0.00    +0.006 C 
ATOM      9  C   UNL     1      36.191 -23.666 -14.264  0.00  0.00    +0.043 C 
ATOM     10  C   UNL     1      34.077 -24.218 -13.113  0.00  0.00    +0.346 A 
ATOM     11  C   UNL     1      30.572 -23.941 -14.235  0.00  0.00    +0.074 C 
ATOM     12  C   UNL     1      36.240 -22.785 -16.500  0.00  0.00    +0.037 C 
ATOM     13  C   UNL     1      36.914 -23.201 -15.360  0.00  0.00    +0.134 C 
ATOM     14  C   UNL     1      30.409 -23.071 -16.468  0.00  0.00    +0.037 C 
ATOM     15  C   UNL     1      29.794 -23.552 -15.317  0.00  0.00    +0.137 C 
ENDROOT
BRANCH  13  16
ATOM     16  O   UNL     1      38.273 -23.156 -15.313  0.00  0.00    -0.506 OA
ATOM     17  H   UNL     1      38.760 -22.895 -16.069  0.00  0.00    +0.292 HD
ENDBRANCH  13  16
BRANCH  15  18
ATOM     18  O   UNL     1      28.438 -23.641 -15.253  0.00  0.00    -0.505 OA
ATOM     19  H   UNL     1      27.955 -23.051 -14.709  0.00  0.00    +0.292 HD
ENDBRANCH  15  18
TORSDOF 2
ENDMDL
