MODEL 1
REMARK VINA RESULT:      -9.0      0.000      0.000
REMARK  Name = 5288602
REMARK  7 active torsions:
REMARK  status: ('A' for Active; 'I' for Inactive)
REMARK    1  A    between atoms: C_1  and  C_4
REMARK    2  A    between atoms: C_1  and  N_16
REMARK    3  A    between atoms: C_1  and  C_24
REMARK    4  A    between atoms: N_3  and  C_7
REMARK    5  A    between atoms: C_8  and  C_14
REMARK    6  A    between atoms: C_17  and  O_19
REMARK    7  A    between atoms: O_19  and  C_20
REMARK                            x       y       z     vdW  Elec       q    Type
REMARK                         _______ _______ _______ _____ _____    ______ ____
ROOT
ATOM      1  C   UNL     1      33.068 -11.731 -24.085  0.00  0.00    +0.151 C 
ENDROOT
BRANCH   1   4
ATOM      2  O   UNL     1      31.971 -13.225 -22.536  0.00  0.00    -0.273 OA
ATOM      3  N   UNL     1      34.155 -13.713 -23.241  0.00  0.00    -0.282 N 
ATOM      4  C   UNL     1      32.983 -12.964 -23.181  0.00  0.00    +0.244 C 
ATOM      5  H   UNL     1      34.861 -13.368 -23.833  0.00  0.00    +0.155 HD
BRANCH   3   7
ATOM      6 CL   UNL     1      35.256 -18.758 -23.343  0.00  0.00    -0.082 Cl
ATOM      7  C   UNL     1      34.450 -14.912 -22.549  0.00  0.00    +0.054 C 
ATOM      8  C   UNL     1      34.675 -16.090 -23.244  0.00  0.00    +0.066 C 
ATOM      9  C   UNL     1      34.507 -14.872 -21.164  0.00  0.00    +0.015 C 
ATOM     10  C   UNL     1      34.965 -17.257 -22.537  0.00  0.00    +0.062 C 
ATOM     11  C   UNL     1      34.796 -16.039 -20.457  0.00  0.00    +0.002 C 
ATOM     12  C   UNL     1      35.025 -17.232 -21.143  0.00  0.00    +0.012 C 
BRANCH   8  14
ATOM     13  O   UNL     1      33.611 -15.753 -25.330  0.00  0.00    -0.283 OA
ATOM     14  C   UNL     1      34.610 -16.102 -24.704  0.00  0.00    +0.236 C 
ENDBRANCH   8  14
ENDBRANCH   3   7
ENDBRANCH   1   4
BRANCH   1  16
ATOM     15  O   UNL     1      31.029 -10.136 -22.766  0.00  0.00    -0.226 OA
ATOM     16  N   UNL     1      33.257 -10.573 -23.248  0.00  0.00    -0.264 N 
ATOM     17  C   UNL     1      32.222  -9.873 -22.660  0.00  0.00    +0.402 C 
ATOM     18  H   UNL     1      34.177 -10.261 -23.086  0.00  0.00    +0.153 HD
BRANCH  17  19
ATOM     19  O   UNL     1      32.723  -8.831 -21.931  0.00  0.00    -0.442 OA
BRANCH  19  20
ATOM     20  C   UNL     1      32.853  -7.587 -22.627  0.00  0.00    +0.138 C 
ATOM     21  C   UNL     1      31.889  -7.590 -23.813  0.00  0.00    +0.044 C 
ATOM     22  C   UNL     1      32.496  -6.471 -21.647  0.00  0.00    +0.044 C 
ATOM     23  C   UNL     1      34.298  -7.443 -23.102  0.00  0.00    +0.044 C 
ENDBRANCH  19  20
ENDBRANCH  17  19
ENDBRANCH   1  16
BRANCH   1  24
ATOM     24  C   UNL     1      34.158 -11.876 -25.169  0.00  0.00    +0.027 C 
ATOM     25  C   UNL     1      33.605 -12.347 -26.518  0.00  0.00    +0.002 C 
ATOM     26  C   UNL     1      34.929 -10.565 -25.352  0.00  0.00    +0.002 C 
ENDBRANCH   1  24
TORSDOF 7
ENDMDL
MODEL 2
REMARK VINA RESULT:      -8.6      3.623      5.828
REMARK  Name = 5288602
REMARK  7 active torsions:
REMARK  status: ('A' for Active; 'I' for Inactive)
REMARK    1  A    between atoms: C_1  and  C_4
REMARK    2  A    between atoms: C_1  and  N_16
REMARK    3  A    between atoms: C_1  and  C_24
REMARK    4  A    between atoms: N_3  and  C_7
REMARK    5  A    between atoms: C_8  and  C_14
REMARK    6  A    between atoms: C_17  and  O_19
REMARK    7  A    between atoms: O_19  and  C_20
REMARK                            x       y       z     vdW  Elec       q    Type
REMARK                         _______ _______ _______ _____ _____    ______ ____
ROOT
ATOM      1  C   UNL     1      34.298 -17.237 -22.896  0.00  0.00    +0.151 C 
ENDROOT
BRANCH   1   4
ATOM      2  O   UNL     1      35.328 -17.143 -20.713  0.00  0.00    -0.273 OA
ATOM      3  N   UNL     1      34.738 -19.230 -21.608  0.00  0.00    -0.282 N 
ATOM      4  C   UNL     1      34.865 -17.844 -21.609  0.00  0.00    +0.244 C 
ATOM      5  H   UNL     1      34.316 -19.628 -22.403  0.00  0.00    +0.155 HD
BRANCH   3   7
ATOM      6 CL   UNL     1      33.530 -22.812 -18.089  0.00  0.00    -0.082 Cl
ATOM      7  C   UNL     1      35.144 -20.134 -20.597  0.00  0.00    +0.054 C 
ATOM      8  C   UNL     1      34.212 -20.921 -19.938  0.00  0.00    +0.066 C 
ATOM      9  C   UNL     1      36.494 -20.209 -20.289  0.00  0.00    +0.015 C 
ATOM     10  C   UNL     1      34.640 -21.804 -18.947  0.00  0.00    +0.062 C 
ATOM     11  C   UNL     1      36.922 -21.092 -19.298  0.00  0.00    +0.002 C 
ATOM     12  C   UNL     1      35.995 -21.889 -18.627  0.00  0.00    +0.012 C 
BRANCH   8  14
ATOM     13  O   UNL     1      32.188 -19.754 -20.312  0.00  0.00    -0.283 OA
ATOM     14  C   UNL     1      32.796 -20.823 -20.285  0.00  0.00    +0.236 C 
ENDBRANCH   8  14
ENDBRANCH   3   7
ENDBRANCH   1   4
BRANCH   1  16
ATOM     15  O   UNL     1      32.347 -15.428 -21.729  0.00  0.00    -0.226 OA
ATOM     16  N   UNL     1      34.378 -15.802 -22.789  0.00  0.00    -0.264 N 
ATOM     17  C   UNL     1      33.396 -15.018 -22.215  0.00  0.00    +0.402 C 
ATOM     18  H   UNL     1      35.178 -15.354 -23.146  0.00  0.00    +0.153 HD
BRANCH  17  19
ATOM     19  O   UNL     1      33.765 -13.703 -22.266  0.00  0.00    -0.442 OA
BRANCH  19  20
ATOM     20  C   UNL     1      33.046 -12.888 -23.198  0.00  0.00    +0.138 C 
ATOM     21  C   UNL     1      32.467 -13.790 -24.288  0.00  0.00    +0.044 C 
ATOM     22  C   UNL     1      31.927 -12.188 -22.430  0.00  0.00    +0.044 C 
ATOM     23  C   UNL     1      34.010 -11.864 -23.795  0.00  0.00    +0.044 C 
ENDBRANCH  19  20
ENDBRANCH  17  19
ENDBRANCH   1  16
BRANCH   1  24
ATOM     24  C   UNL     1      34.996 -17.788 -24.157  0.00  0.00    +0.027 C 
ATOM     25  C   UNL     1      34.464 -19.158 -24.589  0.00  0.00    +0.002 C 
ATOM     26  C   UNL     1      34.891 -16.798 -25.321  0.00  0.00    +0.002 C 
ENDBRANCH   1  24
TORSDOF 7
ENDMDL
MODEL 3
REMARK VINA RESULT:      -8.3      3.109      7.514
REMARK  Name = 5288602
REMARK  7 active torsions:
REMARK  status: ('A' for Active; 'I' for Inactive)
REMARK    1  A    between atoms: C_1  and  C_4
REMARK    2  A    between atoms: C_1  and  N_16
REMARK    3  A    between atoms: C_1  and  C_24
REMARK    4  A    between atoms: N_3  and  C_7
REMARK    5  A    between atoms: C_8  and  C_14
REMARK    6  A    between atoms: C_17  and  O_19
REMARK    7  A    between atoms: O_19  and  C_20
REMARK                            x       y       z     vdW  Elec       q    Type
REMARK                         _______ _______ _______ _____ _____    ______ ____
ROOT
ATOM      1  C   UNL     1      33.668 -14.444 -23.995  0.00  0.00    +0.151 C 
ENDROOT
BRANCH   1   4
ATOM      2  O   UNL     1      31.984 -13.239 -22.753  0.00  0.00    -0.273 OA
ATOM      3  N   UNL     1      33.700 -12.038 -23.811  0.00  0.00    -0.282 N 
ATOM      4  C   UNL     1      32.995 -13.183 -23.447  0.00  0.00    +0.244 C 
ATOM      5  H   UNL     1      34.509 -12.180 -24.353  0.00  0.00    +0.155 HD
BRANCH   3   7
ATOM      6 CL   UNL     1      34.735  -6.999 -24.267  0.00  0.00    -0.082 Cl
ATOM      7  C   UNL     1      33.388 -10.695 -23.494  0.00  0.00    +0.054 C 
ATOM      8  C   UNL     1      34.153  -9.655 -23.999  0.00  0.00    +0.066 C 
ATOM      9  C   UNL     1      32.301 -10.452 -22.667  0.00  0.00    +0.015 C 
ATOM     10  C   UNL     1      33.823  -8.340 -23.670  0.00  0.00    +0.062 C 
ATOM     11  C   UNL     1      31.972  -9.137 -22.338  0.00  0.00    +0.002 C 
ATOM     12  C   UNL     1      32.732  -8.081 -22.840  0.00  0.00    +0.012 C 
BRANCH   8  14
ATOM     13  O   UNL     1      35.205 -10.652 -25.868  0.00  0.00    -0.283 OA
ATOM     14  C   UNL     1      35.291  -9.940 -24.869  0.00  0.00    +0.236 C 
ENDBRANCH   8  14
ENDBRANCH   3   7
ENDBRANCH   1   4
BRANCH   1  16
ATOM     15  O   UNL     1      35.779 -16.201 -23.048  0.00  0.00    -0.226 OA
ATOM     16  N   UNL     1      33.576 -15.475 -22.991  0.00  0.00    -0.264 N 
ATOM     17  C   UNL     1      34.639 -16.266 -22.603  0.00  0.00    +0.402 C 
ATOM     18  H   UNL     1      32.705 -15.623 -22.558  0.00  0.00    +0.153 HD
BRANCH  17  19
ATOM     19  O   UNL     1      34.233 -17.144 -21.637  0.00  0.00    -0.442 OA
BRANCH  19  20
ATOM     20  C   UNL     1      34.643 -18.504 -21.817  0.00  0.00    +0.138 C 
ATOM     21  C   UNL     1      36.041 -18.673 -21.224  0.00  0.00    +0.044 C 
ATOM     22  C   UNL     1      33.637 -19.389 -21.085  0.00  0.00    +0.044 C 
ATOM     23  C   UNL     1      34.645 -18.817 -23.313  0.00  0.00    +0.044 C 
ENDBRANCH  19  20
ENDBRANCH  17  19
ENDBRANCH   1  16
BRANCH   1  24
ATOM     24  C   UNL     1      33.081 -14.875 -25.357  0.00  0.00    +0.027 C 
ATOM     25  C   UNL     1      33.208 -13.794 -26.435  0.00  0.00    +0.002 C 
ATOM     26  C   UNL     1      33.723 -16.176 -25.846  0.00  0.00    +0.002 C 
ENDBRANCH   1  24
TORSDOF 7
ENDMDL
MODEL 4
REMARK VINA RESULT:      -8.3     10.418     14.022
REMARK  Name = 5288602
REMARK  7 active torsions:
REMARK  status: ('A' for Active; 'I' for Inactive)
REMARK    1  A    between atoms: C_1  and  C_4
REMARK    2  A    between atoms: C_1  and  N_16
REMARK    3  A    between atoms: C_1  and  C_24
REMARK    4  A    between atoms: N_3  and  C_7
REMARK    5  A    between atoms: C_8  and  C_14
REMARK    6  A    between atoms: C_17  and  O_19
REMARK    7  A    between atoms: O_19  and  C_20
REMARK                            x       y       z     vdW  Elec       q    Type
REMARK                         _______ _______ _______ _____ _____    ______ ____
ROOT
ATOM      1  C   UNL     1      35.862 -23.834 -14.724  0.00  0.00    +0.151 C 
ENDROOT
BRANCH   1   4
ATOM      2  O   UNL     1      37.191 -22.057 -15.678  0.00  0.00    -0.273 OA
ATOM      3  N   UNL     1      35.361 -22.890 -16.888  0.00  0.00    -0.282 N 
ATOM      4  C   UNL     1      36.227 -22.808 -15.800  0.00  0.00    +0.244 C 
ATOM      5  H   UNL     1      34.653 -23.571 -16.829  0.00  0.00    +0.155 HD
BRANCH   3   7
ATOM      6 CL   UNL     1      32.818 -20.595 -20.753  0.00  0.00    -0.082 Cl
ATOM      7  C   UNL     1      35.381 -22.109 -18.068  0.00  0.00    +0.054 C 
ATOM      8  C   UNL     1      34.202 -21.795 -18.726  0.00  0.00    +0.066 C 
ATOM      9  C   UNL     1      36.609 -21.671 -18.543  0.00  0.00    +0.015 C 
ATOM     10  C   UNL     1      34.251 -21.023 -19.887  0.00  0.00    +0.062 C 
ATOM     11  C   UNL     1      36.657 -20.899 -19.704  0.00  0.00    +0.002 C 
ATOM     12  C   UNL     1      35.479 -20.575 -20.376  0.00  0.00    +0.012 C 
BRANCH   8  14
ATOM     13  O   UNL     1      32.762 -23.407 -17.766  0.00  0.00    -0.283 OA
ATOM     14  C   UNL     1      32.923 -22.268 -18.202  0.00  0.00    +0.236 C 
ENDBRANCH   8  14
ENDBRANCH   3   7
ENDBRANCH   1   4
BRANCH   1  16
ATOM     15  O   UNL     1      33.639 -24.099 -12.872  0.00  0.00    -0.226 OA
ATOM     16  N   UNL     1      34.534 -24.323 -15.002  0.00  0.00    -0.264 N 
ATOM     17  C   UNL     1      33.535 -24.414 -14.053  0.00  0.00    +0.402 C 
ATOM     18  H   UNL     1      34.328 -24.609 -15.921  0.00  0.00    +0.153 HD
BRANCH  17  19
ATOM     19  O   UNL     1      32.398 -24.913 -14.625  0.00  0.00    -0.442 OA
BRANCH  19  20
ATOM     20  C   UNL     1      31.223 -24.107 -14.483  0.00  0.00    +0.138 C 
ATOM     21  C   UNL     1      31.626 -22.636 -14.577  0.00  0.00    +0.044 C 
ATOM     22  C   UNL     1      30.271 -24.477 -15.618  0.00  0.00    +0.044 C 
ATOM     23  C   UNL     1      30.586 -24.411 -13.128  0.00  0.00    +0.044 C 
ENDBRANCH  19  20
ENDBRANCH  17  19
ENDBRANCH   1  16
BRANCH   1  24
ATOM     24  C   UNL     1      36.909 -24.963 -14.615  0.00  0.00    +0.027 C 
ATOM     25  C   UNL     1      37.323 -25.262 -13.171  0.00  0.00    +0.002 C 
ATOM     26  C   UNL     1      36.410 -26.244 -15.289  0.00  0.00    +0.002 C 
ENDBRANCH   1  24
TORSDOF 7
ENDMDL
MODEL 5
REMARK VINA RESULT:      -8.2      9.328     13.597
REMARK  Name = 5288602
REMARK  7 active torsions:
REMARK  status: ('A' for Active; 'I' for Inactive)
REMARK    1  A    between atoms: C_1  and  C_4
REMARK    2  A    between atoms: C_1  and  N_16
REMARK    3  A    between atoms: C_1  and  C_24
REMARK    4  A    between atoms: N_3  and  C_7
REMARK    5  A    between atoms: C_8  and  C_14
REMARK    6  A    between atoms: C_17  and  O_19
REMARK    7  A    between atoms: O_19  and  C_20
REMARK                            x       y       z     vdW  Elec       q    Type
REMARK                         _______ _______ _______ _____ _____    ______ ____
ROOT
ATOM      1  C   UNL     1      33.517 -23.834 -16.407  0.00  0.00    +0.151 C 
ENDROOT
BRANCH   1   4
ATOM      2  O   UNL     1      33.733 -24.191 -18.786  0.00  0.00    -0.273 OA
ATOM      3  N   UNL     1      33.944 -22.015 -17.935  0.00  0.00    -0.282 N 
ATOM      4  C   UNL     1      33.754 -23.392 -17.854  0.00  0.00    +0.244 C 
ATOM      5  H   UNL     1      33.904 -21.521 -17.085  0.00  0.00    +0.155 HD
BRANCH   3   7
ATOM      6 CL   UNL     1      37.287 -19.748 -21.152  0.00  0.00    -0.082 Cl
ATOM      7  C   UNL     1      34.189 -21.243 -19.096  0.00  0.00    +0.054 C 
ATOM      8  C   UNL     1      35.485 -20.931 -19.475  0.00  0.00    +0.066 C 
ATOM      9  C   UNL     1      33.099 -20.813 -19.838  0.00  0.00    +0.015 C 
ATOM     10  C   UNL     1      35.697 -20.170 -20.625  0.00  0.00    +0.062 C 
ATOM     11  C   UNL     1      33.311 -20.051 -20.987  0.00  0.00    +0.002 C 
ATOM     12  C   UNL     1      34.610 -19.730 -21.380  0.00  0.00    +0.012 C 
BRANCH   8  14
ATOM     13  O   UNL     1      36.864 -20.964 -17.553  0.00  0.00    -0.283 OA
ATOM     14  C   UNL     1      36.614 -21.401 -18.676  0.00  0.00    +0.236 C 
ENDBRANCH   8  14
ENDBRANCH   3   7
ENDBRANCH   1   4
BRANCH   1  16
ATOM     15  O   UNL     1      35.529 -25.752 -15.562  0.00  0.00    -0.226 OA
ATOM     16  N   UNL     1      34.721 -23.578 -15.657  0.00  0.00    -0.264 N 
ATOM     17  C   UNL     1      35.625 -24.558 -15.297  0.00  0.00    +0.402 C 
ATOM     18  H   UNL     1      34.910 -22.651 -15.384  0.00  0.00    +0.153 HD
BRANCH  17  19
ATOM     19  O   UNL     1      36.657 -24.001 -14.596  0.00  0.00    -0.442 OA
BRANCH  19  20
ATOM     20  C   UNL     1      36.699 -24.307 -13.197  0.00  0.00    +0.138 C 
ATOM     21  C   UNL     1      37.425 -25.639 -13.013  0.00  0.00    +0.044 C 
ATOM     22  C   UNL     1      37.458 -23.180 -12.501  0.00  0.00    +0.044 C 
ATOM     23  C   UNL     1      35.266 -24.393 -12.675  0.00  0.00    +0.044 C 
ENDBRANCH  19  20
ENDBRANCH  17  19
ENDBRANCH   1  16
BRANCH   1  24
ATOM     24  C   UNL     1      32.269 -23.168 -15.790  0.00  0.00    +0.027 C 
ATOM     25  C   UNL     1      30.967 -23.561 -16.495  0.00  0.00    +0.002 C 
ATOM     26  C   UNL     1      32.164 -23.475 -14.293  0.00  0.00    +0.002 C 
ENDBRANCH   1  24
TORSDOF 7
ENDMDL
MODEL 6
REMARK VINA RESULT:      -8.0      9.337     13.814
REMARK  Name = 5288602
REMARK  7 active torsions:
REMARK  status: ('A' for Active; 'I' for Inactive)
REMARK    1  A    between atoms: C_1  and  C_4
REMARK    2  A    between atoms: C_1  and  N_16
REMARK    3  A    between atoms: C_1  and  C_24
REMARK    4  A    between atoms: N_3  and  C_7
REMARK    5  A    between atoms: C_8  and  C_14
REMARK    6  A    between atoms: C_17  and  O_19
REMARK    7  A    between atoms: O_19  and  C_20
REMARK                            x       y       z     vdW  Elec       q    Type
REMARK                         _______ _______ _______ _____ _____    ______ ____
ROOT
ATOM      1  C   UNL     1      34.296 -23.649 -15.958  0.00  0.00    +0.151 C 
ENDROOT
BRANCH   1   4
ATOM      2  O   UNL     1      36.068 -22.013 -16.101  0.00  0.00    -0.273 OA
ATOM      3  N   UNL     1      34.753 -22.442 -17.997  0.00  0.00    -0.282 N 
ATOM      4  C   UNL     1      35.147 -22.594 -16.670  0.00  0.00    +0.244 C 
ATOM      5  H   UNL     1      34.008 -23.010 -18.296  0.00  0.00    +0.155 HD
BRANCH   3   7
ATOM      6 CL   UNL     1      34.095 -19.340 -22.073  0.00  0.00    -0.082 Cl
ATOM      7  C   UNL     1      35.300 -21.567 -18.965  0.00  0.00    +0.054 C 
ATOM      8  C   UNL     1      34.487 -20.973 -19.918  0.00  0.00    +0.066 C 
ATOM      9  C   UNL     1      36.665 -21.323 -18.932  0.00  0.00    +0.015 C 
ATOM     10  C   UNL     1      35.053 -20.113 -20.860  0.00  0.00    +0.062 C 
ATOM     11  C   UNL     1      37.230 -20.464 -19.874  0.00  0.00    +0.002 C 
ATOM     12  C   UNL     1      36.424 -19.859 -20.838  0.00  0.00    +0.012 C 
BRANCH   8  14
ATOM     13  O   UNL     1      32.284 -20.810 -19.072  0.00  0.00    -0.283 OA
ATOM     14  C   UNL     1      33.052 -21.246 -19.928  0.00  0.00    +0.236 C 
ENDBRANCH   8  14
ENDBRANCH   3   7
ENDBRANCH   1   4
BRANCH   1  16
ATOM     15  O   UNL     1      36.006 -25.996 -15.852  0.00  0.00    -0.226 OA
ATOM     16  N   UNL     1      35.047 -24.145 -14.831  0.00  0.00    -0.264 N 
ATOM     17  C   UNL     1      35.837 -25.276 -14.873  0.00  0.00    +0.402 C 
ATOM     18  H   UNL     1      34.991 -23.650 -13.982  0.00  0.00    +0.153 HD
BRANCH  17  19
ATOM     19  O   UNL     1      36.414 -25.483 -13.651  0.00  0.00    -0.442 OA
BRANCH  19  20
ATOM     20  C   UNL     1      37.663 -24.818 -13.430  0.00  0.00    +0.138 C 
ATOM     21  C   UNL     1      37.418 -23.612 -12.524  0.00  0.00    +0.044 C 
ATOM     22  C   UNL     1      38.602 -25.815 -12.755  0.00  0.00    +0.044 C 
ATOM     23  C   UNL     1      38.227 -24.379 -14.780  0.00  0.00    +0.044 C 
ENDBRANCH  19  20
ENDBRANCH  17  19
ENDBRANCH   1  16
BRANCH   1  24
ATOM     24  C   UNL     1      32.905 -23.108 -15.565  0.00  0.00    +0.027 C 
ATOM     25  C   UNL     1      31.822 -23.424 -16.602  0.00  0.00    +0.002 C 
ATOM     26  C   UNL     1      32.478 -23.634 -14.191  0.00  0.00    +0.002 C 
ENDBRANCH   1  24
TORSDOF 7
ENDMDL
MODEL 7
REMARK VINA RESULT:      -8.0     11.794     14.864
REMARK  Name = 5288602
REMARK  7 active torsions:
REMARK  status: ('A' for Active; 'I' for Inactive)
REMARK    1  A    between atoms: C_1  and  C_4
REMARK    2  A    between atoms: C_1  and  N_16
REMARK    3  A    between atoms: C_1  and  C_24
REMARK    4  A    between atoms: N_3  and  C_7
REMARK    5  A    between atoms: C_8  and  C_14
REMARK    6  A    between atoms: C_17  and  O_19
REMARK    7  A    between atoms: O_19  and  C_20
REMARK                            x       y       z     vdW  Elec       q    Type
REMARK                         _______ _______ _______ _____ _____    ______ ____
ROOT
ATOM      1  C   UNL     1      35.948 -22.546 -16.000  0.00  0.00    +0.151 C 
ENDROOT
BRANCH   1   4
ATOM      2  O   UNL     1      34.906 -24.705 -16.296  0.00  0.00    -0.273 OA
ATOM      3  N   UNL     1      33.724 -23.009 -15.186  0.00  0.00    -0.282 N 
ATOM      4  C   UNL     1      34.807 -23.559 -15.867  0.00  0.00    +0.244 C 
ATOM      5  H   UNL     1      33.826 -22.077 -14.889  0.00  0.00    +0.155 HD
BRANCH   3   7
ATOM      6 CL   UNL     1      28.752 -23.864 -16.291  0.00  0.00    -0.082 Cl
ATOM      7  C   UNL     1      32.494 -23.635 -14.872  0.00  0.00    +0.054 C 
ATOM      8  C   UNL     1      31.378 -23.438 -15.670  0.00  0.00    +0.066 C 
ATOM      9  C   UNL     1      32.440 -24.446 -13.748  0.00  0.00    +0.015 C 
ATOM     10  C   UNL     1      30.179 -24.068 -15.337  0.00  0.00    +0.062 C 
ATOM     11  C   UNL     1      31.240 -25.075 -13.415  0.00  0.00    +0.002 C 
ATOM     12  C   UNL     1      30.110 -24.886 -14.209  0.00  0.00    +0.012 C 
BRANCH   8  14
ATOM     13  O   UNL     1      32.066 -22.909 -17.871  0.00  0.00    -0.283 OA
ATOM     14  C   UNL     1      31.465 -22.580 -16.849  0.00  0.00    +0.236 C 
ENDBRANCH   8  14
ENDBRANCH   3   7
ENDBRANCH   1   4
BRANCH   1  16
ATOM     15  O   UNL     1      36.114 -23.282 -13.194  0.00  0.00    -0.226 OA
ATOM     16  N   UNL     1      37.091 -23.062 -15.288  0.00  0.00    -0.264 N 
ATOM     17  C   UNL     1      37.078 -23.385 -13.946  0.00  0.00    +0.402 C 
ATOM     18  H   UNL     1      37.930 -23.189 -15.788  0.00  0.00    +0.153 HD
BRANCH  17  19
ATOM     19  O   UNL     1      38.308 -23.845 -13.569  0.00  0.00    -0.442 OA
BRANCH  19  20
ATOM     20  C   UNL     1      38.483 -25.266 -13.605  0.00  0.00    +0.138 C 
ATOM     21  C   UNL     1      37.714 -25.820 -14.804  0.00  0.00    +0.044 C 
ATOM     22  C   UNL     1      39.978 -25.543 -13.750  0.00  0.00    +0.044 C 
ATOM     23  C   UNL     1      37.952 -25.854 -12.299  0.00  0.00    +0.044 C 
ENDBRANCH  19  20
ENDBRANCH  17  19
ENDBRANCH   1  16
BRANCH   1  24
ATOM     24  C   UNL     1      36.258 -22.207 -17.474  0.00  0.00    +0.027 C 
ATOM     25  C   UNL     1      34.999 -21.994 -18.320  0.00  0.00    +0.002 C 
ATOM     26  C   UNL     1      37.168 -20.979 -17.576  0.00  0.00    +0.002 C 
ENDBRANCH   1  24
TORSDOF 7
ENDMDL
MODEL 8
REMARK VINA RESULT:      -7.9      3.135      7.275
REMARK  Name = 5288602
REMARK  7 active torsions:
REMARK  status: ('A' for Active; 'I' for Inactive)
REMARK    1  A    between atoms: C_1  and  C_4
REMARK    2  A    between atoms: C_1  and  N_16
REMARK    3  A    between atoms: C_1  and  C_24
REMARK    4  A    between atoms: N_3  and  C_7
REMARK    5  A    between atoms: C_8  and  C_14
REMARK    6  A    between atoms: C_17  and  O_19
REMARK    7  A    between atoms: O_19  and  C_20
REMARK                            x       y       z     vdW  Elec       q    Type
REMARK                         _______ _______ _______ _____ _____    ______ ____
ROOT
ATOM      1  C   UNL     1      33.944 -14.632 -24.302  0.00  0.00    +0.151 C 
ENDROOT
BRANCH   1   4
ATOM      2  O   UNL     1      34.572 -13.765 -22.137  0.00  0.00    -0.273 OA
ATOM      3  N   UNL     1      32.721 -12.841 -23.245  0.00  0.00    -0.282 N 
ATOM      4  C   UNL     1      33.794 -13.714 -23.086  0.00  0.00    +0.244 C 
ATOM      5  H   UNL     1      32.216 -12.922 -24.085  0.00  0.00    +0.155 HD
BRANCH   3   7
ATOM      6 CL   UNL     1      32.209  -7.858 -21.986  0.00  0.00    -0.082 Cl
ATOM      7  C   UNL     1      32.272 -11.851 -22.338  0.00  0.00    +0.054 C 
ATOM      8  C   UNL     1      32.460 -10.505 -22.613  0.00  0.00    +0.066 C 
ATOM      9  C   UNL     1      31.640 -12.266 -21.175  0.00  0.00    +0.015 C 
ATOM     10  C   UNL     1      32.006  -9.551 -21.703  0.00  0.00    +0.062 C 
ATOM     11  C   UNL     1      31.187 -11.311 -20.265  0.00  0.00    +0.002 C 
ATOM     12  C   UNL     1      31.370  -9.954 -20.528  0.00  0.00    +0.012 C 
BRANCH   8  14
ATOM     13  O   UNL     1      34.321 -10.296 -24.058  0.00  0.00    -0.283 OA
ATOM     14  C   UNL     1      33.126 -10.097 -23.848  0.00  0.00    +0.236 C 
ENDBRANCH   8  14
ENDBRANCH   3   7
ENDBRANCH   1   4
BRANCH   1  16
ATOM     15  O   UNL     1      36.069 -16.459 -23.535  0.00  0.00    -0.226 OA
ATOM     16  N   UNL     1      33.817 -15.996 -23.853  0.00  0.00    -0.264 N 
ATOM     17  C   UNL     1      34.889 -16.795 -23.508  0.00  0.00    +0.402 C 
ATOM     18  H   UNL     1      32.913 -16.381 -23.790  0.00  0.00    +0.153 HD
BRANCH  17  19
ATOM     19  O   UNL     1      34.443 -18.029 -23.126  0.00  0.00    -0.442 OA
BRANCH  19  20
ATOM     20  C   UNL     1      34.624 -18.358 -21.744  0.00  0.00    +0.138 C 
ATOM     21  C   UNL     1      33.656 -19.485 -21.383  0.00  0.00    +0.044 C 
ATOM     22  C   UNL     1      36.070 -18.813 -21.564  0.00  0.00    +0.044 C 
ATOM     23  C   UNL     1      34.345 -17.112 -20.906  0.00  0.00    +0.044 C 
ENDBRANCH  19  20
ENDBRANCH  17  19
ENDBRANCH   1  16
BRANCH   1  24
ATOM     24  C   UNL     1      32.954 -14.273 -25.430  0.00  0.00    +0.027 C 
ATOM     25  C   UNL     1      33.383 -13.045 -26.239  0.00  0.00    +0.002 C 
ATOM     26  C   UNL     1      32.734 -15.463 -26.369  0.00  0.00    +0.002 C 
ENDBRANCH   1  24
TORSDOF 7
ENDMDL
MODEL 9
REMARK VINA RESULT:      -7.9      3.078      7.116
REMARK  Name = 5288602
REMARK  7 active torsions:
REMARK  status: ('A' for Active; 'I' for Inactive)
REMARK    1  A    between atoms: C_1  and  C_4
REMARK    2  A    between atoms: C_1  and  N_16
REMARK    3  A    between atoms: C_1  and  C_24
REMARK    4  A    between atoms: N_3  and  C_7
REMARK    5  A    between atoms: C_8  and  C_14
REMARK    6  A    between atoms: C_17  and  O_19
REMARK    7  A    between atoms: O_19  and  C_20
REMARK                            x       y       z     vdW  Elec       q    Type
REMARK                         _______ _______ _______ _____ _____    ______ ____
ROOT
ATOM      1  C   UNL     1      33.752 -14.310 -24.730  0.00  0.00    +0.151 C 
ENDROOT
BRANCH   1   4
ATOM      2  O   UNL     1      34.393 -12.001 -24.420  0.00  0.00    -0.273 OA
ATOM      3  N   UNL     1      32.640 -12.883 -23.133  0.00  0.00    -0.282 N 
ATOM      4  C   UNL     1      33.659 -12.925 -24.082  0.00  0.00    +0.244 C 
ATOM      5  H   UNL     1      32.130 -13.714 -23.005  0.00  0.00    +0.155 HD
BRANCH   3   7
ATOM      6 CL   UNL     1      31.270 -10.994 -18.526  0.00  0.00    -0.082 Cl
ATOM      7  C   UNL     1      32.253 -11.783 -22.331  0.00  0.00    +0.054 C 
ATOM      8  C   UNL     1      31.990 -11.952 -20.981  0.00  0.00    +0.066 C 
ATOM      9  C   UNL     1      32.147 -10.538 -22.934  0.00  0.00    +0.015 C 
ATOM     10  C   UNL     1      31.611 -10.850 -20.214  0.00  0.00    +0.062 C 
ATOM     11  C   UNL     1      31.767  -9.436 -22.167  0.00  0.00    +0.002 C 
ATOM     12  C   UNL     1      31.499  -9.592 -20.807  0.00  0.00    +0.012 C 
BRANCH   8  14
ATOM     13  O   UNL     1      33.038 -14.043 -20.627  0.00  0.00    -0.283 OA
ATOM     14  C   UNL     1      32.112 -13.274 -20.372  0.00  0.00    +0.236 C 
ENDBRANCH   8  14
ENDBRANCH   3   7
ENDBRANCH   1   4
BRANCH   1  16
ATOM     15  O   UNL     1      35.762 -16.021 -23.518  0.00  0.00    -0.226 OA
ATOM     16  N   UNL     1      33.564 -15.301 -23.701  0.00  0.00    -0.264 N 
ATOM     17  C   UNL     1      34.584 -16.074 -23.182  0.00  0.00    +0.402 C 
ATOM     18  H   UNL     1      32.655 -15.437 -23.348  0.00  0.00    +0.153 HD
BRANCH  17  19
ATOM     19  O   UNL     1      34.087 -16.916 -22.228  0.00  0.00    -0.442 OA
BRANCH  19  20
ATOM     20  C   UNL     1      34.602 -18.252 -22.243  0.00  0.00    +0.138 C 
ATOM     21  C   UNL     1      36.036 -18.227 -21.714  0.00  0.00    +0.044 C 
ATOM     22  C   UNL     1      33.710 -19.100 -21.340  0.00  0.00    +0.044 C 
ATOM     23  C   UNL     1      34.562 -18.772 -23.680  0.00  0.00    +0.044 C 
ENDBRANCH  19  20
ENDBRANCH  17  19
ENDBRANCH   1  16
BRANCH   1  24
ATOM     24  C   UNL     1      32.769 -14.469 -25.910  0.00  0.00    +0.027 C 
ATOM     25  C   UNL     1      33.052 -13.502 -27.063  0.00  0.00    +0.002 C 
ATOM     26  C   UNL     1      32.761 -15.910 -26.428  0.00  0.00    +0.002 C 
ENDBRANCH   1  24
TORSDOF 7
ENDMDL
