MODEL 1
REMARK VINA RESULT:     -11.2      0.000      0.000
REMARK  Name = 68942
REMARK  1 active torsions:
REMARK  status: ('A' for Active; 'I' for Inactive)
REMARK    1  A    between atoms: C_3  and  C_13
REMARK                            x       y       z     vdW  Elec       q    Type
REMARK                         _______ _______ _______ _____ _____    ______ ____
ROOT
ATOM      1  O   UNL     1      35.312 -16.632 -20.412  0.00  0.00    -0.291 OA
ATOM      2  O   UNL     1      35.227 -19.656 -24.069  0.00  0.00    -0.291 OA
ATOM      3  C   UNL     1      35.584 -18.575 -21.890  0.00  0.00    +0.146 C 
ATOM      4  C   UNL     1      35.212 -17.151 -21.508  0.00  0.00    +0.184 C 
ATOM      5  C   UNL     1      35.169 -18.675 -23.351  0.00  0.00    +0.184 C 
ATOM      6  C   UNL     1      34.692 -16.479 -22.701  0.00  0.00    +0.038 C 
ATOM      7  C   UNL     1      34.667 -17.366 -23.774  0.00  0.00    +0.038 C 
ATOM      8  C   UNL     1      34.261 -15.173 -22.830  0.00  0.00    +0.003 C 
ATOM      9  C   UNL     1      34.209 -16.985 -25.020  0.00  0.00    +0.003 C 
ATOM     10  C   UNL     1      33.796 -14.769 -24.085  0.00  0.00    +0.000 C 
ATOM     11  C   UNL     1      33.771 -15.668 -25.170  0.00  0.00    +0.000 C 
ENDROOT
BRANCH   3  13
ATOM     12  F   UNL     1      32.948 -22.369 -18.689  0.00  0.00    -0.204 F 
ATOM     13  C   UNL     1      34.887 -19.579 -21.044  0.00  0.00    -0.008 C 
ATOM     14  C   UNL     1      35.623 -20.528 -20.330  0.00  0.00    -0.001 C 
ATOM     15  C   UNL     1      33.492 -19.578 -20.959  0.00  0.00    -0.001 C 
ATOM     16  C   UNL     1      34.968 -21.470 -19.535  0.00  0.00    +0.029 C 
ATOM     17  C   UNL     1      32.838 -20.519 -20.163  0.00  0.00    +0.029 C 
ATOM     18  C   UNL     1      33.576 -21.465 -19.452  0.00  0.00    +0.140 C 
ENDBRANCH   3  13
TORSDOF 1
ENDMDL
MODEL 2
REMARK VINA RESULT:      -9.4      2.731      5.940
REMARK  Name = 68942
REMARK  1 active torsions:
REMARK  status: ('A' for Active; 'I' for Inactive)
REMARK    1  A    between atoms: C_3  and  C_13
REMARK                            x       y       z     vdW  Elec       q    Type
REMARK                         _______ _______ _______ _____ _____    ______ ____
ROOT
ATOM      1  O   UNL     1      32.805 -19.770 -21.687  0.00  0.00    -0.291 OA
ATOM      2  O   UNL     1      37.483 -19.053 -21.331  0.00  0.00    -0.291 OA
ATOM      3  C   UNL     1      35.132 -19.074 -22.051  0.00  0.00    +0.146 C 
ATOM      4  C   UNL     1      33.982 -19.815 -21.386  0.00  0.00    +0.184 C 
ATOM      5  C   UNL     1      36.341 -19.454 -21.207  0.00  0.00    +0.184 C 
ATOM      6  C   UNL     1      34.529 -20.616 -20.288  0.00  0.00    +0.038 C 
ATOM      7  C   UNL     1      35.901 -20.405 -20.183  0.00  0.00    +0.038 C 
ATOM      8  C   UNL     1      33.859 -21.467 -19.431  0.00  0.00    +0.003 C 
ATOM      9  C   UNL     1      36.661 -21.036 -19.218  0.00  0.00    +0.003 C 
ATOM     10  C   UNL     1      34.612 -22.115 -18.448  0.00  0.00    +0.000 C 
ATOM     11  C   UNL     1      36.001 -21.902 -18.343  0.00  0.00    +0.000 C 
ENDROOT
BRANCH   3  13
ATOM     12  F   UNL     1      34.284 -13.519 -22.132  0.00  0.00    -0.204 F 
ATOM     13  C   UNL     1      34.909 -17.605 -22.073  0.00  0.00    -0.008 C 
ATOM     14  C   UNL     1      34.841 -16.923 -23.290  0.00  0.00    -0.001 C 
ATOM     15  C   UNL     1      34.765 -16.899 -20.875  0.00  0.00    -0.001 C 
ATOM     16  C   UNL     1      34.630 -15.543 -23.310  0.00  0.00    +0.029 C 
ATOM     17  C   UNL     1      34.554 -15.520 -20.896  0.00  0.00    +0.029 C 
ATOM     18  C   UNL     1      34.486 -14.842 -22.114  0.00  0.00    +0.140 C 
ENDBRANCH   3  13
TORSDOF 1
ENDMDL
MODEL 3
REMARK VINA RESULT:      -9.0      8.902     11.157
REMARK  Name = 68942
REMARK  1 active torsions:
REMARK  status: ('A' for Active; 'I' for Inactive)
REMARK    1  A    between atoms: C_3  and  C_13
REMARK                            x       y       z     vdW  Elec       q    Type
REMARK                         _______ _______ _______ _____ _____    ______ ____
ROOT
ATOM      1  O   UNL     1      30.959  -5.807 -21.958  0.00  0.00    -0.291 OA
ATOM      2  O   UNL     1      34.942  -8.054 -23.226  0.00  0.00    -0.291 OA
ATOM      3  C   UNL     1      33.000  -7.172 -22.004  0.00  0.00    +0.146 C 
ATOM      4  C   UNL     1      31.964  -6.189 -22.526  0.00  0.00    +0.184 C 
ATOM      5  C   UNL     1      33.973  -7.321 -23.165  0.00  0.00    +0.184 C 
ATOM      6  C   UNL     1      32.376  -5.760 -23.865  0.00  0.00    +0.038 C 
ATOM      7  C   UNL     1      33.545  -6.419 -24.237  0.00  0.00    +0.038 C 
ATOM      8  C   UNL     1      31.756  -4.855 -24.704  0.00  0.00    +0.003 C 
ATOM      9  C   UNL     1      34.142  -6.202 -25.463  0.00  0.00    +0.003 C 
ATOM     10  C   UNL     1      32.347  -4.621 -25.948  0.00  0.00    +0.000 C 
ATOM     11  C   UNL     1      33.530  -5.288 -26.324  0.00  0.00    +0.000 C 
ENDROOT
BRANCH   3  13
ATOM     12  F   UNL     1      30.697 -12.090 -20.552  0.00  0.00    -0.204 F 
ATOM     13  C   UNL     1      32.390  -8.473 -21.620  0.00  0.00    -0.008 C 
ATOM     14  C   UNL     1      31.937  -9.354 -22.605  0.00  0.00    -0.001 C 
ATOM     15  C   UNL     1      32.268  -8.820 -20.272  0.00  0.00    -0.001 C 
ATOM     16  C   UNL     1      31.366 -10.575 -22.244  0.00  0.00    +0.029 C 
ATOM     17  C   UNL     1      31.697 -10.041 -19.912  0.00  0.00    +0.029 C 
ATOM     18  C   UNL     1      31.246 -10.918 -20.898  0.00  0.00    +0.140 C 
ENDBRANCH   3  13
TORSDOF 1
ENDMDL
MODEL 4
REMARK VINA RESULT:      -8.9      3.407      7.159
REMARK  Name = 68942
REMARK  1 active torsions:
REMARK  status: ('A' for Active; 'I' for Inactive)
REMARK    1  A    between atoms: C_3  and  C_13
REMARK                            x       y       z     vdW  Elec       q    Type
REMARK                         _______ _______ _______ _____ _____    ______ ____
ROOT
ATOM      1  O   UNL     1      32.761 -22.474 -19.915  0.00  0.00    -0.291 OA
ATOM      2  O   UNL     1      37.057 -21.797 -18.015  0.00  0.00    -0.291 OA
ATOM      3  C   UNL     1      35.150 -22.034 -19.547  0.00  0.00    +0.146 C 
ATOM      4  C   UNL     1      33.728 -22.430 -19.179  0.00  0.00    +0.184 C 
ATOM      5  C   UNL     1      35.894 -22.089 -18.221  0.00  0.00    +0.184 C 
ATOM      6  C   UNL     1      33.701 -22.756 -17.751  0.00  0.00    +0.038 C 
ATOM      7  C   UNL     1      34.961 -22.558 -17.194  0.00  0.00    +0.038 C 
ATOM      8  C   UNL     1      32.633 -23.192 -16.991  0.00  0.00    +0.003 C 
ATOM      9  C   UNL     1      35.207 -22.785 -15.854  0.00  0.00    +0.003 C 
ATOM     10  C   UNL     1      32.862 -23.429 -15.633  0.00  0.00    +0.000 C 
ATOM     11  C   UNL     1      34.139 -23.228 -15.070  0.00  0.00    +0.000 C 
ENDROOT
BRANCH   3  13
ATOM     12  F   UNL     1      35.374 -16.925 -21.880  0.00  0.00    -0.204 F 
ATOM     13  C   UNL     1      35.210 -20.682 -20.163  0.00  0.00    -0.008 C 
ATOM     14  C   UNL     1      36.445 -20.089 -20.436  0.00  0.00    -0.001 C 
ATOM     15  C   UNL     1      34.030 -19.999 -20.473  0.00  0.00    -0.001 C 
ATOM     16  C   UNL     1      36.500 -18.820 -21.016  0.00  0.00    +0.029 C 
ATOM     17  C   UNL     1      34.086 -18.731 -21.052  0.00  0.00    +0.029 C 
ATOM     18  C   UNL     1      35.322 -18.142 -21.323  0.00  0.00    +0.140 C 
ENDBRANCH   3  13
TORSDOF 1
ENDMDL
MODEL 5
REMARK VINA RESULT:      -8.8      2.713      5.856
REMARK  Name = 68942
REMARK  1 active torsions:
REMARK  status: ('A' for Active; 'I' for Inactive)
REMARK    1  A    between atoms: C_3  and  C_13
REMARK                            x       y       z     vdW  Elec       q    Type
REMARK                         _______ _______ _______ _____ _____    ______ ____
ROOT
ATOM      1  O   UNL     1      37.018 -18.737 -21.354  0.00  0.00    -0.291 OA
ATOM      2  O   UNL     1      32.339 -18.305 -20.691  0.00  0.00    -0.291 OA
ATOM      3  C   UNL     1      34.718 -17.899 -21.159  0.00  0.00    +0.146 C 
ATOM      4  C   UNL     1      35.853 -18.906 -21.050  0.00  0.00    +0.184 C 
ATOM      5  C   UNL     1      33.494 -18.688 -20.716  0.00  0.00    +0.184 C 
ATOM      6  C   UNL     1      35.306 -20.153 -20.510  0.00  0.00    +0.038 C 
ATOM      7  C   UNL     1      33.934 -20.026 -20.315  0.00  0.00    +0.038 C 
ATOM      8  C   UNL     1      35.975 -21.326 -20.217  0.00  0.00    +0.003 C 
ATOM      9  C   UNL     1      33.171 -21.066 -19.821  0.00  0.00    +0.003 C 
ATOM     10  C   UNL     1      35.220 -22.389 -19.714  0.00  0.00    +0.000 C 
ATOM     11  C   UNL     1      33.831 -22.259 -19.517  0.00  0.00    +0.000 C 
ENDROOT
BRANCH   3  13
ATOM     12  F   UNL     1      34.153 -15.910 -26.386  0.00  0.00    -0.204 F 
ATOM     13  C   UNL     1      34.570 -17.373 -22.542  0.00  0.00    -0.008 C 
ATOM     14  C   UNL     1      34.681 -18.234 -23.636  0.00  0.00    -0.001 C 
ATOM     15  C   UNL     1      34.317 -16.015 -22.753  0.00  0.00    -0.001 C 
ATOM     16  C   UNL     1      34.541 -17.740 -24.934  0.00  0.00    +0.029 C 
ATOM     17  C   UNL     1      34.176 -15.522 -24.050  0.00  0.00    +0.029 C 
ATOM     18  C   UNL     1      34.288 -16.385 -25.141  0.00  0.00    +0.140 C 
ENDBRANCH   3  13
TORSDOF 1
ENDMDL
MODEL 6
REMARK VINA RESULT:      -8.8      9.232     12.496
REMARK  Name = 68942
REMARK  1 active torsions:
REMARK  status: ('A' for Active; 'I' for Inactive)
REMARK    1  A    between atoms: C_3  and  C_13
REMARK                            x       y       z     vdW  Elec       q    Type
REMARK                         _______ _______ _______ _____ _____    ______ ____
ROOT
ATOM      1  O   UNL     1      32.643  -9.439 -23.893  0.00  0.00    -0.291 OA
ATOM      2  O   UNL     1      32.921  -6.999 -19.832  0.00  0.00    -0.291 OA
ATOM      3  C   UNL     1      33.113  -7.762 -22.161  0.00  0.00    +0.146 C 
ATOM      4  C   UNL     1      32.623  -9.085 -22.730  0.00  0.00    +0.184 C 
ATOM      5  C   UNL     1      32.764  -7.855 -20.682  0.00  0.00    +0.184 C 
ATOM      6  C   UNL     1      32.103  -9.892 -21.623  0.00  0.00    +0.038 C 
ATOM      7  C   UNL     1      32.185  -9.177 -20.432  0.00  0.00    +0.038 C 
ATOM      8  C   UNL     1      31.583 -11.172 -21.666  0.00  0.00    +0.003 C 
ATOM      9  C   UNL     1      31.750  -9.708 -19.234  0.00  0.00    +0.003 C 
ATOM     10  C   UNL     1      31.139 -11.727 -20.463  0.00  0.00    +0.000 C 
ATOM     11  C   UNL     1      31.223 -11.002 -19.258  0.00  0.00    +0.000 C 
ENDROOT
BRANCH   3  13
ATOM     12  F   UNL     1      30.643  -3.360 -24.633  0.00  0.00    -0.204 F 
ATOM     13  C   UNL     1      32.459  -6.599 -22.815  0.00  0.00    -0.008 C 
ATOM     14  C   UNL     1      31.478  -5.871 -22.135  0.00  0.00    -0.001 C 
ATOM     15  C   UNL     1      32.823  -6.226 -24.111  0.00  0.00    -0.001 C 
ATOM     16  C   UNL     1      30.866  -4.778 -22.750  0.00  0.00    +0.029 C 
ATOM     17  C   UNL     1      32.210  -5.133 -24.725  0.00  0.00    +0.029 C 
ATOM     18  C   UNL     1      31.231  -4.409 -24.043  0.00  0.00    +0.140 C 
ENDBRANCH   3  13
TORSDOF 1
ENDMDL
MODEL 7
REMARK VINA RESULT:      -8.8      2.916      4.629
REMARK  Name = 68942
REMARK  1 active torsions:
REMARK  status: ('A' for Active; 'I' for Inactive)
REMARK    1  A    between atoms: C_3  and  C_13
REMARK                            x       y       z     vdW  Elec       q    Type
REMARK                         _______ _______ _______ _____ _____    ______ ____
ROOT
ATOM      1  O   UNL     1      37.281 -21.574 -20.089  0.00  0.00    -0.291 OA
ATOM      2  O   UNL     1      32.590 -21.223 -19.455  0.00  0.00    -0.291 OA
ATOM      3  C   UNL     1      34.922 -21.997 -19.550  0.00  0.00    +0.146 C 
ATOM      4  C   UNL     1      36.113 -21.234 -20.108  0.00  0.00    +0.184 C 
ATOM      5  C   UNL     1      33.748 -21.057 -19.789  0.00  0.00    +0.184 C 
ATOM      6  C   UNL     1      35.622 -19.982 -20.689  0.00  0.00    +0.038 C 
ATOM      7  C   UNL     1      34.246 -19.879 -20.503  0.00  0.00    +0.038 C 
ATOM      8  C   UNL     1      36.342 -18.994 -21.332  0.00  0.00    +0.003 C 
ATOM      9  C   UNL     1      33.533 -18.785 -20.951  0.00  0.00    +0.003 C 
ATOM     10  C   UNL     1      35.637 -17.879 -21.793  0.00  0.00    +0.000 C 
ATOM     11  C   UNL     1      34.245 -17.776 -21.605  0.00  0.00    +0.000 C 
ENDROOT
BRANCH   3  13
ATOM     12  F   UNL     1      35.570 -23.212 -14.100  0.00  0.00    -0.204 F 
ATOM     13  C   UNL     1      35.092 -22.317 -18.108  0.00  0.00    -0.008 C 
ATOM     14  C   UNL     1      34.083 -22.990 -17.414  0.00  0.00    -0.001 C 
ATOM     15  C   UNL     1      36.263 -21.948 -17.441  0.00  0.00    -0.001 C 
ATOM     16  C   UNL     1      34.245 -23.292 -16.061  0.00  0.00    +0.029 C 
ATOM     17  C   UNL     1      36.424 -22.251 -16.088  0.00  0.00    +0.029 C 
ATOM     18  C   UNL     1      35.415 -22.923 -15.399  0.00  0.00    +0.140 C 
ENDBRANCH   3  13
TORSDOF 1
ENDMDL
MODEL 8
REMARK VINA RESULT:      -8.7      4.897      7.825
REMARK  Name = 68942
REMARK  1 active torsions:
REMARK  status: ('A' for Active; 'I' for Inactive)
REMARK    1  A    between atoms: C_3  and  C_13
REMARK                            x       y       z     vdW  Elec       q    Type
REMARK                         _______ _______ _______ _____ _____    ______ ____
ROOT
ATOM      1  O   UNL     1      32.459 -13.367 -20.531  0.00  0.00    -0.291 OA
ATOM      2  O   UNL     1      33.179 -14.131 -25.159  0.00  0.00    -0.291 OA
ATOM      3  C   UNL     1      32.388 -13.300 -22.985  0.00  0.00    +0.146 C 
ATOM      4  C   UNL     1      32.783 -13.821 -21.612  0.00  0.00    +0.184 C 
ATOM      5  C   UNL     1      33.146 -14.206 -23.945  0.00  0.00    +0.184 C 
ATOM      6  C   UNL     1      33.647 -14.989 -21.798  0.00  0.00    +0.038 C 
ATOM      7  C   UNL     1      33.858 -15.214 -23.155  0.00  0.00    +0.038 C 
ATOM      8  C   UNL     1      34.216 -15.797 -20.832  0.00  0.00    +0.003 C 
ATOM      9  C   UNL     1      34.647 -16.253 -23.605  0.00  0.00    +0.003 C 
ATOM     10  C   UNL     1      35.017 -16.855 -21.269  0.00  0.00    +0.000 C 
ATOM     11  C   UNL     1      35.230 -17.082 -22.643  0.00  0.00    +0.000 C 
ENDROOT
BRANCH   3  13
ATOM     12  F   UNL     1      33.764  -7.893 -23.668  0.00  0.00    -0.204 F 
ATOM     13  C   UNL     1      32.753 -11.870 -23.165  0.00  0.00    -0.008 C 
ATOM     14  C   UNL     1      33.859 -11.520 -23.945  0.00  0.00    -0.001 C 
ATOM     15  C   UNL     1      31.991 -10.870 -22.556  0.00  0.00    -0.001 C 
ATOM     16  C   UNL     1      34.200 -10.178 -24.114  0.00  0.00    +0.029 C 
ATOM     17  C   UNL     1      32.332  -9.528 -22.726  0.00  0.00    +0.029 C 
ATOM     18  C   UNL     1      33.437  -9.182 -23.505  0.00  0.00    +0.140 C 
ENDBRANCH   3  13
TORSDOF 1
ENDMDL
MODEL 9
REMARK VINA RESULT:      -8.6      4.752      7.700
REMARK  Name = 68942
REMARK  1 active torsions:
REMARK  status: ('A' for Active; 'I' for Inactive)
REMARK    1  A    between atoms: C_3  and  C_13
REMARK                            x       y       z     vdW  Elec       q    Type
REMARK                         _______ _______ _______ _____ _____    ______ ____
ROOT
ATOM      1  O   UNL     1      32.681 -13.647 -20.563  0.00  0.00    -0.291 OA
ATOM      2  O   UNL     1      33.094 -14.340 -25.240  0.00  0.00    -0.291 OA
ATOM      3  C   UNL     1      32.448 -13.543 -23.006  0.00  0.00    +0.146 C 
ATOM      4  C   UNL     1      32.933 -14.083 -21.670  0.00  0.00    +0.184 C 
ATOM      5  C   UNL     1      33.141 -14.433 -24.028  0.00  0.00    +0.184 C 
ATOM      6  C   UNL     1      33.784 -15.248 -21.931  0.00  0.00    +0.038 C 
ATOM      7  C   UNL     1      33.905 -15.451 -23.302  0.00  0.00    +0.038 C 
ATOM      8  C   UNL     1      34.416 -16.068 -21.017  0.00  0.00    +0.003 C 
ATOM      9  C   UNL     1      34.664 -16.482 -23.819  0.00  0.00    +0.003 C 
ATOM     10  C   UNL     1      35.188 -17.119 -21.522  0.00  0.00    +0.000 C 
ATOM     11  C   UNL     1      35.310 -17.324 -22.910  0.00  0.00    +0.000 C 
ENDROOT
BRANCH   3  13
ATOM     12  F   UNL     1      33.779  -8.126 -23.691  0.00  0.00    -0.204 F 
ATOM     13  C   UNL     1      32.799 -12.110 -23.188  0.00  0.00    -0.008 C 
ATOM     14  C   UNL     1      32.062 -11.118 -22.537  0.00  0.00    -0.001 C 
ATOM     15  C   UNL     1      33.869 -11.749 -24.011  0.00  0.00    -0.001 C 
ATOM     16  C   UNL     1      32.393  -9.773 -22.707  0.00  0.00    +0.029 C 
ATOM     17  C   UNL     1      34.200 -10.404 -24.180  0.00  0.00    +0.029 C 
ATOM     18  C   UNL     1      33.461  -9.416 -23.528  0.00  0.00    +0.140 C 
ENDBRANCH   3  13
TORSDOF 1
ENDMDL
