MODEL 1
REMARK VINA RESULT:     -11.0      0.000      0.000
REMARK  Name = 449026
REMARK  9 active torsions:
REMARK  status: ('A' for Active; 'I' for Inactive)
REMARK    1  A    between atoms: C_1  and  C_2
REMARK    2  A    between atoms: C_1  and  C_16
REMARK    3  A    between atoms: C_2  and  C_6
REMARK    4  A    between atoms: C_16  and  C_17
REMARK    5  A    between atoms: C_17  and  O_18
REMARK    6  A    between atoms: O_18  and  C_19
REMARK    7  A    between atoms: C_24  and  C_26
REMARK    8  A    between atoms: C_26  and  O_27
REMARK    9  A    between atoms: O_27  and  C_28
REMARK                            x       y       z     vdW  Elec       q    Type
REMARK                         _______ _______ _______ _____ _____    ______ ____
ROOT
ATOM      1  C   UNL     1      34.403 -15.072 -21.558  0.00  0.00    +0.004 C 
ENDROOT
BRANCH   1   2
ATOM      2  C   UNL     1      33.626 -15.113 -22.872  0.00  0.00    +0.000 C 
BRANCH   2   6
ATOM      3  N   UNL     1      32.485 -10.963 -22.712  0.00  0.00    -0.292 N 
ATOM      4  N   UNL     1      32.004  -8.852 -23.683  0.00  0.00    -0.133 NA
ATOM      5  N   UNL     1      31.783  -7.516 -23.552  0.00  0.00    -0.151 NA
ATOM      6  C   UNL     1      32.885 -13.801 -23.118  0.00  0.00    +0.003 C 
ATOM      7  C   UNL     1      33.815 -12.759 -23.748  0.00  0.00    +0.022 C 
ATOM      8  C   UNL     1      32.309 -13.247 -21.811  0.00  0.00    +0.022 C 
ATOM      9  C   UNL     1      33.097 -11.428 -23.964  0.00  0.00    +0.092 C 
ATOM     10  C   UNL     1      31.599 -11.911 -22.030  0.00  0.00    +0.092 C 
ATOM     11  C   UNL     1      32.256  -9.588 -22.579  0.00  0.00    +0.153 C 
ATOM     12  C   UNL     1      32.302  -9.046 -21.309  0.00  0.00    +0.037 C 
ATOM     13  C   UNL     1      32.076  -7.687 -21.177  0.00  0.00    +0.019 C 
ATOM     14  C   UNL     1      31.821  -6.960 -22.322  0.00  0.00    +0.081 C 
ATOM     15  C   UNL     1      31.572  -5.493 -22.234  0.00  0.00    +0.054 C 
ENDBRANCH   2   6
ENDBRANCH   1   2
BRANCH   1  16
ATOM     16  C   UNL     1      34.622 -16.478 -21.004  0.00  0.00    +0.047 C 
BRANCH  16  17
ATOM     17  C   UNL     1      35.312 -17.380 -22.018  0.00  0.00    +0.205 C 
BRANCH  17  18
ATOM     18  O   UNL     1      34.450 -18.468 -22.325  0.00  0.00    -0.475 OA
BRANCH  18  19
ATOM     19  C   UNL     1      34.320 -19.442 -21.370  0.00  0.00    +0.139 C 
ATOM     20  C   UNL     1      35.450 -20.102 -20.889  0.00  0.00    +0.037 C 
ATOM     21  C   UNL     1      33.057 -19.775 -20.882  0.00  0.00    +0.037 C 
ATOM     22  C   UNL     1      35.316 -21.096 -19.918  0.00  0.00    +0.010 C 
ATOM     23  C   UNL     1      32.923 -20.768 -19.913  0.00  0.00    +0.010 C 
ATOM     24  C   UNL     1      34.053 -21.429 -19.431  0.00  0.00    +0.076 C 
BRANCH  24  26
ATOM     25  O   UNL     1      34.864 -23.056 -17.888  0.00  0.00    -0.245 OA
ATOM     26  C   UNL     1      33.914 -22.465 -18.419  0.00  0.00    +0.341 C 
BRANCH  26  27
ATOM     27  O   UNL     1      32.601 -22.709 -18.125  0.00  0.00    -0.445 OA
BRANCH  27  28
ATOM     28  C   UNL     1      32.312 -23.206 -16.815  0.00  0.00    +0.209 C 
ATOM     29  C   UNL     1      30.883 -22.857 -16.458  0.00  0.00    +0.051 C 
ENDBRANCH  27  28
ENDBRANCH  26  27
ENDBRANCH  24  26
ENDBRANCH  18  19
ENDBRANCH  17  18
ENDBRANCH  16  17
ENDBRANCH   1  16
TORSDOF 9
ENDMDL
MODEL 2
REMARK VINA RESULT:     -10.9      1.071      1.601
REMARK  Name = 449026
REMARK  9 active torsions:
REMARK  status: ('A' for Active; 'I' for Inactive)
REMARK    1  A    between atoms: C_1  and  C_2
REMARK    2  A    between atoms: C_1  and  C_16
REMARK    3  A    between atoms: C_2  and  C_6
REMARK    4  A    between atoms: C_16  and  C_17
REMARK    5  A    between atoms: C_17  and  O_18
REMARK    6  A    between atoms: O_18  and  C_19
REMARK    7  A    between atoms: C_24  and  C_26
REMARK    8  A    between atoms: C_26  and  O_27
REMARK    9  A    between atoms: O_27  and  C_28
REMARK                            x       y       z     vdW  Elec       q    Type
REMARK                         _______ _______ _______ _____ _____    ______ ____
ROOT
ATOM      1  C   UNL     1      34.222 -16.065 -23.819  0.00  0.00    +0.004 C 
ENDROOT
BRANCH   1   2
ATOM      2  C   UNL     1      33.393 -14.970 -24.488  0.00  0.00    +0.000 C 
BRANCH   2   6
ATOM      3  N   UNL     1      32.654 -10.947 -23.139  0.00  0.00    -0.292 N 
ATOM      4  N   UNL     1      32.194  -9.311 -21.483  0.00  0.00    -0.133 NA
ATOM      5  N   UNL     1      31.823  -8.047 -21.145  0.00  0.00    -0.151 NA
ATOM      6  C   UNL     1      33.506 -13.650 -23.729  0.00  0.00    +0.003 C 
ATOM      7  C   UNL     1      32.224 -13.364 -22.939  0.00  0.00    +0.022 C 
ATOM      8  C   UNL     1      33.782 -12.490 -24.691  0.00  0.00    +0.022 C 
ATOM      9  C   UNL     1      32.306 -12.027 -22.205  0.00  0.00    +0.092 C 
ATOM     10  C   UNL     1      33.855 -11.153 -23.954  0.00  0.00    +0.092 C 
ATOM     11  C   UNL     1      32.273  -9.645 -22.789  0.00  0.00    +0.153 C 
ATOM     12  C   UNL     1      31.993  -8.759 -23.810  0.00  0.00    +0.037 C 
ATOM     13  C   UNL     1      31.616  -7.472 -23.465  0.00  0.00    +0.019 C 
ATOM     14  C   UNL     1      31.544  -7.158 -22.123  0.00  0.00    +0.081 C 
ATOM     15  C   UNL     1      31.143  -5.787 -21.698  0.00  0.00    +0.054 C 
ENDBRANCH   2   6
ENDBRANCH   1   2
BRANCH   1  16
ATOM     16  C   UNL     1      34.792 -15.587 -22.486  0.00  0.00    +0.047 C 
BRANCH  16  17
ATOM     17  C   UNL     1      34.571 -16.611 -21.381  0.00  0.00    +0.205 C 
BRANCH  17  18
ATOM     18  O   UNL     1      35.288 -17.795 -21.702  0.00  0.00    -0.475 OA
BRANCH  18  19
ATOM     19  C   UNL     1      34.877 -18.951 -21.090  0.00  0.00    +0.139 C 
ATOM     20  C   UNL     1      35.820 -19.859 -20.610  0.00  0.00    +0.037 C 
ATOM     21  C   UNL     1      33.516 -19.220 -20.951  0.00  0.00    +0.037 C 
ATOM     22  C   UNL     1      35.402 -21.037 -19.990  0.00  0.00    +0.010 C 
ATOM     23  C   UNL     1      33.098 -20.397 -20.331  0.00  0.00    +0.010 C 
ATOM     24  C   UNL     1      34.041 -21.306 -19.851  0.00  0.00    +0.076 C 
BRANCH  24  26
ATOM     25  O   UNL     1      34.079 -23.654 -19.437  0.00  0.00    -0.245 OA
ATOM     26  C   UNL     1      33.605 -22.534 -19.204  0.00  0.00    +0.341 C 
BRANCH  26  27
ATOM     27  O   UNL     1      32.603 -22.299 -18.303  0.00  0.00    -0.445 OA
BRANCH  27  28
ATOM     28  C   UNL     1      32.557 -23.147 -17.151  0.00  0.00    +0.209 C 
ATOM     29  C   UNL     1      31.228 -22.958 -16.452  0.00  0.00    +0.051 C 
ENDBRANCH  27  28
ENDBRANCH  26  27
ENDBRANCH  24  26
ENDBRANCH  18  19
ENDBRANCH  17  18
ENDBRANCH  16  17
ENDBRANCH   1  16
TORSDOF 9
ENDMDL
MODEL 3
REMARK VINA RESULT:     -10.9      4.020      7.211
REMARK  Name = 449026
REMARK  9 active torsions:
REMARK  status: ('A' for Active; 'I' for Inactive)
REMARK    1  A    between atoms: C_1  and  C_2
REMARK    2  A    between atoms: C_1  and  C_16
REMARK    3  A    between atoms: C_2  and  C_6
REMARK    4  A    between atoms: C_16  and  C_17
REMARK    5  A    between atoms: C_17  and  O_18
REMARK    6  A    between atoms: O_18  and  C_19
REMARK    7  A    between atoms: C_24  and  C_26
REMARK    8  A    between atoms: C_26  and  O_27
REMARK    9  A    between atoms: O_27  and  C_28
REMARK                            x       y       z     vdW  Elec       q    Type
REMARK                         _______ _______ _______ _____ _____    ______ ____
ROOT
ATOM      1  C   UNL     1      36.788 -21.313 -18.069  0.00  0.00    +0.004 C 
ENDROOT
BRANCH   1   2
ATOM      2  C   UNL     1      35.835 -21.919 -19.097  0.00  0.00    +0.000 C 
BRANCH   2   6
ATOM      3  N   UNL     1      34.899 -18.315 -21.262  0.00  0.00    -0.292 N 
ATOM      4  N   UNL     1      35.331 -16.634 -22.880  0.00  0.00    -0.133 NA
ATOM      5  N   UNL     1      35.051 -15.418 -23.421  0.00  0.00    -0.151 NA
ATOM      6  C   UNL     1      35.555 -20.940 -20.235  0.00  0.00    +0.003 C 
ATOM      7  C   UNL     1      36.576 -19.799 -20.237  0.00  0.00    +0.022 C 
ATOM      8  C   UNL     1      34.141 -20.361 -20.121  0.00  0.00    +0.022 C 
ATOM      9  C   UNL     1      36.286 -18.790 -21.348  0.00  0.00    +0.092 C 
ATOM     10  C   UNL     1      33.858 -19.347 -21.228  0.00  0.00    +0.092 C 
ATOM     11  C   UNL     1      34.611 -17.063 -21.821  0.00  0.00    +0.153 C 
ATOM     12  C   UNL     1      33.594 -16.322 -21.254  0.00  0.00    +0.037 C 
ATOM     13  C   UNL     1      33.309 -15.085 -21.805  0.00  0.00    +0.019 C 
ATOM     14  C   UNL     1      34.061 -14.671 -22.887  0.00  0.00    +0.081 C 
ATOM     15  C   UNL     1      33.796 -13.347 -23.517  0.00  0.00    +0.054 C 
ENDBRANCH   2   6
ENDBRANCH   1   2
BRANCH   1  16
ATOM     16  C   UNL     1      37.145 -22.328 -16.985  0.00  0.00    +0.047 C 
BRANCH  16  17
ATOM     17  C   UNL     1      36.061 -22.419 -15.921  0.00  0.00    +0.205 C 
BRANCH  17  18
ATOM     18  O   UNL     1      35.396 -23.669 -16.047  0.00  0.00    -0.475 OA
BRANCH  18  19
ATOM     19  C   UNL     1      34.047 -23.678 -15.805  0.00  0.00    +0.139 C 
ATOM     20  C   UNL     1      33.562 -24.137 -14.581  0.00  0.00    +0.037 C 
ATOM     21  C   UNL     1      33.160 -23.232 -16.784  0.00  0.00    +0.037 C 
ATOM     22  C   UNL     1      32.188 -24.150 -14.336  0.00  0.00    +0.010 C 
ATOM     23  C   UNL     1      31.787 -23.244 -16.538  0.00  0.00    +0.010 C 
ATOM     24  C   UNL     1      31.301 -23.704 -15.315  0.00  0.00    +0.076 C 
BRANCH  24  26
ATOM     25  O   UNL     1      29.251 -24.682 -14.591  0.00  0.00    -0.245 OA
ATOM     26  C   UNL     1      29.870 -23.716 -15.058  0.00  0.00    +0.341 C 
BRANCH  26  27
ATOM     27  O   UNL     1      29.287 -22.526 -15.398  0.00  0.00    -0.445 OA
BRANCH  27  28
ATOM     28  C   UNL     1      27.905 -22.564 -15.766  0.00  0.00    +0.209 C 
ATOM     29  C   UNL     1      27.798 -22.785 -17.260  0.00  0.00    +0.051 C 
ENDBRANCH  27  28
ENDBRANCH  26  27
ENDBRANCH  24  26
ENDBRANCH  18  19
ENDBRANCH  17  18
ENDBRANCH  16  17
ENDBRANCH   1  16
TORSDOF 9
ENDMDL
MODEL 4
REMARK VINA RESULT:     -10.8      0.850      1.688
REMARK  Name = 449026
REMARK  9 active torsions:
REMARK  status: ('A' for Active; 'I' for Inactive)
REMARK    1  A    between atoms: C_1  and  C_2
REMARK    2  A    between atoms: C_1  and  C_16
REMARK    3  A    between atoms: C_2  and  C_6
REMARK    4  A    between atoms: C_16  and  C_17
REMARK    5  A    between atoms: C_17  and  O_18
REMARK    6  A    between atoms: O_18  and  C_19
REMARK    7  A    between atoms: C_24  and  C_26
REMARK    8  A    between atoms: C_26  and  O_27
REMARK    9  A    between atoms: O_27  and  C_28
REMARK                            x       y       z     vdW  Elec       q    Type
REMARK                         _______ _______ _______ _____ _____    ______ ____
ROOT
ATOM      1  C   UNL     1      34.314 -15.126 -21.351  0.00  0.00    +0.004 C 
ENDROOT
BRANCH   1   2
ATOM      2  C   UNL     1      33.642 -15.163 -22.722  0.00  0.00    +0.000 C 
BRANCH   2   6
ATOM      3  N   UNL     1      32.485 -11.015 -22.680  0.00  0.00    -0.292 N 
ATOM      4  N   UNL     1      32.011  -8.930 -23.708  0.00  0.00    -0.133 NA
ATOM      5  N   UNL     1      31.784  -7.592 -23.613  0.00  0.00    -0.151 NA
ATOM      6  C   UNL     1      32.900 -13.860 -23.010  0.00  0.00    +0.003 C 
ATOM      7  C   UNL     1      33.835 -12.831 -23.653  0.00  0.00    +0.022 C 
ATOM      8  C   UNL     1      32.304 -13.276 -21.725  0.00  0.00    +0.022 C 
ATOM      9  C   UNL     1      33.116 -11.508 -23.912  0.00  0.00    +0.092 C 
ATOM     10  C   UNL     1      31.593 -11.949 -21.986  0.00  0.00    +0.092 C 
ATOM     11  C   UNL     1      32.250  -9.637 -22.583  0.00  0.00    +0.153 C 
ATOM     12  C   UNL     1      32.277  -9.065 -21.327  0.00  0.00    +0.037 C 
ATOM     13  C   UNL     1      32.045  -7.704 -21.231  0.00  0.00    +0.019 C 
ATOM     14  C   UNL     1      31.803  -7.006 -22.397  0.00  0.00    +0.081 C 
ATOM     15  C   UNL     1      31.548  -5.538 -22.349  0.00  0.00    +0.054 C 
ENDBRANCH   2   6
ENDBRANCH   1   2
BRANCH   1  16
ATOM     16  C   UNL     1      34.695 -16.530 -20.887  0.00  0.00    +0.047 C 
BRANCH  16  17
ATOM     17  C   UNL     1      35.295 -17.352 -22.018  0.00  0.00    +0.205 C 
BRANCH  17  18
ATOM     18  O   UNL     1      34.424 -18.437 -22.310  0.00  0.00    -0.475 OA
BRANCH  18  19
ATOM     19  C   UNL     1      34.332 -19.427 -21.367  0.00  0.00    +0.139 C 
ATOM     20  C   UNL     1      33.086 -19.787 -20.855  0.00  0.00    +0.037 C 
ATOM     21  C   UNL     1      35.484 -20.070 -20.917  0.00  0.00    +0.037 C 
ATOM     22  C   UNL     1      32.992 -20.793 -19.892  0.00  0.00    +0.010 C 
ATOM     23  C   UNL     1      35.390 -21.076 -19.955  0.00  0.00    +0.010 C 
ATOM     24  C   UNL     1      34.145 -21.436 -19.442  0.00  0.00    +0.076 C 
BRANCH  24  26
ATOM     25  O   UNL     1      32.983 -22.991 -18.057  0.00  0.00    -0.245 OA
ATOM     26  C   UNL     1      34.047 -22.485 -18.439  0.00  0.00    +0.341 C 
BRANCH  26  27
ATOM     27  O   UNL     1      35.278 -22.845 -17.965  0.00  0.00    -0.445 OA
BRANCH  27  28
ATOM     28  C   UNL     1      35.529 -22.616 -16.574  0.00  0.00    +0.209 C 
ATOM     29  C   UNL     1      36.976 -22.210 -16.394  0.00  0.00    +0.051 C 
ENDBRANCH  27  28
ENDBRANCH  26  27
ENDBRANCH  24  26
ENDBRANCH  18  19
ENDBRANCH  17  18
ENDBRANCH  16  17
ENDBRANCH   1  16
TORSDOF 9
ENDMDL
MODEL 5
REMARK VINA RESULT:     -10.5      5.880     12.463
REMARK  Name = 449026
REMARK  9 active torsions:
REMARK  status: ('A' for Active; 'I' for Inactive)
REMARK    1  A    between atoms: C_1  and  C_2
REMARK    2  A    between atoms: C_1  and  C_16
REMARK    3  A    between atoms: C_2  and  C_6
REMARK    4  A    between atoms: C_16  and  C_17
REMARK    5  A    between atoms: C_17  and  O_18
REMARK    6  A    between atoms: O_18  and  C_19
REMARK    7  A    between atoms: C_24  and  C_26
REMARK    8  A    between atoms: C_26  and  O_27
REMARK    9  A    between atoms: O_27  and  C_28
REMARK                            x       y       z     vdW  Elec       q    Type
REMARK                         _______ _______ _______ _____ _____    ______ ____
ROOT
ATOM      1  C   UNL     1      33.288 -20.501 -20.293  0.00  0.00    +0.004 C 
ENDROOT
BRANCH   1   2
ATOM      2  C   UNL     1      34.552 -21.343 -20.138  0.00  0.00    +0.000 C 
BRANCH   2   6
ATOM      3  N   UNL     1      36.027 -23.046 -16.467  0.00  0.00    -0.292 N 
ATOM      4  N   UNL     1      37.375 -23.046 -14.514  0.00  0.00    -0.133 NA
ATOM      5  N   UNL     1      37.906 -23.701 -13.447  0.00  0.00    -0.151 NA
ATOM      6  C   UNL     1      34.918 -21.527 -18.666  0.00  0.00    +0.003 C 
ATOM      7  C   UNL     1      36.429 -21.714 -18.499  0.00  0.00    +0.022 C 
ATOM      8  C   UNL     1      34.184 -22.732 -18.068  0.00  0.00    +0.022 C 
ATOM      9  C   UNL     1      36.806 -21.938 -17.036  0.00  0.00    +0.092 C 
ATOM     10  C   UNL     1      34.570 -22.957 -16.607  0.00  0.00    +0.092 C 
ATOM     11  C   UNL     1      36.573 -23.719 -15.367  0.00  0.00    +0.153 C 
ATOM     12  C   UNL     1      36.262 -25.055 -15.208  0.00  0.00    +0.037 C 
ATOM     13  C   UNL     1      36.802 -25.721 -14.122  0.00  0.00    +0.019 C 
ATOM     14  C   UNL     1      37.618 -25.008 -13.267  0.00  0.00    +0.081 C 
ATOM     15  C   UNL     1      38.225 -25.678 -12.083  0.00  0.00    +0.054 C 
ENDBRANCH   2   6
ENDBRANCH   1   2
BRANCH   1  16
ATOM     16  C   UNL     1      33.579 -19.207 -21.050  0.00  0.00    +0.047 C 
BRANCH  16  17
ATOM     17  C   UNL     1      35.071 -19.013 -21.279  0.00  0.00    +0.205 C 
BRANCH  17  18
ATOM     18  O   UNL     1      35.457 -17.751 -20.751  0.00  0.00    -0.475 OA
BRANCH  18  19
ATOM     19  C   UNL     1      34.922 -16.641 -21.352  0.00  0.00    +0.139 C 
ATOM     20  C   UNL     1      35.116 -16.424 -22.716  0.00  0.00    +0.037 C 
ATOM     21  C   UNL     1      34.187 -15.726 -20.598  0.00  0.00    +0.037 C 
ATOM     22  C   UNL     1      34.575 -15.292 -23.326  0.00  0.00    +0.010 C 
ATOM     23  C   UNL     1      33.646 -14.595 -21.209  0.00  0.00    +0.010 C 
ATOM     24  C   UNL     1      33.840 -14.378 -22.572  0.00  0.00    +0.076 C 
BRANCH  24  26
ATOM     25  O   UNL     1      33.797 -12.598 -24.158  0.00  0.00    -0.245 OA
ATOM     26  C   UNL     1      33.275 -13.199 -23.209  0.00  0.00    +0.341 C 
BRANCH  26  27
ATOM     27  O   UNL     1      32.092 -12.832 -22.630  0.00  0.00    -0.445 OA
BRANCH  27  28
ATOM     28  C   UNL     1      32.004 -11.494 -22.128  0.00  0.00    +0.209 C 
ATOM     29  C   UNL     1      30.832 -11.400 -21.175  0.00  0.00    +0.051 C 
ENDBRANCH  27  28
ENDBRANCH  26  27
ENDBRANCH  24  26
ENDBRANCH  18  19
ENDBRANCH  17  18
ENDBRANCH  16  17
ENDBRANCH   1  16
TORSDOF 9
ENDMDL
MODEL 6
REMARK VINA RESULT:     -10.4      5.321     11.447
REMARK  Name = 449026
REMARK  9 active torsions:
REMARK  status: ('A' for Active; 'I' for Inactive)
REMARK    1  A    between atoms: C_1  and  C_2
REMARK    2  A    between atoms: C_1  and  C_16
REMARK    3  A    between atoms: C_2  and  C_6
REMARK    4  A    between atoms: C_16  and  C_17
REMARK    5  A    between atoms: C_17  and  O_18
REMARK    6  A    between atoms: O_18  and  C_19
REMARK    7  A    between atoms: C_24  and  C_26
REMARK    8  A    between atoms: C_26  and  O_27
REMARK    9  A    between atoms: O_27  and  C_28
REMARK                            x       y       z     vdW  Elec       q    Type
REMARK                         _______ _______ _______ _____ _____    ______ ____
ROOT
ATOM      1  C   UNL     1      35.285 -18.671 -22.828  0.00  0.00    +0.004 C 
ENDROOT
BRANCH   1   2
ATOM      2  C   UNL     1      34.087 -19.009 -21.943  0.00  0.00    +0.000 C 
BRANCH   2   6
ATOM      3  N   UNL     1      34.985 -21.697 -18.700  0.00  0.00    -0.292 N 
ATOM      4  N   UNL     1      34.510 -23.518 -17.255  0.00  0.00    -0.133 NA
ATOM      5  N   UNL     1      34.785 -24.236 -16.134  0.00  0.00    -0.151 NA
ATOM      6  C   UNL     1      34.333 -20.284 -21.141  0.00  0.00    +0.003 C 
ATOM      7  C   UNL     1      33.330 -20.408 -19.990  0.00  0.00    +0.022 C 
ATOM      8  C   UNL     1      35.759 -20.309 -20.581  0.00  0.00    +0.022 C 
ATOM      9  C   UNL     1      33.588 -21.660 -19.155  0.00  0.00    +0.092 C 
ATOM     10  C   UNL     1      36.011 -21.559 -19.739  0.00  0.00    +0.092 C 
ATOM     11  C   UNL     1      35.268 -22.439 -17.546  0.00  0.00    +0.153 C 
ATOM     12  C   UNL     1      36.318 -22.022 -16.753  0.00  0.00    +0.037 C 
ATOM     13  C   UNL     1      36.598 -22.754 -15.613  0.00  0.00    +0.019 C 
ATOM     14  C   UNL     1      35.808 -23.853 -15.340  0.00  0.00    +0.081 C 
ATOM     15  C   UNL     1      36.066 -24.675 -14.124  0.00  0.00    +0.054 C 
ENDBRANCH   2   6
ENDBRANCH   1   2
BRANCH   1  16
ATOM     16  C   UNL     1      34.872 -18.555 -24.293  0.00  0.00    +0.047 C 
BRANCH  16  17
ATOM     17  C   UNL     1      34.604 -17.110 -24.689  0.00  0.00    +0.205 C 
BRANCH  17  18
ATOM     18  O   UNL     1      35.207 -16.251 -23.731  0.00  0.00    -0.475 OA
BRANCH  18  19
ATOM     19  C   UNL     1      34.396 -15.316 -23.143  0.00  0.00    +0.139 C 
ATOM     20  C   UNL     1      33.637 -14.454 -23.934  0.00  0.00    +0.037 C 
ATOM     21  C   UNL     1      34.332 -15.224 -21.753  0.00  0.00    +0.037 C 
ATOM     22  C   UNL     1      32.815 -13.500 -23.335  0.00  0.00    +0.010 C 
ATOM     23  C   UNL     1      33.509 -14.270 -21.154  0.00  0.00    +0.010 C 
ATOM     24  C   UNL     1      32.751 -13.408 -21.945  0.00  0.00    +0.076 C 
BRANCH  24  26
ATOM     25  O   UNL     1      31.797 -12.239 -20.099  0.00  0.00    -0.245 OA
ATOM     26  C   UNL     1      31.892 -12.413 -21.321  0.00  0.00    +0.341 C 
BRANCH  26  27
ATOM     27  O   UNL     1      31.199 -11.692 -22.253  0.00  0.00    -0.445 OA
BRANCH  27  28
ATOM     28  C   UNL     1      31.276 -10.266 -22.157  0.00  0.00    +0.209 C 
ATOM     29  C   UNL     1      32.530  -9.790 -22.859  0.00  0.00    +0.051 C 
ENDBRANCH  27  28
ENDBRANCH  26  27
ENDBRANCH  24  26
ENDBRANCH  18  19
ENDBRANCH  17  18
ENDBRANCH  16  17
ENDBRANCH   1  16
TORSDOF 9
ENDMDL
MODEL 7
REMARK VINA RESULT:     -10.3      5.228     11.429
REMARK  Name = 449026
REMARK  9 active torsions:
REMARK  status: ('A' for Active; 'I' for Inactive)
REMARK    1  A    between atoms: C_1  and  C_2
REMARK    2  A    between atoms: C_1  and  C_16
REMARK    3  A    between atoms: C_2  and  C_6
REMARK    4  A    between atoms: C_16  and  C_17
REMARK    5  A    between atoms: C_17  and  O_18
REMARK    6  A    between atoms: O_18  and  C_19
REMARK    7  A    between atoms: C_24  and  C_26
REMARK    8  A    between atoms: C_26  and  O_27
REMARK    9  A    between atoms: O_27  and  C_28
REMARK                            x       y       z     vdW  Elec       q    Type
REMARK                         _______ _______ _______ _____ _____    ______ ____
ROOT
ATOM      1  C   UNL     1      33.080 -13.751 -25.098  0.00  0.00    +0.004 C 
ENDROOT
BRANCH   1   2
ATOM      2  C   UNL     1      32.737 -13.465 -23.637  0.00  0.00    +0.000 C 
BRANCH   2   6
ATOM      3  N   UNL     1      34.095 -17.034 -21.645  0.00  0.00    -0.292 N 
ATOM      4  N   UNL     1      35.759 -18.563 -20.923  0.00  0.00    -0.133 NA
ATOM      5  N   UNL     1      36.105 -19.773 -20.408  0.00  0.00    -0.151 NA
ATOM      6  C   UNL     1      33.486 -14.407 -22.698  0.00  0.00    +0.003 C 
ATOM      7  C   UNL     1      34.321 -15.418 -23.490  0.00  0.00    +0.022 C 
ATOM      8  C   UNL     1      32.509 -15.156 -21.785  0.00  0.00    +0.022 C 
ATOM      9  C   UNL     1      35.046 -16.393 -22.564  0.00  0.00    +0.092 C 
ATOM     10  C   UNL     1      33.237 -16.136 -20.866  0.00  0.00    +0.092 C 
ATOM     11  C   UNL     1      34.453 -18.279 -21.113  0.00  0.00    +0.153 C 
ATOM     12  C   UNL     1      33.439 -19.165 -20.807  0.00  0.00    +0.037 C 
ATOM     13  C   UNL     1      33.792 -20.396 -20.282  0.00  0.00    +0.019 C 
ATOM     14  C   UNL     1      35.135 -20.659 -20.099  0.00  0.00    +0.081 C 
ATOM     15  C   UNL     1      35.568 -21.970 -19.537  0.00  0.00    +0.054 C 
ENDBRANCH   2   6
ENDBRANCH   1   2
BRANCH   1  16
ATOM     16  C   UNL     1      33.736 -12.540 -25.757  0.00  0.00    +0.047 C 
BRANCH  16  17
ATOM     17  C   UNL     1      34.361 -11.610 -24.727  0.00  0.00    +0.205 C 
BRANCH  17  18
ATOM     18  O   UNL     1      33.957 -10.277 -25.007  0.00  0.00    -0.475 OA
BRANCH  18  19
ATOM     19  C   UNL     1      33.586  -9.505 -23.937  0.00  0.00    +0.139 C 
ATOM     20  C   UNL     1      34.241  -8.301 -23.684  0.00  0.00    +0.037 C 
ATOM     21  C   UNL     1      32.555  -9.928 -23.098  0.00  0.00    +0.037 C 
ATOM     22  C   UNL     1      33.865  -7.518 -22.592  0.00  0.00    +0.010 C 
ATOM     23  C   UNL     1      32.179  -9.145 -22.006  0.00  0.00    +0.010 C 
ATOM     24  C   UNL     1      32.834  -7.940 -21.753  0.00  0.00    +0.076 C 
BRANCH  24  26
ATOM     25  O   UNL     1      32.435  -7.516 -19.441  0.00  0.00    -0.245 OA
ATOM     26  C   UNL     1      32.442  -7.123 -20.616  0.00  0.00    +0.341 C 
BRANCH  26  27
ATOM     27  O   UNL     1      32.078  -5.863 -21.003  0.00  0.00    -0.445 OA
BRANCH  27  28
ATOM     28  C   UNL     1      30.839  -5.735 -21.708  0.00  0.00    +0.209 C 
ATOM     29  C   UNL     1      31.020  -4.758 -22.851  0.00  0.00    +0.051 C 
ENDBRANCH  27  28
ENDBRANCH  26  27
ENDBRANCH  24  26
ENDBRANCH  18  19
ENDBRANCH  17  18
ENDBRANCH  16  17
ENDBRANCH   1  16
TORSDOF 9
ENDMDL
MODEL 8
REMARK VINA RESULT:     -10.3      5.442     12.637
REMARK  Name = 449026
REMARK  9 active torsions:
REMARK  status: ('A' for Active; 'I' for Inactive)
REMARK    1  A    between atoms: C_1  and  C_2
REMARK    2  A    between atoms: C_1  and  C_16
REMARK    3  A    between atoms: C_2  and  C_6
REMARK    4  A    between atoms: C_16  and  C_17
REMARK    5  A    between atoms: C_17  and  O_18
REMARK    6  A    between atoms: O_18  and  C_19
REMARK    7  A    between atoms: C_24  and  C_26
REMARK    8  A    between atoms: C_26  and  O_27
REMARK    9  A    between atoms: O_27  and  C_28
REMARK                            x       y       z     vdW  Elec       q    Type
REMARK                         _______ _______ _______ _____ _____    ______ ____
ROOT
ATOM      1  C   UNL     1      33.920 -12.176 -24.371  0.00  0.00    +0.004 C 
ENDROOT
BRANCH   1   2
ATOM      2  C   UNL     1      32.929 -13.159 -23.750  0.00  0.00    +0.000 C 
BRANCH   2   6
ATOM      3  N   UNL     1      34.156 -16.778 -21.764  0.00  0.00    -0.292 N 
ATOM      4  N   UNL     1      35.768 -18.349 -21.013  0.00  0.00    -0.133 NA
ATOM      5  N   UNL     1      36.074 -19.572 -20.503  0.00  0.00    -0.151 NA
ATOM      6  C   UNL     1      33.631 -14.127 -22.801  0.00  0.00    +0.003 C 
ATOM      7  C   UNL     1      34.469 -15.145 -23.581  0.00  0.00    +0.022 C 
ATOM      8  C   UNL     1      32.613 -14.866 -21.926  0.00  0.00    +0.022 C 
ATOM      9  C   UNL     1      35.146 -16.145 -22.646  0.00  0.00    +0.092 C 
ATOM     10  C   UNL     1      33.294 -15.872 -20.999  0.00  0.00    +0.092 C 
ATOM     11  C   UNL     1      34.473 -18.036 -21.237  0.00  0.00    +0.153 C 
ATOM     12  C   UNL     1      33.434 -18.905 -20.972  0.00  0.00    +0.037 C 
ATOM     13  C   UNL     1      33.747 -20.149 -20.452  0.00  0.00    +0.019 C 
ATOM     14  C   UNL     1      35.078 -20.442 -20.233  0.00  0.00    +0.081 C 
ATOM     15  C   UNL     1      35.468 -21.767 -19.675  0.00  0.00    +0.054 C 
ENDBRANCH   2   6
ENDBRANCH   1   2
BRANCH   1  16
ATOM     16  C   UNL     1      33.732 -10.772 -23.803  0.00  0.00    +0.047 C 
BRANCH  16  17
ATOM     17  C   UNL     1      34.702  -9.779 -24.427  0.00  0.00    +0.205 C 
BRANCH  17  18
ATOM     18  O   UNL     1      34.946  -8.730 -23.500  0.00  0.00    -0.475 OA
BRANCH  18  19
ATOM     19  C   UNL     1      33.934  -7.825 -23.311  0.00  0.00    +0.139 C 
ATOM     20  C   UNL     1      33.352  -7.682 -22.051  0.00  0.00    +0.037 C 
ATOM     21  C   UNL     1      33.483  -7.050 -24.379  0.00  0.00    +0.037 C 
ATOM     22  C   UNL     1      32.320  -6.763 -21.860  0.00  0.00    +0.010 C 
ATOM     23  C   UNL     1      32.452  -6.131 -24.187  0.00  0.00    +0.010 C 
ATOM     24  C   UNL     1      31.870  -5.988 -22.928  0.00  0.00    +0.076 C 
BRANCH  24  26
ATOM     25  O   UNL     1      29.956  -5.098 -21.819  0.00  0.00    -0.245 OA
ATOM     26  C   UNL     1      30.794  -5.030 -22.728  0.00  0.00    +0.341 C 
BRANCH  26  27
ATOM     27  O   UNL     1      30.821  -4.039 -23.671  0.00  0.00    -0.445 OA
BRANCH  27  28
ATOM     28  C   UNL     1      31.515  -2.836 -23.327  0.00  0.00    +0.209 C 
ATOM     29  C   UNL     1      31.993  -2.162 -24.595  0.00  0.00    +0.051 C 
ENDBRANCH  27  28
ENDBRANCH  26  27
ENDBRANCH  24  26
ENDBRANCH  18  19
ENDBRANCH  17  18
ENDBRANCH  16  17
ENDBRANCH   1  16
TORSDOF 9
ENDMDL
MODEL 9
REMARK VINA RESULT:     -10.2      2.398      4.250
REMARK  Name = 449026
REMARK  9 active torsions:
REMARK  status: ('A' for Active; 'I' for Inactive)
REMARK    1  A    between atoms: C_1  and  C_2
REMARK    2  A    between atoms: C_1  and  C_16
REMARK    3  A    between atoms: C_2  and  C_6
REMARK    4  A    between atoms: C_16  and  C_17
REMARK    5  A    between atoms: C_17  and  O_18
REMARK    6  A    between atoms: O_18  and  C_19
REMARK    7  A    between atoms: C_24  and  C_26
REMARK    8  A    between atoms: C_26  and  O_27
REMARK    9  A    between atoms: O_27  and  C_28
REMARK                            x       y       z     vdW  Elec       q    Type
REMARK                         _______ _______ _______ _____ _____    ______ ____
ROOT
ATOM      1  C   UNL     1      33.671 -12.462 -26.066  0.00  0.00    +0.004 C 
ENDROOT
BRANCH   1   2
ATOM      2  C   UNL     1      33.808 -12.624 -24.553  0.00  0.00    +0.000 C 
BRANCH   2   6
ATOM      3  N   UNL     1      32.843  -8.523 -23.655  0.00  0.00    -0.292 N 
ATOM      4  N   UNL     1      31.933  -6.801 -22.300  0.00  0.00    -0.133 NA
ATOM      5  N   UNL     1      31.527  -5.512 -22.145  0.00  0.00    -0.151 NA
ATOM      6  C   UNL     1      33.720 -11.275 -23.842  0.00  0.00    +0.003 C 
ATOM      7  C   UNL     1      32.263 -10.914 -23.536  0.00  0.00    +0.022 C 
ATOM      8  C   UNL     1      34.353 -10.168 -24.692  0.00  0.00    +0.022 C 
ATOM      9  C   UNL     1      32.156  -9.549 -22.858  0.00  0.00    +0.092 C 
ATOM     10  C   UNL     1      34.236  -8.803 -24.015  0.00  0.00    +0.092 C 
ATOM     11  C   UNL     1      32.427  -7.196 -23.494  0.00  0.00    +0.153 C 
ATOM     12  C   UNL     1      32.542  -6.347 -24.576  0.00  0.00    +0.037 C 
ATOM     13  C   UNL     1      32.130  -5.035 -24.417  0.00  0.00    +0.019 C 
ATOM     14  C   UNL     1      31.629  -4.660 -23.187  0.00  0.00    +0.081 C 
ATOM     15  C   UNL     1      31.172  -3.259 -22.964  0.00  0.00    +0.054 C 
ENDBRANCH   2   6
ENDBRANCH   1   2
BRANCH   1  16
ATOM     16  C   UNL     1      33.272 -13.780 -26.726  0.00  0.00    +0.047 C 
BRANCH  16  17
ATOM     17  C   UNL     1      33.099 -14.892 -25.701  0.00  0.00    +0.205 C 
BRANCH  17  18
ATOM     18  O   UNL     1      34.083 -15.890 -25.937  0.00  0.00    -0.475 OA
BRANCH  18  19
ATOM     19  C   UNL     1      34.455 -16.656 -24.862  0.00  0.00    +0.139 C 
ATOM     20  C   UNL     1      34.473 -18.046 -24.970  0.00  0.00    +0.037 C 
ATOM     21  C   UNL     1      34.811 -16.045 -23.661  0.00  0.00    +0.037 C 
ATOM     22  C   UNL     1      34.849 -18.826 -23.876  0.00  0.00    +0.010 C 
ATOM     23  C   UNL     1      35.187 -16.824 -22.567  0.00  0.00    +0.010 C 
ATOM     24  C   UNL     1      35.205 -18.215 -22.674  0.00  0.00    +0.076 C 
BRANCH  24  26
ATOM     25  O   UNL     1      36.442 -18.693 -20.692  0.00  0.00    -0.245 OA
ATOM     26  C   UNL     1      35.597 -19.028 -21.534  0.00  0.00    +0.341 C 
BRANCH  26  27
ATOM     27  O   UNL     1      34.917 -20.214 -21.504  0.00  0.00    -0.445 OA
BRANCH  27  28
ATOM     28  C   UNL     1      34.122 -20.475 -20.342  0.00  0.00    +0.209 C 
ATOM     29  C   UNL     1      32.723 -19.944 -20.571  0.00  0.00    +0.051 C 
ENDBRANCH  27  28
ENDBRANCH  26  27
ENDBRANCH  24  26
ENDBRANCH  18  19
ENDBRANCH  17  18
ENDBRANCH  16  17
ENDBRANCH   1  16
TORSDOF 9
ENDMDL
