MODEL 1
REMARK VINA RESULT:      -7.6      0.000      0.000
REMARK  Name = 57413968
REMARK  6 active torsions:
REMARK  status: ('A' for Active; 'I' for Inactive)
REMARK    1  A    between atoms: C_1  and  N_2
REMARK    2  A    between atoms: C_1  and  C_11
REMARK    3  A    between atoms: C_5  and  N_10
REMARK    4  A    between atoms: C_11  and  N_12
REMARK    5  A    between atoms: N_12  and  S_14
REMARK    6  A    between atoms: S_14  and  N_17
REMARK                            x       y       z     vdW  Elec       q    Type
REMARK                         _______ _______ _______ _____ _____    ______ ____
ROOT
ATOM      1  C   UNL     1      37.391 -24.324 -14.722  0.00  0.00    +0.117 C 
ENDROOT
BRANCH   1   2
ATOM      2  N   UNL     1      36.322 -24.136 -13.673  0.00  0.00    -0.255 N 
ATOM      3  N   UNL     1      34.299 -23.952 -12.776  0.00  0.00    -0.230 NA
ATOM      4  C   UNL     1      34.973 -24.141 -13.889  0.00  0.00    +0.114 C 
ATOM      5  C   UNL     1      36.523 -23.932 -12.336  0.00  0.00    +0.218 C 
ATOM      6  C   UNL     1      35.259 -23.821 -11.804  0.00  0.00    +0.140 C 
ATOM      7  C   UNL     1      34.390 -24.338 -15.233  0.00  0.00    +0.069 C 
BRANCH   5  10
ATOM      8  O   UNL     1      38.387 -22.757 -11.659  0.00  0.00    -0.125 OA
ATOM      9  O   UNL     1      38.320 -24.918 -11.283  0.00  0.00    -0.125 OA
ATOM     10  N   UNL     1      37.786 -23.866 -11.739  0.00  0.00    +0.074 N 
ENDBRANCH   5  10
ENDBRANCH   1   2
BRANCH   1  11
ATOM     11  C   UNL     1      37.753 -25.788 -14.951  0.00  0.00    +0.114 C 
BRANCH  11  12
ATOM     12  N   UNL     1      38.806 -26.211 -14.008  0.00  0.00    -0.168 NA
ATOM     13  H   UNL     1      38.618 -25.748 -13.119  0.00  0.00    +0.150 HD
BRANCH  12  14
ATOM     14  S   UNL     1      40.441 -25.884 -14.416  0.00  0.00    +0.093 S 
ATOM     15  O   UNL     1      40.775 -24.565 -13.914  0.00  0.00    -0.142 OA
ATOM     16  O   UNL     1      41.259 -27.032 -14.070  0.00  0.00    -0.142 OA
BRANCH  14  17
ATOM     17  N   UNL     1      40.325 -25.791 -16.126  0.00  0.00    -0.193 NA
ATOM     18  H   UNL     1      40.807 -24.955 -16.455  0.00  0.00    +0.145 HD
ATOM     19  H   UNL     1      39.342 -25.748 -16.398  0.00  0.00    +0.145 HD
ENDBRANCH  14  17
ENDBRANCH  12  14
ENDBRANCH  11  12
ENDBRANCH   1  11
TORSDOF 6
ENDMDL
MODEL 2
REMARK VINA RESULT:      -7.4      1.699      2.079
REMARK  Name = 57413968
REMARK  6 active torsions:
REMARK  status: ('A' for Active; 'I' for Inactive)
REMARK    1  A    between atoms: C_1  and  N_2
REMARK    2  A    between atoms: C_1  and  C_11
REMARK    3  A    between atoms: C_5  and  N_10
REMARK    4  A    between atoms: C_11  and  N_12
REMARK    5  A    between atoms: N_12  and  S_14
REMARK    6  A    between atoms: S_14  and  N_17
REMARK                            x       y       z     vdW  Elec       q    Type
REMARK                         _______ _______ _______ _____ _____    ______ ____
ROOT
ATOM      1  C   UNL     1      36.526 -25.649 -14.679  0.00  0.00    +0.117 C 
ENDROOT
BRANCH   1   2
ATOM      2  N   UNL     1      36.859 -24.429 -13.855  0.00  0.00    -0.255 N 
ATOM      3  N   UNL     1      37.512 -22.362 -13.371  0.00  0.00    -0.230 NA
ATOM      4  C   UNL     1      37.312 -23.232 -14.336  0.00  0.00    +0.114 C 
ATOM      5  C   UNL     1      36.763 -24.315 -12.496  0.00  0.00    +0.218 C 
ATOM      6  C   UNL     1      37.171 -23.030 -12.221  0.00  0.00    +0.140 C 
ATOM      7  C   UNL     1      37.535 -22.995 -15.777  0.00  0.00    +0.069 C 
BRANCH   5  10
ATOM      8  O   UNL     1      36.926 -26.462 -11.673  0.00  0.00    -0.125 OA
ATOM      9  O   UNL     1      35.344 -25.158 -10.888  0.00  0.00    -0.125 OA
ATOM     10  N   UNL     1      36.330 -25.347 -11.658  0.00  0.00    +0.074 N 
ENDBRANCH   5  10
ENDBRANCH   1   2
BRANCH   1  11
ATOM     11  C   UNL     1      37.757 -26.464 -15.064  0.00  0.00    +0.114 C 
BRANCH  11  12
ATOM     12  N   UNL     1      38.760 -26.422 -13.983  0.00  0.00    -0.168 NA
ATOM     13  H   UNL     1      38.408 -25.783 -13.269  0.00  0.00    +0.150 HD
BRANCH  12  14
ATOM     14  S   UNL     1      40.355 -25.920 -14.372  0.00  0.00    +0.093 S 
ATOM     15  O   UNL     1      40.555 -24.591 -13.826  0.00  0.00    -0.142 OA
ATOM     16  O   UNL     1      41.283 -26.991 -14.061  0.00  0.00    -0.142 OA
BRANCH  14  17
ATOM     17  N   UNL     1      40.231 -25.782 -16.079  0.00  0.00    -0.193 NA
ATOM     18  H   UNL     1      39.915 -26.669 -16.470  0.00  0.00    +0.145 HD
ATOM     19  H   UNL     1      41.144 -25.544 -16.468  0.00  0.00    +0.145 HD
ENDBRANCH  14  17
ENDBRANCH  12  14
ENDBRANCH  11  12
ENDBRANCH   1  11
TORSDOF 6
ENDMDL
MODEL 3
REMARK VINA RESULT:      -7.2      2.300      4.445
REMARK  Name = 57413968
REMARK  6 active torsions:
REMARK  status: ('A' for Active; 'I' for Inactive)
REMARK    1  A    between atoms: C_1  and  N_2
REMARK    2  A    between atoms: C_1  and  C_11
REMARK    3  A    between atoms: C_5  and  N_10
REMARK    4  A    between atoms: C_11  and  N_12
REMARK    5  A    between atoms: N_12  and  S_14
REMARK    6  A    between atoms: S_14  and  N_17
REMARK                            x       y       z     vdW  Elec       q    Type
REMARK                         _______ _______ _______ _____ _____    ______ ____
ROOT
ATOM      1  C   UNL     1      37.357 -26.253 -13.966  0.00  0.00    +0.117 C 
ENDROOT
BRANCH   1   2
ATOM      2  N   UNL     1      37.533 -25.014 -14.811  0.00  0.00    -0.255 N 
ATOM      3  N   UNL     1      37.000 -23.209 -15.989  0.00  0.00    -0.230 NA
ATOM      4  C   UNL     1      36.531 -24.213 -15.283  0.00  0.00    +0.114 C 
ATOM      5  C   UNL     1      38.717 -24.488 -15.245  0.00  0.00    +0.218 C 
ATOM      6  C   UNL     1      38.363 -23.374 -15.969  0.00  0.00    +0.140 C 
ATOM      7  C   UNL     1      35.106 -24.485 -15.004  0.00  0.00    +0.069 C 
BRANCH   5  10
ATOM      8  O   UNL     1      40.582 -24.697 -13.905  0.00  0.00    -0.125 OA
ATOM      9  O   UNL     1      40.478 -25.890 -15.745  0.00  0.00    -0.125 OA
ATOM     10  N   UNL     1      39.968 -25.043 -14.955  0.00  0.00    +0.074 N 
ENDBRANCH   5  10
ENDBRANCH   1   2
BRANCH   1  11
ATOM     11  C   UNL     1      37.549 -25.992 -12.476  0.00  0.00    +0.114 C 
BRANCH  11  12
ATOM     12  N   UNL     1      36.247 -25.760 -11.822  0.00  0.00    -0.168 NA
ATOM     13  H   UNL     1      35.529 -25.846 -12.542  0.00  0.00    +0.150 HD
BRANCH  12  14
ATOM     14  S   UNL     1      35.993 -24.262 -11.025  0.00  0.00    +0.093 S 
ATOM     15  O   UNL     1      35.451 -24.539  -9.708  0.00  0.00    -0.142 OA
ATOM     16  O   UNL     1      37.174 -23.434 -11.175  0.00  0.00    -0.142 OA
BRANCH  14  17
ATOM     17  N   UNL     1      34.737 -23.603 -11.991  0.00  0.00    -0.193 NA
ATOM     18  H   UNL     1      34.154 -22.990 -11.422  0.00  0.00    +0.145 HD
ATOM     19  H   UNL     1      34.166 -24.360 -12.370  0.00  0.00    +0.145 HD
ENDBRANCH  14  17
ENDBRANCH  12  14
ENDBRANCH  11  12
ENDBRANCH   1  11
TORSDOF 6
ENDMDL
MODEL 4
REMARK VINA RESULT:      -7.1      3.282      4.309
REMARK  Name = 57413968
REMARK  6 active torsions:
REMARK  status: ('A' for Active; 'I' for Inactive)
REMARK    1  A    between atoms: C_1  and  N_2
REMARK    2  A    between atoms: C_1  and  C_11
REMARK    3  A    between atoms: C_5  and  N_10
REMARK    4  A    between atoms: C_11  and  N_12
REMARK    5  A    between atoms: N_12  and  S_14
REMARK    6  A    between atoms: S_14  and  N_17
REMARK                            x       y       z     vdW  Elec       q    Type
REMARK                         _______ _______ _______ _____ _____    ______ ____
ROOT
ATOM      1  C   UNL     1      36.905 -26.508 -13.520  0.00  0.00    +0.117 C 
ENDROOT
BRANCH   1   2
ATOM      2  N   UNL     1      37.451 -25.290 -12.814  0.00  0.00    -0.255 N 
ATOM      3  N   UNL     1      38.881 -23.700 -12.218  0.00  0.00    -0.230 NA
ATOM      4  C   UNL     1      38.702 -24.763 -12.970  0.00  0.00    +0.114 C 
ATOM      5  C   UNL     1      36.789 -24.514 -11.904  0.00  0.00    +0.218 C 
ATOM      6  C   UNL     1      37.691 -23.539 -11.551  0.00  0.00    +0.140 C 
ATOM      7  C   UNL     1      39.699 -25.355 -13.886  0.00  0.00    +0.069 C 
BRANCH   5  10
ATOM      8  O   UNL     1      35.251 -25.252 -10.352  0.00  0.00    -0.125 OA
ATOM      9  O   UNL     1      34.512 -24.458 -12.260  0.00  0.00    -0.125 OA
ATOM     10  N   UNL     1      35.473 -24.750 -11.491  0.00  0.00    +0.074 N 
ENDBRANCH   5  10
ENDBRANCH   1   2
BRANCH   1  11
ATOM     11  C   UNL     1      36.466 -26.221 -14.953  0.00  0.00    +0.114 C 
BRANCH  11  12
ATOM     12  N   UNL     1      35.289 -25.332 -14.962  0.00  0.00    -0.168 NA
ATOM     13  H   UNL     1      34.534 -25.835 -15.429  0.00  0.00    +0.150 HD
BRANCH  12  14
ATOM     14  S   UNL     1      35.431 -23.803 -15.727  0.00  0.00    +0.093 S 
ATOM     15  O   UNL     1      36.841 -23.531 -15.931  0.00  0.00    -0.142 OA
ATOM     16  O   UNL     1      34.500 -23.735 -16.838  0.00  0.00    -0.142 OA
BRANCH  14  17
ATOM     17  N   UNL     1      34.864 -22.773 -14.476  0.00  0.00    -0.193 NA
ATOM     18  H   UNL     1      34.457 -23.336 -13.729  0.00  0.00    +0.145 HD
ATOM     19  H   UNL     1      34.156 -22.141 -14.851  0.00  0.00    +0.145 HD
ENDBRANCH  14  17
ENDBRANCH  12  14
ENDBRANCH  11  12
ENDBRANCH   1  11
TORSDOF 6
ENDMDL
MODEL 5
REMARK VINA RESULT:      -7.1      2.374      4.341
REMARK  Name = 57413968
REMARK  6 active torsions:
REMARK  status: ('A' for Active; 'I' for Inactive)
REMARK    1  A    between atoms: C_1  and  N_2
REMARK    2  A    between atoms: C_1  and  C_11
REMARK    3  A    between atoms: C_5  and  N_10
REMARK    4  A    between atoms: C_11  and  N_12
REMARK    5  A    between atoms: N_12  and  S_14
REMARK    6  A    between atoms: S_14  and  N_17
REMARK                            x       y       z     vdW  Elec       q    Type
REMARK                         _______ _______ _______ _____ _____    ______ ____
ROOT
ATOM      1  C   UNL     1      37.580 -23.416 -14.328  0.00  0.00    +0.117 C 
ENDROOT
BRANCH   1   2
ATOM      2  N   UNL     1      37.150 -24.779 -14.813  0.00  0.00    -0.255 N 
ATOM      3  N   UNL     1      35.831 -26.390 -15.585  0.00  0.00    -0.230 NA
ATOM      4  C   UNL     1      35.893 -25.129 -15.220  0.00  0.00    +0.114 C 
ATOM      5  C   UNL     1      37.941 -25.889 -14.925  0.00  0.00    +0.218 C 
ATOM      6  C   UNL     1      37.105 -26.870 -15.404  0.00  0.00    +0.140 C 
ATOM      7  C   UNL     1      34.771 -24.167 -15.230  0.00  0.00    +0.069 C 
BRANCH   5  10
ATOM      8  O   UNL     1      39.655 -26.124 -13.401  0.00  0.00    -0.125 OA
ATOM      9  O   UNL     1      40.167 -25.721 -15.497  0.00  0.00    -0.125 OA
ATOM     10  N   UNL     1      39.300 -25.912 -14.596  0.00  0.00    +0.074 N 
ENDBRANCH   5  10
ENDBRANCH   1   2
BRANCH   1  11
ATOM     11  C   UNL     1      37.782 -23.355 -12.817  0.00  0.00    +0.114 C 
BRANCH  11  12
ATOM     12  N   UNL     1      36.487 -23.174 -12.133  0.00  0.00    -0.168 NA
ATOM     13  H   UNL     1      36.596 -22.396 -11.482  0.00  0.00    +0.150 HD
BRANCH  12  14
ATOM     14  S   UNL     1      35.847 -24.494 -11.243  0.00  0.00    +0.093 S 
ATOM     15  O   UNL     1      36.006 -24.205  -9.831  0.00  0.00    -0.142 OA
ATOM     16  O   UNL     1      34.546 -24.847 -11.780  0.00  0.00    -0.142 OA
BRANCH  14  17
ATOM     17  N   UNL     1      36.965 -25.727 -11.664  0.00  0.00    -0.193 NA
ATOM     18  H   UNL     1      36.517 -26.639 -11.572  0.00  0.00    +0.145 HD
ATOM     19  H   UNL     1      37.773 -25.679 -11.043  0.00  0.00    +0.145 HD
ENDBRANCH  14  17
ENDBRANCH  12  14
ENDBRANCH  11  12
ENDBRANCH   1  11
TORSDOF 6
ENDMDL
MODEL 6
REMARK VINA RESULT:      -7.1      2.941      4.885
REMARK  Name = 57413968
REMARK  6 active torsions:
REMARK  status: ('A' for Active; 'I' for Inactive)
REMARK    1  A    between atoms: C_1  and  N_2
REMARK    2  A    between atoms: C_1  and  C_11
REMARK    3  A    between atoms: C_5  and  N_10
REMARK    4  A    between atoms: C_11  and  N_12
REMARK    5  A    between atoms: N_12  and  S_14
REMARK    6  A    between atoms: S_14  and  N_17
REMARK                            x       y       z     vdW  Elec       q    Type
REMARK                         _______ _______ _______ _____ _____    ______ ____
ROOT
ATOM      1  C   UNL     1      37.698 -23.340 -14.564  0.00  0.00    +0.117 C 
ENDROOT
BRANCH   1   2
ATOM      2  N   UNL     1      37.515 -24.828 -14.741  0.00  0.00    -0.255 N 
ATOM      3  N   UNL     1      38.018 -26.990 -14.816  0.00  0.00    -0.230 NA
ATOM      4  C   UNL     1      38.484 -25.781 -14.595  0.00  0.00    +0.114 C 
ATOM      5  C   UNL     1      36.356 -25.470 -15.077  0.00  0.00    +0.218 C 
ATOM      6  C   UNL     1      36.691 -26.803 -15.116  0.00  0.00    +0.140 C 
ATOM      7  C   UNL     1      39.875 -25.441 -14.232  0.00  0.00    +0.069 C 
BRANCH   5  10
ATOM      8  O   UNL     1      34.956 -24.200 -16.398  0.00  0.00    -0.125 OA
ATOM      9  O   UNL     1      34.236 -24.841 -14.425  0.00  0.00    -0.125 OA
ATOM     10  N   UNL     1      35.142 -24.815 -15.308  0.00  0.00    +0.074 N 
ENDBRANCH   5  10
ENDBRANCH   1   2
BRANCH   1  11
ATOM     11  C   UNL     1      36.930 -22.782 -13.369  0.00  0.00    +0.114 C 
BRANCH  11  12
ATOM     12  N   UNL     1      37.369 -23.440 -12.124  0.00  0.00    -0.168 NA
ATOM     13  H   UNL     1      38.129 -24.075 -12.369  0.00  0.00    +0.150 HD
BRANCH  12  14
ATOM     14  S   UNL     1      36.216 -24.348 -11.234  0.00  0.00    +0.093 S 
ATOM     15  O   UNL     1      36.329 -25.737 -11.635  0.00  0.00    -0.142 OA
ATOM     16  O   UNL     1      36.293 -23.978  -9.833  0.00  0.00    -0.142 OA
BRANCH  14  17
ATOM     17  N   UNL     1      34.756 -23.721 -11.885  0.00  0.00    -0.193 NA
ATOM     18  H   UNL     1      34.945 -23.286 -12.788  0.00  0.00    +0.145 HD
ATOM     19  H   UNL     1      34.370 -23.026 -11.245  0.00  0.00    +0.145 HD
ENDBRANCH  14  17
ENDBRANCH  12  14
ENDBRANCH  11  12
ENDBRANCH   1  11
TORSDOF 6
ENDMDL
MODEL 7
REMARK VINA RESULT:      -6.9      7.210      8.969
REMARK  Name = 57413968
REMARK  6 active torsions:
REMARK  status: ('A' for Active; 'I' for Inactive)
REMARK    1  A    between atoms: C_1  and  N_2
REMARK    2  A    between atoms: C_1  and  C_11
REMARK    3  A    between atoms: C_5  and  N_10
REMARK    4  A    between atoms: C_11  and  N_12
REMARK    5  A    between atoms: N_12  and  S_14
REMARK    6  A    between atoms: S_14  and  N_17
REMARK                            x       y       z     vdW  Elec       q    Type
REMARK                         _______ _______ _______ _____ _____    ______ ____
ROOT
ATOM      1  C   UNL     1      31.404 -23.805 -16.292  0.00  0.00    +0.117 C 
ENDROOT
BRANCH   1   2
ATOM      2  N   UNL     1      32.867 -23.491 -16.086  0.00  0.00    -0.255 N 
ATOM      3  N   UNL     1      34.803 -23.203 -15.040  0.00  0.00    -0.230 NA
ATOM      4  C   UNL     1      33.538 -23.527 -14.897  0.00  0.00    +0.114 C 
ATOM      5  C   UNL     1      33.761 -23.120 -17.051  0.00  0.00    +0.218 C 
ATOM      6  C   UNL     1      34.950 -22.948 -16.381  0.00  0.00    +0.140 C 
ATOM      7  C   UNL     1      32.875 -23.893 -13.628  0.00  0.00    +0.069 C 
BRANCH   5  10
ATOM      8  O   UNL     1      32.666 -22.041 -18.768  0.00  0.00    -0.125 OA
ATOM      9  O   UNL     1      33.907 -23.785 -19.253  0.00  0.00    -0.125 OA
ATOM     10  N   UNL     1      33.433 -22.977 -18.403  0.00  0.00    +0.074 N 
ENDBRANCH   5  10
ENDBRANCH   1   2
BRANCH   1  11
ATOM     11  C   UNL     1      30.487 -22.643 -15.925  0.00  0.00    +0.114 C 
BRANCH  11  12
ATOM     12  N   UNL     1      29.522 -22.386 -17.012  0.00  0.00    -0.168 NA
ATOM     13  H   UNL     1      29.500 -21.378 -17.163  0.00  0.00    +0.150 HD
BRANCH  12  14
ATOM     14  S   UNL     1      27.901 -22.905 -16.799  0.00  0.00    +0.093 S 
ATOM     15  O   UNL     1      27.666 -24.026 -17.689  0.00  0.00    -0.142 OA
ATOM     16  O   UNL     1      27.617 -23.019 -15.381  0.00  0.00    -0.142 OA
BRANCH  14  17
ATOM     17  N   UNL     1      27.054 -21.546 -17.417  0.00  0.00    -0.193 NA
ATOM     18  H   UNL     1      27.721 -20.863 -17.776  0.00  0.00    +0.145 HD
ATOM     19  H   UNL     1      26.501 -21.122 -16.672  0.00  0.00    +0.145 HD
ENDBRANCH  14  17
ENDBRANCH  12  14
ENDBRANCH  11  12
ENDBRANCH   1  11
TORSDOF 6
ENDMDL
MODEL 8
REMARK VINA RESULT:      -6.7      3.762      4.649
REMARK  Name = 57413968
REMARK  6 active torsions:
REMARK  status: ('A' for Active; 'I' for Inactive)
REMARK    1  A    between atoms: C_1  and  N_2
REMARK    2  A    between atoms: C_1  and  C_11
REMARK    3  A    between atoms: C_5  and  N_10
REMARK    4  A    between atoms: C_11  and  N_12
REMARK    5  A    between atoms: N_12  and  S_14
REMARK    6  A    between atoms: S_14  and  N_17
REMARK                            x       y       z     vdW  Elec       q    Type
REMARK                         _______ _______ _______ _____ _____    ______ ____
ROOT
ATOM      1  C   UNL     1      34.504 -23.436 -15.169  0.00  0.00    +0.117 C 
ENDROOT
BRANCH   1   2
ATOM      2  N   UNL     1      33.092 -23.350 -15.697  0.00  0.00    -0.255 N 
ATOM      3  N   UNL     1      31.425 -23.050 -17.132  0.00  0.00    -0.230 NA
ATOM      4  C   UNL     1      32.730 -23.049 -16.980  0.00  0.00    +0.114 C 
ATOM      5  C   UNL     1      31.944 -23.556 -14.984  0.00  0.00    +0.218 C 
ATOM      6  C   UNL     1      30.928 -23.366 -15.891  0.00  0.00    +0.140 C 
ATOM      7  C   UNL     1      33.725 -22.763 -18.034  0.00  0.00    +0.069 C 
BRANCH   5  10
ATOM      8  O   UNL     1      31.952 -22.972 -12.754  0.00  0.00    -0.125 OA
ATOM      9  O   UNL     1      31.868 -25.102 -13.276  0.00  0.00    -0.125 OA
ATOM     10  N   UNL     1      31.921 -23.887 -13.626  0.00  0.00    +0.074 N 
ENDBRANCH   5  10
ENDBRANCH   1   2
BRANCH   1  11
ATOM     11  C   UNL     1      34.982 -24.872 -14.975  0.00  0.00    +0.114 C 
BRANCH  11  12
ATOM     12  N   UNL     1      36.409 -24.991 -15.330  0.00  0.00    -0.168 NA
ATOM     13  H   UNL     1      36.497 -24.736 -16.314  0.00  0.00    +0.150 HD
BRANCH  12  14
ATOM     14  S   UNL     1      37.172 -26.515 -15.130  0.00  0.00    +0.093 S 
ATOM     15  O   UNL     1      37.004 -26.925 -13.749  0.00  0.00    -0.142 OA
ATOM     16  O   UNL     1      36.775 -27.395 -16.213  0.00  0.00    -0.142 OA
BRANCH  14  17
ATOM     17  N   UNL     1      38.815 -26.074 -15.359  0.00  0.00    -0.193 NA
ATOM     18  H   UNL     1      39.314 -26.144 -14.472  0.00  0.00    +0.145 HD
ATOM     19  H   UNL     1      38.865 -25.114 -15.702  0.00  0.00    +0.145 HD
ENDBRANCH  14  17
ENDBRANCH  12  14
ENDBRANCH  11  12
ENDBRANCH   1  11
TORSDOF 6
ENDMDL
MODEL 9
REMARK VINA RESULT:      -6.6     13.145     14.120
REMARK  Name = 57413968
REMARK  6 active torsions:
REMARK  status: ('A' for Active; 'I' for Inactive)
REMARK    1  A    between atoms: C_1  and  N_2
REMARK    2  A    between atoms: C_1  and  C_11
REMARK    3  A    between atoms: C_5  and  N_10
REMARK    4  A    between atoms: C_11  and  N_12
REMARK    5  A    between atoms: N_12  and  S_14
REMARK    6  A    between atoms: S_14  and  N_17
REMARK                            x       y       z     vdW  Elec       q    Type
REMARK                         _______ _______ _______ _____ _____    ______ ____
ROOT
ATOM      1  C   UNL     1      34.767 -15.465 -22.981  0.00  0.00    +0.117 C 
ENDROOT
BRANCH   1   2
ATOM      2  N   UNL     1      34.035 -15.292 -24.290  0.00  0.00    -0.255 N 
ATOM      3  N   UNL     1      33.274 -15.758 -26.323  0.00  0.00    -0.230 NA
ATOM      4  C   UNL     1      33.993 -16.196 -25.314  0.00  0.00    +0.114 C 
ATOM      5  C   UNL     1      33.293 -14.208 -24.669  0.00  0.00    +0.218 C 
ATOM      6  C   UNL     1      32.833 -14.519 -25.927  0.00  0.00    +0.140 C 
ATOM      7  C   UNL     1      34.692 -17.496 -25.247  0.00  0.00    +0.069 C 
BRANCH   5  10
ATOM      8  O   UNL     1      32.199 -13.070 -22.990  0.00  0.00    -0.125 OA
ATOM      9  O   UNL     1      33.846 -12.062 -24.034  0.00  0.00    -0.125 OA
ATOM     10  N   UNL     1      33.106 -13.075 -23.871  0.00  0.00    +0.074 N 
ENDBRANCH   5  10
ENDBRANCH   1   2
BRANCH   1  11
ATOM     11  C   UNL     1      34.025 -16.362 -21.995  0.00  0.00    +0.114 C 
BRANCH  11  12
ATOM     12  N   UNL     1      34.980 -17.038 -21.096  0.00  0.00    -0.168 NA
ATOM     13  H   UNL     1      35.819 -16.460 -21.058  0.00  0.00    +0.150 HD
BRANCH  12  14
ATOM     14  S   UNL     1      35.478 -18.632 -21.490  0.00  0.00    +0.093 S 
ATOM     15  O   UNL     1      36.033 -19.239 -20.295  0.00  0.00    -0.142 OA
ATOM     16  O   UNL     1      34.421 -19.295 -22.229  0.00  0.00    -0.142 OA
BRANCH  14  17
ATOM     17  N   UNL     1      36.771 -18.297 -22.569  0.00  0.00    -0.193 NA
ATOM     18  H   UNL     1      36.660 -18.852 -23.417  0.00  0.00    +0.145 HD
ATOM     19  H   UNL     1      37.657 -18.533 -22.121  0.00  0.00    +0.145 HD
ENDBRANCH  14  17
ENDBRANCH  12  14
ENDBRANCH  11  12
ENDBRANCH   1  11
TORSDOF 6
ENDMDL
