MODEL 1
REMARK VINA RESULT:      -9.2      0.000      0.000
REMARK  Name = 9930049
REMARK  8 active torsions:
REMARK  status: ('A' for Active; 'I' for Inactive)
REMARK    1  A    between atoms: C_1  and  N_7
REMARK    2  A    between atoms: C_2  and  O_15
REMARK    3  A    between atoms: C_10  and  O_13
REMARK    4  A    between atoms: O_15  and  C_16
REMARK    5  A    between atoms: C_16  and  C_17
REMARK    6  A    between atoms: C_17  and  C_18
REMARK    7  A    between atoms: C_21  and  O_24
REMARK    8  A    between atoms: C_23  and  O_26
REMARK                            x       y       z     vdW  Elec       q    Type
REMARK                         _______ _______ _______ _____ _____    ______ ____
ROOT
ATOM      1  C   UNL     1      34.644 -15.196 -22.519  0.00  0.00    -0.030 C 
ATOM      2  C   UNL     1      33.777 -14.369 -23.484  0.00  0.00    +0.097 C 
ATOM      3  C   UNL     1      34.529 -14.686 -21.072  0.00  0.00    -0.018 C 
ATOM      4  C   UNL     1      32.338 -14.174 -22.996  0.00  0.00    +0.027 C 
ATOM      5  C   UNL     1      33.083 -14.532 -20.603  0.00  0.00    -0.002 C 
ATOM      6  C   UNL     1      32.268 -13.664 -21.557  0.00  0.00    +0.002 C 
ENDROOT
BRANCH   1   7
ATOM      7  N   UNL     1      34.276 -16.601 -22.601  0.00  0.00    +0.392 N 
ATOM      8  C   UNL     1      34.609 -17.342 -21.381  0.00  0.00    -0.047 C 
ATOM      9  C   UNL     1      34.966 -17.300 -23.683  0.00  0.00    -0.075 C 
ATOM     10  C   UNL     1      34.657 -18.800 -21.832  0.00  0.00    +0.088 C 
ATOM     11  C   UNL     1      34.666 -18.755 -23.358  0.00  0.00    +0.004 C 
ATOM     12  H   UNL     1      33.268 -16.583 -22.757  0.00  0.00    -0.079 HD
BRANCH  10  13
ATOM     13  O   UNL     1      35.848 -19.405 -21.350  0.00  0.00    -0.387 OA
ATOM     14  H   UNL     1      35.662 -19.865 -20.515  0.00  0.00    +0.210 HD
ENDBRANCH  10  13
ENDBRANCH   1   7
BRANCH   2  15
ATOM     15  O   UNL     1      34.387 -13.095 -23.701  0.00  0.00    -0.358 OA
BRANCH  15  16
ATOM     16  C   UNL     1      33.720 -12.370 -24.724  0.00  0.00    +0.147 C 
BRANCH  16  17
ATOM     17  C   UNL     1      34.456 -11.063 -24.995  0.00  0.00    +0.058 C 
BRANCH  17  18
ATOM     18  C   UNL     1      34.019  -9.956 -24.066  0.00  0.00    -0.016 C 
ATOM     19  C   UNL     1      32.924 -10.155 -23.241  0.00  0.00    +0.036 C 
ATOM     20  C   UNL     1      34.722  -8.762 -24.054  0.00  0.00    -0.001 C 
ATOM     21  C   UNL     1      32.520  -9.132 -22.382  0.00  0.00    +0.172 C 
ATOM     22  C   UNL     1      34.319  -7.740 -23.195  0.00  0.00    +0.040 C 
ATOM     23  C   UNL     1      33.218  -7.925 -22.360  0.00  0.00    +0.172 C 
BRANCH  21  24
ATOM     24  O   UNL     1      31.443  -9.325 -21.570  0.00  0.00    -0.468 OA
ATOM     25  C   UNL     1      31.675 -10.005 -20.338  0.00  0.00    +0.253 C 
ENDBRANCH  21  24
BRANCH  23  26
ATOM     26  O   UNL     1      32.834  -6.919 -21.525  0.00  0.00    -0.468 OA
ATOM     27  C   UNL     1      32.037  -5.878 -22.087  0.00  0.00    +0.253 C 
ENDBRANCH  23  26
ENDBRANCH  17  18
ENDBRANCH  16  17
ENDBRANCH  15  16
ENDBRANCH   2  15
TORSDOF 8
ENDMDL
MODEL 2
REMARK VINA RESULT:      -9.0      3.964     10.661
REMARK  Name = 9930049
REMARK  8 active torsions:
REMARK  status: ('A' for Active; 'I' for Inactive)
REMARK    1  A    between atoms: C_1  and  N_7
REMARK    2  A    between atoms: C_2  and  O_15
REMARK    3  A    between atoms: C_10  and  O_13
REMARK    4  A    between atoms: O_15  and  C_16
REMARK    5  A    between atoms: C_16  and  C_17
REMARK    6  A    between atoms: C_17  and  C_18
REMARK    7  A    between atoms: C_21  and  O_24
REMARK    8  A    between atoms: C_23  and  O_26
REMARK                            x       y       z     vdW  Elec       q    Type
REMARK                         _______ _______ _______ _____ _____    ______ ____
ROOT
ATOM      1  C   UNL     1      35.196 -16.915 -22.230  0.00  0.00    -0.030 C 
ATOM      2  C   UNL     1      35.171 -18.298 -21.558  0.00  0.00    +0.097 C 
ATOM      3  C   UNL     1      35.507 -17.018 -23.733  0.00  0.00    -0.018 C 
ATOM      4  C   UNL     1      34.318 -19.326 -22.309  0.00  0.00    +0.027 C 
ATOM      5  C   UNL     1      34.618 -18.026 -24.461  0.00  0.00    -0.002 C 
ATOM      6  C   UNL     1      34.659 -19.399 -23.798  0.00  0.00    +0.002 C 
ENDROOT
BRANCH   1   7
ATOM      7  N   UNL     1      33.930 -16.233 -22.010  0.00  0.00    +0.392 N 
ATOM      8  C   UNL     1      33.643 -15.233 -23.043  0.00  0.00    -0.047 C 
ATOM      9  C   UNL     1      33.896 -15.507 -20.743  0.00  0.00    -0.075 C 
ATOM     10  C   UNL     1      32.623 -14.304 -22.388  0.00  0.00    +0.088 C 
ATOM     11  C   UNL     1      32.645 -14.657 -20.903  0.00  0.00    +0.004 C 
ATOM     12  H   UNL     1      33.241 -16.985 -22.024  0.00  0.00    -0.079 HD
BRANCH  10  13
ATOM     13  O   UNL     1      33.022 -12.955 -22.580  0.00  0.00    -0.387 OA
ATOM     14  H   UNL     1      33.991 -12.908 -22.630  0.00  0.00    +0.210 HD
ENDBRANCH  10  13
ENDBRANCH   1   7
BRANCH   2  15
ATOM     15  O   UNL     1      36.507 -18.790 -21.426  0.00  0.00    -0.358 OA
BRANCH  15  16
ATOM     16  C   UNL     1      36.711 -19.399 -20.160  0.00  0.00    +0.147 C 
BRANCH  16  17
ATOM     17  C   UNL     1      36.730 -20.916 -20.314  0.00  0.00    +0.058 C 
BRANCH  17  18
ATOM     18  C   UNL     1      35.876 -21.607 -19.278  0.00  0.00    -0.016 C 
ATOM     19  C   UNL     1      36.382 -21.807 -18.004  0.00  0.00    +0.036 C 
ATOM     20  C   UNL     1      34.601 -22.028 -19.621  0.00  0.00    -0.001 C 
ATOM     21  C   UNL     1      35.593 -22.445 -17.046  0.00  0.00    +0.172 C 
ATOM     22  C   UNL     1      33.811 -22.666 -18.664  0.00  0.00    +0.040 C 
ATOM     23  C   UNL     1      34.308 -22.875 -17.377  0.00  0.00    +0.172 C 
BRANCH  21  24
ATOM     24  O   UNL     1      36.088 -22.642 -15.793  0.00  0.00    -0.468 OA
ATOM     25  C   UNL     1      37.475 -22.958 -15.687  0.00  0.00    +0.253 C 
ENDBRANCH  21  24
BRANCH  23  26
ATOM     26  O   UNL     1      33.527 -23.499 -16.451  0.00  0.00    -0.468 OA
ATOM     27  C   UNL     1      32.128 -23.223 -16.491  0.00  0.00    +0.253 C 
ENDBRANCH  23  26
ENDBRANCH  17  18
ENDBRANCH  16  17
ENDBRANCH  15  16
ENDBRANCH   2  15
TORSDOF 8
ENDMDL
MODEL 3
REMARK VINA RESULT:      -8.7      4.414     10.999
REMARK  Name = 9930049
REMARK  8 active torsions:
REMARK  status: ('A' for Active; 'I' for Inactive)
REMARK    1  A    between atoms: C_1  and  N_7
REMARK    2  A    between atoms: C_2  and  O_15
REMARK    3  A    between atoms: C_10  and  O_13
REMARK    4  A    between atoms: O_15  and  C_16
REMARK    5  A    between atoms: C_16  and  C_17
REMARK    6  A    between atoms: C_17  and  C_18
REMARK    7  A    between atoms: C_21  and  O_24
REMARK    8  A    between atoms: C_23  and  O_26
REMARK                            x       y       z     vdW  Elec       q    Type
REMARK                         _______ _______ _______ _____ _____    ______ ____
ROOT
ATOM      1  C   UNL     1      34.984 -16.985 -21.697  0.00  0.00    -0.030 C 
ATOM      2  C   UNL     1      34.612 -18.376 -21.156  0.00  0.00    +0.097 C 
ATOM      3  C   UNL     1      35.719 -17.078 -23.046  0.00  0.00    -0.018 C 
ATOM      4  C   UNL     1      33.920 -19.269 -22.192  0.00  0.00    +0.027 C 
ATOM      5  C   UNL     1      34.990 -17.948 -24.069  0.00  0.00    -0.002 C 
ATOM      6  C   UNL     1      34.684 -19.336 -23.515  0.00  0.00    +0.002 C 
ENDROOT
BRANCH   1   7
ATOM      7  N   UNL     1      33.789 -16.164 -21.817  0.00  0.00    +0.392 N 
ATOM      8  C   UNL     1      33.807 -15.317 -23.013  0.00  0.00    -0.047 C 
ATOM      9  C   UNL     1      33.624 -15.246 -20.691  0.00  0.00    -0.075 C 
ATOM     10  C   UNL     1      32.808 -14.205 -22.697  0.00  0.00    +0.088 C 
ATOM     11  C   UNL     1      32.530 -14.320 -21.200  0.00  0.00    +0.004 C 
ATOM     12  H   UNL     1      33.028 -16.841 -21.856  0.00  0.00    -0.079 HD
BRANCH  10  13
ATOM     13  O   UNL     1      33.393 -12.946 -22.994  0.00  0.00    -0.387 OA
ATOM     14  H   UNL     1      33.633 -12.497 -22.168  0.00  0.00    +0.210 HD
ENDBRANCH  10  13
ENDBRANCH   1   7
BRANCH   2  15
ATOM     15  O   UNL     1      35.786 -19.029 -20.668  0.00  0.00    -0.358 OA
BRANCH  15  16
ATOM     16  C   UNL     1      35.542 -20.402 -20.402  0.00  0.00    +0.147 C 
BRANCH  16  17
ATOM     17  C   UNL     1      36.654 -20.964 -19.524  0.00  0.00    +0.058 C 
BRANCH  17  18
ATOM     18  C   UNL     1      36.117 -21.712 -18.328  0.00  0.00    -0.016 C 
ATOM     19  C   UNL     1      34.870 -22.311 -18.405  0.00  0.00    +0.036 C 
ATOM     20  C   UNL     1      36.882 -21.788 -17.175  0.00  0.00    -0.001 C 
ATOM     21  C   UNL     1      34.374 -23.004 -17.300  0.00  0.00    +0.172 C 
ATOM     22  C   UNL     1      36.387 -22.481 -16.070  0.00  0.00    +0.040 C 
ATOM     23  C   UNL     1      35.133 -23.088 -16.132  0.00  0.00    +0.172 C 
BRANCH  21  24
ATOM     24  O   UNL     1      33.148 -23.593 -17.373  0.00  0.00    -0.468 OA
ATOM     25  C   UNL     1      32.021 -22.787 -17.037  0.00  0.00    +0.253 C 
ENDBRANCH  21  24
BRANCH  23  26
ATOM     26  O   UNL     1      34.660 -23.762 -15.047  0.00  0.00    -0.468 OA
ATOM     27  C   UNL     1      35.384 -24.920 -14.637  0.00  0.00    +0.253 C 
ENDBRANCH  23  26
ENDBRANCH  17  18
ENDBRANCH  16  17
ENDBRANCH  15  16
ENDBRANCH   2  15
TORSDOF 8
ENDMDL
MODEL 4
REMARK VINA RESULT:      -8.7      2.039      8.437
REMARK  Name = 9930049
REMARK  8 active torsions:
REMARK  status: ('A' for Active; 'I' for Inactive)
REMARK    1  A    between atoms: C_1  and  N_7
REMARK    2  A    between atoms: C_2  and  O_15
REMARK    3  A    between atoms: C_10  and  O_13
REMARK    4  A    between atoms: O_15  and  C_16
REMARK    5  A    between atoms: C_16  and  C_17
REMARK    6  A    between atoms: C_17  and  C_18
REMARK    7  A    between atoms: C_21  and  O_24
REMARK    8  A    between atoms: C_23  and  O_26
REMARK                            x       y       z     vdW  Elec       q    Type
REMARK                         _______ _______ _______ _____ _____    ______ ____
ROOT
ATOM      1  C   UNL     1      32.758 -13.910 -22.875  0.00  0.00    -0.030 C 
ATOM      2  C   UNL     1      34.020 -14.683 -23.294  0.00  0.00    +0.097 C 
ATOM      3  C   UNL     1      32.114 -14.512 -21.614  0.00  0.00    -0.018 C 
ATOM      4  C   UNL     1      34.999 -14.925 -22.139  0.00  0.00    +0.027 C 
ATOM      5  C   UNL     1      33.107 -14.711 -20.470  0.00  0.00    -0.002 C 
ATOM      6  C   UNL     1      34.320 -15.526 -20.908  0.00  0.00    +0.002 C 
ENDROOT
BRANCH   1   7
ATOM      7  N   UNL     1      33.082 -12.506 -22.669  0.00  0.00    +0.392 N 
ATOM      8  C   UNL     1      31.956 -11.745 -22.121  0.00  0.00    -0.047 C 
ATOM      9  C   UNL     1      33.447 -11.826 -23.909  0.00  0.00    -0.075 C 
ATOM     10  C   UNL     1      32.282 -10.294 -22.471  0.00  0.00    +0.088 C 
ATOM     11  C   UNL     1      33.421 -10.366 -23.485  0.00  0.00    +0.004 C 
ATOM     12  H   UNL     1      33.864 -12.528 -22.015  0.00  0.00    -0.079 HD
BRANCH  10  13
ATOM     13  O   UNL     1      31.142  -9.681 -23.054  0.00  0.00    -0.387 OA
ATOM     14  H   UNL     1      30.370  -9.825 -22.483  0.00  0.00    +0.210 HD
ENDBRANCH  10  13
ENDBRANCH   1   7
BRANCH   2  15
ATOM     15  O   UNL     1      33.644 -15.935 -23.873  0.00  0.00    -0.358 OA
BRANCH  15  16
ATOM     16  C   UNL     1      34.630 -16.401 -24.781  0.00  0.00    +0.147 C 
BRANCH  16  17
ATOM     17  C   UNL     1      34.667 -17.925 -24.765  0.00  0.00    +0.058 C 
BRANCH  17  18
ATOM     18  C   UNL     1      35.058 -18.474 -23.414  0.00  0.00    -0.016 C 
ATOM     19  C   UNL     1      34.160 -19.263 -22.715  0.00  0.00    +0.036 C 
ATOM     20  C   UNL     1      36.312 -18.182 -22.899  0.00  0.00    -0.001 C 
ATOM     21  C   UNL     1      34.521 -19.772 -21.467  0.00  0.00    +0.172 C 
ATOM     22  C   UNL     1      36.674 -18.690 -21.652  0.00  0.00    +0.040 C 
ATOM     23  C   UNL     1      35.779 -19.484 -20.936  0.00  0.00    +0.172 C 
BRANCH  21  24
ATOM     24  O   UNL     1      33.639 -20.547 -20.778  0.00  0.00    -0.468 OA
ATOM     25  C   UNL     1      32.487 -19.898 -20.244  0.00  0.00    +0.253 C 
ENDBRANCH  21  24
BRANCH  23  26
ATOM     26  O   UNL     1      36.145 -19.975 -19.719  0.00  0.00    -0.468 OA
ATOM     27  C   UNL     1      36.694 -21.291 -19.689  0.00  0.00    +0.253 C 
ENDBRANCH  23  26
ENDBRANCH  17  18
ENDBRANCH  16  17
ENDBRANCH  15  16
ENDBRANCH   2  15
TORSDOF 8
ENDMDL
MODEL 5
REMARK VINA RESULT:      -8.5      0.992      1.858
REMARK  Name = 9930049
REMARK  8 active torsions:
REMARK  status: ('A' for Active; 'I' for Inactive)
REMARK    1  A    between atoms: C_1  and  N_7
REMARK    2  A    between atoms: C_2  and  O_15
REMARK    3  A    between atoms: C_10  and  O_13
REMARK    4  A    between atoms: O_15  and  C_16
REMARK    5  A    between atoms: C_16  and  C_17
REMARK    6  A    between atoms: C_17  and  C_18
REMARK    7  A    between atoms: C_21  and  O_24
REMARK    8  A    between atoms: C_23  and  O_26
REMARK                            x       y       z     vdW  Elec       q    Type
REMARK                         _______ _______ _______ _____ _____    ______ ____
ROOT
ATOM      1  C   UNL     1      34.726 -15.502 -22.294  0.00  0.00    -0.030 C 
ATOM      2  C   UNL     1      33.818 -14.749 -23.282  0.00  0.00    +0.097 C 
ATOM      3  C   UNL     1      34.648 -14.901 -20.879  0.00  0.00    -0.018 C 
ATOM      4  C   UNL     1      32.391 -14.541 -22.762  0.00  0.00    +0.027 C 
ATOM      5  C   UNL     1      33.214 -14.736 -20.376  0.00  0.00    -0.002 C 
ATOM      6  C   UNL     1      32.358 -13.941 -21.357  0.00  0.00    +0.002 C 
ENDROOT
BRANCH   1   7
ATOM      7  N   UNL     1      34.376 -16.914 -22.275  0.00  0.00    +0.392 N 
ATOM      8  C   UNL     1      34.833 -17.589 -21.057  0.00  0.00    -0.047 C 
ATOM      9  C   UNL     1      34.975 -17.656 -23.382  0.00  0.00    -0.075 C 
ATOM     10  C   UNL     1      34.863 -19.068 -21.441  0.00  0.00    +0.088 C 
ATOM     11  C   UNL     1      34.731 -19.097 -22.962  0.00  0.00    +0.004 C 
ATOM     12  H   UNL     1      33.358 -16.916 -22.338  0.00  0.00    -0.079 HD
BRANCH  10  13
ATOM     13  O   UNL     1      36.104 -19.633 -21.044  0.00  0.00    -0.387 OA
ATOM     14  H   UNL     1      36.599 -18.987 -20.515  0.00  0.00    +0.210 HD
ENDBRANCH  10  13
ENDBRANCH   1   7
BRANCH   2  15
ATOM     15  O   UNL     1      34.402 -13.484 -23.598  0.00  0.00    -0.358 OA
BRANCH  15  16
ATOM     16  C   UNL     1      33.626 -12.782 -24.559  0.00  0.00    +0.147 C 
BRANCH  16  17
ATOM     17  C   UNL     1      34.210 -11.391 -24.778  0.00  0.00    +0.058 C 
BRANCH  17  18
ATOM     18  C   UNL     1      33.540 -10.347 -23.919  0.00  0.00    -0.016 C 
ATOM     19  C   UNL     1      33.863  -9.012 -24.096  0.00  0.00    +0.036 C 
ATOM     20  C   UNL     1      32.611 -10.743 -22.969  0.00  0.00    -0.001 C 
ATOM     21  C   UNL     1      33.242  -8.046 -23.303  0.00  0.00    +0.172 C 
ATOM     22  C   UNL     1      31.990  -9.778 -22.176  0.00  0.00    +0.040 C 
ATOM     23  C   UNL     1      32.306  -8.430 -22.343  0.00  0.00    +0.172 C 
BRANCH  21  24
ATOM     24  O   UNL     1      33.559  -6.732 -23.475  0.00  0.00    -0.468 OA
ATOM     25  C   UNL     1      32.883  -6.035 -24.519  0.00  0.00    +0.253 C 
ENDBRANCH  21  24
BRANCH  23  26
ATOM     26  O   UNL     1      31.693  -7.497 -21.562  0.00  0.00    -0.468 OA
ATOM     27  C   UNL     1      32.268  -7.243 -20.282  0.00  0.00    +0.253 C 
ENDBRANCH  23  26
ENDBRANCH  17  18
ENDBRANCH  16  17
ENDBRANCH  15  16
ENDBRANCH   2  15
TORSDOF 8
ENDMDL
MODEL 6
REMARK VINA RESULT:      -8.5      2.896      6.884
REMARK  Name = 9930049
REMARK  8 active torsions:
REMARK  status: ('A' for Active; 'I' for Inactive)
REMARK    1  A    between atoms: C_1  and  N_7
REMARK    2  A    between atoms: C_2  and  O_15
REMARK    3  A    between atoms: C_10  and  O_13
REMARK    4  A    between atoms: O_15  and  C_16
REMARK    5  A    between atoms: C_16  and  C_17
REMARK    6  A    between atoms: C_17  and  C_18
REMARK    7  A    between atoms: C_21  and  O_24
REMARK    8  A    between atoms: C_23  and  O_26
REMARK                            x       y       z     vdW  Elec       q    Type
REMARK                         _______ _______ _______ _____ _____    ______ ____
ROOT
ATOM      1  C   UNL     1      32.728  -8.465 -22.018  0.00  0.00    -0.030 C 
ATOM      2  C   UNL     1      32.579  -8.448 -23.549  0.00  0.00    +0.097 C 
ATOM      3  C   UNL     1      32.775  -7.042 -21.435  0.00  0.00    -0.018 C 
ATOM      4  C   UNL     1      31.458  -7.526 -24.042  0.00  0.00    +0.027 C 
ATOM      5  C   UNL     1      31.627  -6.157 -21.919  0.00  0.00    -0.002 C 
ATOM      6  C   UNL     1      31.543  -6.123 -23.442  0.00  0.00    +0.002 C 
ENDROOT
BRANCH   1   7
ATOM      7  N   UNL     1      31.644  -9.231 -21.422  0.00  0.00    +0.392 N 
ATOM      8  C   UNL     1      31.857  -9.490 -19.995  0.00  0.00    -0.047 C 
ATOM      9  C   UNL     1      31.480 -10.545 -22.038  0.00  0.00    -0.075 C 
ATOM     10  C   UNL     1      30.959 -10.690 -19.697  0.00  0.00    +0.088 C 
ATOM     11  C   UNL     1      30.541 -11.235 -21.061  0.00  0.00    +0.004 C 
ATOM     12  H   UNL     1      30.820  -8.648 -21.571  0.00  0.00    -0.079 HD
BRANCH  10  13
ATOM     13  O   UNL     1      31.700 -11.667 -18.981  0.00  0.00    -0.387 OA
ATOM     14  H   UNL     1      32.075 -11.267 -18.181  0.00  0.00    +0.210 HD
ENDBRANCH  10  13
ENDBRANCH   1   7
BRANCH   2  15
ATOM     15  O   UNL     1      33.818  -8.058 -24.145  0.00  0.00    -0.358 OA
BRANCH  15  16
ATOM     16  C   UNL     1      34.817  -9.050 -23.958  0.00  0.00    +0.147 C 
BRANCH  16  17
ATOM     17  C   UNL     1      35.098  -9.754 -25.281  0.00  0.00    +0.058 C 
BRANCH  17  18
ATOM     18  C   UNL     1      34.457 -11.119 -25.350  0.00  0.00    -0.016 C 
ATOM     19  C   UNL     1      34.137 -11.780 -24.176  0.00  0.00    +0.036 C 
ATOM     20  C   UNL     1      34.197 -11.685 -26.589  0.00  0.00    -0.001 C 
ATOM     21  C   UNL     1      33.543 -13.041 -24.240  0.00  0.00    +0.172 C 
ATOM     22  C   UNL     1      33.604 -12.946 -26.654  0.00  0.00    +0.040 C 
ATOM     23  C   UNL     1      33.277 -13.624 -25.479  0.00  0.00    +0.172 C 
BRANCH  21  24
ATOM     24  O   UNL     1      33.228 -13.693 -23.086  0.00  0.00    -0.468 OA
ATOM     25  C   UNL     1      34.299 -14.322 -22.385  0.00  0.00    +0.253 C 
ENDBRANCH  21  24
BRANCH  23  26
ATOM     26  O   UNL     1      32.697 -14.854 -25.555  0.00  0.00    -0.468 OA
ATOM     27  C   UNL     1      33.570 -15.977 -25.666  0.00  0.00    +0.253 C 
ENDBRANCH  23  26
ENDBRANCH  17  18
ENDBRANCH  16  17
ENDBRANCH  15  16
ENDBRANCH   2  15
TORSDOF 8
ENDMDL
MODEL 7
REMARK VINA RESULT:      -8.5      2.101      8.063
REMARK  Name = 9930049
REMARK  8 active torsions:
REMARK  status: ('A' for Active; 'I' for Inactive)
REMARK    1  A    between atoms: C_1  and  N_7
REMARK    2  A    between atoms: C_2  and  O_15
REMARK    3  A    between atoms: C_10  and  O_13
REMARK    4  A    between atoms: O_15  and  C_16
REMARK    5  A    between atoms: C_16  and  C_17
REMARK    6  A    between atoms: C_17  and  C_18
REMARK    7  A    between atoms: C_21  and  O_24
REMARK    8  A    between atoms: C_23  and  O_26
REMARK                            x       y       z     vdW  Elec       q    Type
REMARK                         _______ _______ _______ _____ _____    ______ ____
ROOT
ATOM      1  C   UNL     1      33.514 -12.740 -23.617  0.00  0.00    -0.030 C 
ATOM      2  C   UNL     1      33.065 -13.994 -24.386  0.00  0.00    +0.097 C 
ATOM      3  C   UNL     1      34.397 -11.827 -24.484  0.00  0.00    -0.018 C 
ATOM      4  C   UNL     1      32.485 -13.686 -25.770  0.00  0.00    +0.027 C 
ATOM      5  C   UNL     1      33.778 -11.510 -25.845  0.00  0.00    -0.002 C 
ATOM      6  C   UNL     1      33.393 -12.779 -26.600  0.00  0.00    +0.002 C 
ENDROOT
BRANCH   1   7
ATOM      7  N   UNL     1      32.352 -12.017 -23.124  0.00  0.00    +0.392 N 
ATOM      8  C   UNL     1      32.621 -10.590 -22.924  0.00  0.00    -0.047 C 
ATOM      9  C   UNL     1      31.889 -12.512 -21.830  0.00  0.00    -0.075 C 
ATOM     10  C   UNL     1      31.534 -10.139 -21.950  0.00  0.00    +0.088 C 
ATOM     11  C   UNL     1      30.913 -11.425 -21.409  0.00  0.00    +0.004 C 
ATOM     12  H   UNL     1      31.647 -12.161 -23.848  0.00  0.00    -0.079 HD
BRANCH  10  13
ATOM     13  O   UNL     1      32.124  -9.394 -20.896  0.00  0.00    -0.387 OA
ATOM     14  H   UNL     1      31.472  -8.774 -20.533  0.00  0.00    +0.210 HD
ENDBRANCH  10  13
ENDBRANCH   1   7
BRANCH   2  15
ATOM     15  O   UNL     1      34.167 -14.894 -24.518  0.00  0.00    -0.358 OA
BRANCH  15  16
ATOM     16  C   UNL     1      33.831 -16.008 -25.331  0.00  0.00    +0.147 C 
BRANCH  16  17
ATOM     17  C   UNL     1      34.926 -17.064 -25.241  0.00  0.00    +0.058 C 
BRANCH  17  18
ATOM     18  C   UNL     1      34.976 -17.722 -23.883  0.00  0.00    -0.016 C 
ATOM     19  C   UNL     1      35.108 -16.935 -22.751  0.00  0.00    +0.036 C 
ATOM     20  C   UNL     1      34.887 -19.103 -23.794  0.00  0.00    -0.001 C 
ATOM     21  C   UNL     1      35.153 -17.544 -21.496  0.00  0.00    +0.172 C 
ATOM     22  C   UNL     1      34.931 -19.711 -22.540  0.00  0.00    +0.040 C 
ATOM     23  C   UNL     1      35.065 -18.932 -21.391  0.00  0.00    +0.172 C 
BRANCH  21  24
ATOM     24  O   UNL     1      35.284 -16.772 -20.381  0.00  0.00    -0.468 OA
ATOM     25  C   UNL     1      34.589 -15.526 -20.371  0.00  0.00    +0.253 C 
ENDBRANCH  21  24
BRANCH  23  26
ATOM     26  O   UNL     1      35.107 -19.538 -20.172  0.00  0.00    -0.468 OA
ATOM     27  C   UNL     1      35.614 -20.870 -20.127  0.00  0.00    +0.253 C 
ENDBRANCH  23  26
ENDBRANCH  17  18
ENDBRANCH  16  17
ENDBRANCH  15  16
ENDBRANCH   2  15
TORSDOF 8
ENDMDL
MODEL 8
REMARK VINA RESULT:      -8.3      2.635      8.835
REMARK  Name = 9930049
REMARK  8 active torsions:
REMARK  status: ('A' for Active; 'I' for Inactive)
REMARK    1  A    between atoms: C_1  and  N_7
REMARK    2  A    between atoms: C_2  and  O_15
REMARK    3  A    between atoms: C_10  and  O_13
REMARK    4  A    between atoms: O_15  and  C_16
REMARK    5  A    between atoms: C_16  and  C_17
REMARK    6  A    between atoms: C_17  and  C_18
REMARK    7  A    between atoms: C_21  and  O_24
REMARK    8  A    between atoms: C_23  and  O_26
REMARK                            x       y       z     vdW  Elec       q    Type
REMARK                         _______ _______ _______ _____ _____    ______ ____
ROOT
ATOM      1  C   UNL     1      32.759  -7.627 -22.376  0.00  0.00    -0.030 C 
ATOM      2  C   UNL     1      32.108  -8.932 -22.866  0.00  0.00    +0.097 C 
ATOM      3  C   UNL     1      34.294  -7.734 -22.345  0.00  0.00    -0.018 C 
ATOM      4  C   UNL     1      32.730  -9.477 -24.157  0.00  0.00    +0.027 C 
ATOM      5  C   UNL     1      34.887  -8.248 -23.656  0.00  0.00    -0.002 C 
ATOM      6  C   UNL     1      34.254  -9.569 -24.083  0.00  0.00    +0.002 C 
ENDROOT
BRANCH   1   7
ATOM      7  N   UNL     1      32.337  -6.516 -23.216  0.00  0.00    +0.392 N 
ATOM      8  C   UNL     1      32.261  -5.252 -22.478  0.00  0.00    -0.047 C 
ATOM      9  C   UNL     1      31.006  -6.717 -23.785  0.00  0.00    -0.075 C 
ATOM     10  C   UNL     1      31.334  -4.382 -23.326  0.00  0.00    +0.088 C 
ATOM     11  C   UNL     1      30.685  -5.333 -24.327  0.00  0.00    +0.004 C 
ATOM     12  H   UNL     1      33.048  -6.475 -23.946  0.00  0.00    -0.079 HD
BRANCH  10  13
ATOM     13  O   UNL     1      30.346  -3.794 -22.492  0.00  0.00    -0.387 OA
ATOM     14  H   UNL     1      30.451  -2.829 -22.498  0.00  0.00    +0.210 HD
ENDBRANCH  10  13
ENDBRANCH   1   7
BRANCH   2  15
ATOM     15  O   UNL     1      32.192  -9.922 -21.839  0.00  0.00    -0.358 OA
BRANCH  15  16
ATOM     16  C   UNL     1      31.467 -11.092 -22.189  0.00  0.00    +0.147 C 
BRANCH  16  17
ATOM     17  C   UNL     1      31.558 -12.112 -21.060  0.00  0.00    +0.058 C 
BRANCH  17  18
ATOM     18  C   UNL     1      32.342 -13.339 -21.458  0.00  0.00    -0.016 C 
ATOM     19  C   UNL     1      32.704 -13.513 -22.784  0.00  0.00    +0.036 C 
ATOM     20  C   UNL     1      32.688 -14.269 -20.490  0.00  0.00    -0.001 C 
ATOM     21  C   UNL     1      33.430 -14.646 -23.153  0.00  0.00    +0.172 C 
ATOM     22  C   UNL     1      33.413 -15.402 -20.857  0.00  0.00    +0.040 C 
ATOM     23  C   UNL     1      33.784 -15.591 -22.189  0.00  0.00    +0.172 C 
BRANCH  21  24
ATOM     24  O   UNL     1      33.787 -14.819 -24.456  0.00  0.00    -0.468 OA
ATOM     25  C   UNL     1      32.904 -14.292 -25.444  0.00  0.00    +0.253 C 
ENDBRANCH  21  24
BRANCH  23  26
ATOM     26  O   UNL     1      34.493 -16.701 -22.535  0.00  0.00    -0.468 OA
ATOM     27  C   UNL     1      35.090 -17.446 -21.476  0.00  0.00    +0.253 C 
ENDBRANCH  23  26
ENDBRANCH  17  18
ENDBRANCH  16  17
ENDBRANCH  15  16
ENDBRANCH   2  15
TORSDOF 8
ENDMDL
MODEL 9
REMARK VINA RESULT:      -8.3      2.200      8.907
REMARK  Name = 9930049
REMARK  8 active torsions:
REMARK  status: ('A' for Active; 'I' for Inactive)
REMARK    1  A    between atoms: C_1  and  N_7
REMARK    2  A    between atoms: C_2  and  O_15
REMARK    3  A    between atoms: C_10  and  O_13
REMARK    4  A    between atoms: O_15  and  C_16
REMARK    5  A    between atoms: C_16  and  C_17
REMARK    6  A    between atoms: C_17  and  C_18
REMARK    7  A    between atoms: C_21  and  O_24
REMARK    8  A    between atoms: C_23  and  O_26
REMARK                            x       y       z     vdW  Elec       q    Type
REMARK                         _______ _______ _______ _____ _____    ______ ____
ROOT
ATOM      1  C   UNL     1      33.706 -12.622 -23.549  0.00  0.00    -0.030 C 
ATOM      2  C   UNL     1      33.513 -14.146 -23.635  0.00  0.00    +0.097 C 
ATOM      3  C   UNL     1      34.222 -12.038 -24.875  0.00  0.00    -0.018 C 
ATOM      4  C   UNL     1      32.724 -14.592 -24.871  0.00  0.00    +0.027 C 
ATOM      5  C   UNL     1      33.396 -12.474 -26.085  0.00  0.00    -0.002 C 
ATOM      6  C   UNL     1      33.271 -13.992 -26.166  0.00  0.00    +0.002 C 
ENDROOT
BRANCH   1   7
ATOM      7  N   UNL     1      32.458 -11.985 -23.156  0.00  0.00    +0.392 N 
ATOM      8  C   UNL     1      32.587 -10.532 -23.020  0.00  0.00    -0.047 C 
ATOM      9  C   UNL     1      31.970 -12.457 -21.862  0.00  0.00    -0.075 C 
ATOM     10  C   UNL     1      31.411 -10.136 -22.128  0.00  0.00    +0.088 C 
ATOM     11  C   UNL     1      30.879 -11.445 -21.551  0.00  0.00    +0.004 C 
ATOM     12  H   UNL     1      31.811 -12.229 -23.906  0.00  0.00    -0.079 HD
BRANCH  10  13
ATOM     13  O   UNL     1      31.873  -9.289 -21.086  0.00  0.00    -0.387 OA
ATOM     14  H   UNL     1      31.493  -8.403 -21.196  0.00  0.00    +0.210 HD
ENDBRANCH  10  13
ENDBRANCH   1   7
BRANCH   2  15
ATOM     15  O   UNL     1      34.789 -14.790 -23.623  0.00  0.00    -0.358 OA
BRANCH  15  16
ATOM     16  C   UNL     1      34.659 -16.190 -23.428  0.00  0.00    +0.147 C 
BRANCH  16  17
ATOM     17  C   UNL     1      34.206 -16.474 -22.001  0.00  0.00    +0.058 C 
BRANCH  17  18
ATOM     18  C   UNL     1      34.682 -17.818 -21.505  0.00  0.00    -0.016 C 
ATOM     19  C   UNL     1      33.755 -18.815 -21.249  0.00  0.00    +0.036 C 
ATOM     20  C   UNL     1      36.039 -18.031 -21.317  0.00  0.00    -0.001 C 
ATOM     21  C   UNL     1      34.195 -20.058 -20.792  0.00  0.00    +0.172 C 
ATOM     22  C   UNL     1      36.479 -19.273 -20.860  0.00  0.00    +0.040 C 
ATOM     23  C   UNL     1      35.557 -20.286 -20.597  0.00  0.00    +0.172 C 
BRANCH  21  24
ATOM     24  O   UNL     1      33.285 -21.039 -20.540  0.00  0.00    -0.468 OA
ATOM     25  C   UNL     1      32.946 -21.273 -19.174  0.00  0.00    +0.253 C 
ENDBRANCH  21  24
BRANCH  23  26
ATOM     26  O   UNL     1      35.999 -21.495 -20.152  0.00  0.00    -0.468 OA
ATOM     27  C   UNL     1      36.392 -21.578 -18.783  0.00  0.00    +0.253 C 
ENDBRANCH  23  26
ENDBRANCH  17  18
ENDBRANCH  16  17
ENDBRANCH  15  16
ENDBRANCH   2  15
TORSDOF 8
ENDMDL
