MODEL 1
REMARK VINA RESULT:     -10.2      0.000      0.000
REMARK  Name = 6914661
REMARK  8 active torsions:
REMARK  status: ('A' for Active; 'I' for Inactive)
REMARK    1  A    between atoms: C_1  and  C_5
REMARK    2  A    between atoms: C_1  and  C_11
REMARK    3  A    between atoms: C_1  and  C_14
REMARK    4  A    between atoms: C_1  and  C_27
REMARK    5  A    between atoms: C_14  and  C_15
REMARK    6  A    between atoms: C_20  and  N_21
REMARK    7  A    between atoms: N_21  and  S_23
REMARK    8  A    between atoms: C_27  and  C_28
REMARK                            x       y       z     vdW  Elec       q    Type
REMARK                         _______ _______ _______ _____ _____    ______ ____
ROOT
ATOM      1  C   UNL     1      35.603 -23.507 -15.684  0.00  0.00    +0.182 C 
ENDROOT
BRANCH   1   5
ATOM      2  O   UNL     1      37.850 -26.206 -15.104  0.00  0.00    -0.316 OA
ATOM      3  N   UNL     1      37.986 -23.971 -15.181  0.00  0.00    -0.316 NA
ATOM      4  N   UNL     1      36.557 -25.747 -15.387  0.00  0.00    -0.011 NA
ATOM      5  C   UNL     1      36.795 -24.482 -15.399  0.00  0.00    +0.116 C 
ATOM      6  C   UNL     1      38.628 -25.097 -14.998  0.00  0.00    +0.294 C 
ATOM      7  C   UNL     1      40.050 -25.321 -14.701  0.00  0.00    +0.114 C 
ENDBRANCH   1   5
BRANCH   1  11
ATOM      8  O   UNL     1      37.143 -20.928 -17.593  0.00  0.00    -0.316 OA
ATOM      9  N   UNL     1      35.686 -22.583 -17.983  0.00  0.00    -0.316 NA
ATOM     10  N   UNL     1      36.965 -21.586 -16.370  0.00  0.00    -0.011 NA
ATOM     11  C   UNL     1      36.125 -22.484 -16.750  0.00  0.00    +0.116 C 
ATOM     12  C   UNL     1      36.355 -21.578 -18.489  0.00  0.00    +0.294 C 
ATOM     13  C   UNL     1      36.370 -21.068 -19.867  0.00  0.00    +0.114 C 
ENDBRANCH   1  11
BRANCH   1  14
ATOM     14  C   UNL     1      34.337 -24.267 -16.275  0.00  0.00    +0.057 C 
BRANCH  14  15
ATOM     15  C   UNL     1      32.942 -23.748 -15.971  0.00  0.00    -0.020 C 
ATOM     16  C   UNL     1      32.273 -23.022 -16.936  0.00  0.00    -0.003 C 
ATOM     17  C   UNL     1      32.380 -24.019 -14.738  0.00  0.00    -0.003 C 
ATOM     18  C   UNL     1      30.991 -22.547 -16.658  0.00  0.00    +0.016 C 
ATOM     19  C   UNL     1      31.098 -23.543 -14.460  0.00  0.00    +0.016 C 
ATOM     20  C   UNL     1      30.405 -22.808 -15.420  0.00  0.00    +0.065 C 
BRANCH  20  21
ATOM     21  N   UNL     1      29.093 -22.319 -15.135  0.00  0.00    -0.213 N 
ATOM     22  H   UNL     1      28.904 -21.785 -14.330  0.00  0.00    +0.174 HD
BRANCH  21  23
ATOM     23  S   UNL     1      27.849 -22.714 -16.277  0.00  0.00    +0.091 S 
ATOM     24  O   UNL     1      26.457 -22.421 -15.479  0.00  0.00    -0.050 OA
ATOM     25  O   UNL     1      27.925 -21.785 -17.389  0.00  0.00    -0.050 OA
ATOM     26  O   UNL     1      27.909 -24.144 -16.522  0.00  0.00    -0.050 OA
ENDBRANCH  21  23
ENDBRANCH  20  21
ENDBRANCH  14  15
ENDBRANCH   1  14
BRANCH   1  27
ATOM     27  C   UNL     1      35.172 -22.810 -14.306  0.00  0.00    +0.057 C 
BRANCH  27  28
ATOM     28  C   UNL     1      35.650 -23.355 -13.002  0.00  0.00    -0.020 C 
ATOM     29  C   UNL     1      34.898 -24.318 -12.331  0.00  0.00    -0.004 C 
ATOM     30  C   UNL     1      36.850 -22.899 -12.454  0.00  0.00    -0.004 C 
ATOM     31  C   UNL     1      35.345 -24.827 -11.112  0.00  0.00    -0.000 C 
ATOM     32  C   UNL     1      37.297 -23.409 -11.235  0.00  0.00    -0.000 C 
ATOM     33  C   UNL     1      36.544 -24.373 -10.564  0.00  0.00    -0.000 C 
ENDBRANCH  27  28
ENDBRANCH   1  27
TORSDOF 8
ENDMDL
MODEL 2
REMARK VINA RESULT:      -9.8      1.624      4.263
REMARK  Name = 6914661
REMARK  8 active torsions:
REMARK  status: ('A' for Active; 'I' for Inactive)
REMARK    1  A    between atoms: C_1  and  C_5
REMARK    2  A    between atoms: C_1  and  C_11
REMARK    3  A    between atoms: C_1  and  C_14
REMARK    4  A    between atoms: C_1  and  C_27
REMARK    5  A    between atoms: C_14  and  C_15
REMARK    6  A    between atoms: C_20  and  N_21
REMARK    7  A    between atoms: N_21  and  S_23
REMARK    8  A    between atoms: C_27  and  C_28
REMARK                            x       y       z     vdW  Elec       q    Type
REMARK                         _______ _______ _______ _____ _____    ______ ____
ROOT
ATOM      1  C   UNL     1      35.587 -24.008 -14.238  0.00  0.00    +0.182 C 
ENDROOT
BRANCH   1   5
ATOM      2  O   UNL     1      36.421 -23.197 -10.874  0.00  0.00    -0.316 OA
ATOM      3  N   UNL     1      35.185 -24.753 -11.908  0.00  0.00    -0.316 NA
ATOM      4  N   UNL     1      36.527 -22.932 -12.245  0.00  0.00    -0.011 NA
ATOM      5  C   UNL     1      35.783 -23.883 -12.689  0.00  0.00    +0.116 C 
ATOM      6  C   UNL     1      35.614 -24.285 -10.763  0.00  0.00    +0.294 C 
ATOM      7  C   UNL     1      35.345 -24.765  -9.400  0.00  0.00    +0.114 C 
ENDBRANCH   1   5
BRANCH   1  11
ATOM      8  O   UNL     1      37.997 -26.158 -15.734  0.00  0.00    -0.316 OA
ATOM      9  N   UNL     1      38.036 -24.310 -14.470  0.00  0.00    -0.316 NA
ATOM     10  N   UNL     1      36.658 -25.823 -15.492  0.00  0.00    -0.011 NA
ATOM     11  C   UNL     1      36.845 -24.771 -14.774  0.00  0.00    +0.116 C 
ATOM     12  C   UNL     1      38.741 -25.217 -15.097  0.00  0.00    +0.294 C 
ATOM     13  C   UNL     1      40.201 -25.352 -15.205  0.00  0.00    +0.114 C 
ENDBRANCH   1  11
BRANCH   1  14
ATOM     14  C   UNL     1      34.282 -24.838 -14.610  0.00  0.00    +0.057 C 
BRANCH  14  15
ATOM     15  C   UNL     1      32.940 -24.130 -14.686  0.00  0.00    -0.020 C 
ATOM     16  C   UNL     1      32.441 -23.771 -15.922  0.00  0.00    -0.003 C 
ATOM     17  C   UNL     1      32.254 -23.867 -13.515  0.00  0.00    -0.003 C 
ATOM     18  C   UNL     1      31.208 -23.123 -15.992  0.00  0.00    +0.016 C 
ATOM     19  C   UNL     1      31.021 -23.219 -13.586  0.00  0.00    +0.016 C 
ATOM     20  C   UNL     1      30.498 -22.847 -14.824  0.00  0.00    +0.065 C 
BRANCH  20  21
ATOM     21  N   UNL     1      29.236 -22.182 -14.896  0.00  0.00    -0.213 N 
ATOM     22  H   UNL     1      29.014 -21.429 -14.301  0.00  0.00    +0.174 HD
BRANCH  21  23
ATOM     23  S   UNL     1      28.115 -22.766 -16.082  0.00  0.00    +0.091 S 
ATOM     24  O   UNL     1      26.648 -22.438 -15.450  0.00  0.00    -0.050 OA
ATOM     25  O   UNL     1      28.261 -21.975 -17.291  0.00  0.00    -0.050 OA
ATOM     26  O   UNL     1      28.243 -24.210 -16.142  0.00  0.00    -0.050 OA
ENDBRANCH  21  23
ENDBRANCH  20  21
ENDBRANCH  14  15
ENDBRANCH   1  14
BRANCH   1  27
ATOM     27  C   UNL     1      35.438 -22.535 -14.855  0.00  0.00    +0.057 C 
BRANCH  27  28
ATOM     28  C   UNL     1      35.705 -22.291 -16.302  0.00  0.00    -0.020 C 
ATOM     29  C   UNL     1      34.733 -22.600 -17.252  0.00  0.00    -0.004 C 
ATOM     30  C   UNL     1      36.930 -21.757 -16.705  0.00  0.00    -0.004 C 
ATOM     31  C   UNL     1      34.982 -22.373 -18.605  0.00  0.00    -0.000 C 
ATOM     32  C   UNL     1      37.180 -21.530 -18.058  0.00  0.00    -0.000 C 
ATOM     33  C   UNL     1      36.206 -21.838 -19.009  0.00  0.00    -0.000 C 
ENDBRANCH  27  28
ENDBRANCH   1  27
TORSDOF 8
ENDMDL
MODEL 3
REMARK VINA RESULT:      -8.4      3.029      5.821
REMARK  Name = 6914661
REMARK  8 active torsions:
REMARK  status: ('A' for Active; 'I' for Inactive)
REMARK    1  A    between atoms: C_1  and  C_5
REMARK    2  A    between atoms: C_1  and  C_11
REMARK    3  A    between atoms: C_1  and  C_14
REMARK    4  A    between atoms: C_1  and  C_27
REMARK    5  A    between atoms: C_14  and  C_15
REMARK    6  A    between atoms: C_20  and  N_21
REMARK    7  A    between atoms: N_21  and  S_23
REMARK    8  A    between atoms: C_27  and  C_28
REMARK                            x       y       z     vdW  Elec       q    Type
REMARK                         _______ _______ _______ _____ _____    ______ ____
ROOT
ATOM      1  C   UNL     1      34.797 -23.902 -14.532  0.00  0.00    +0.182 C 
ENDROOT
BRANCH   1   5
ATOM      2  O   UNL     1      34.952 -24.843 -11.102  0.00  0.00    -0.316 OA
ATOM      3  N   UNL     1      36.034 -23.409 -12.440  0.00  0.00    -0.316 NA
ATOM      4  N   UNL     1      34.374 -24.981 -12.371  0.00  0.00    -0.011 NA
ATOM      5  C   UNL     1      35.085 -24.118 -13.007  0.00  0.00    +0.116 C 
ATOM      6  C   UNL     1      35.920 -23.898 -11.231  0.00  0.00    +0.294 C 
ATOM      7  C   UNL     1      36.682 -23.571 -10.018  0.00  0.00    +0.114 C 
ENDBRANCH   1   5
BRANCH   1  11
ATOM      8  O   UNL     1      31.367 -24.717 -15.021  0.00  0.00    -0.316 OA
ATOM      9  N   UNL     1      32.542 -22.872 -14.542  0.00  0.00    -0.316 NA
ATOM     10  N   UNL     1      32.710 -25.112 -14.971  0.00  0.00    -0.011 NA
ATOM     11  C   UNL     1      33.241 -23.973 -14.694  0.00  0.00    +0.116 C 
ATOM     12  C   UNL     1      31.357 -23.384 -14.757  0.00  0.00    +0.294 C 
ATOM     13  C   UNL     1      30.043 -22.727 -14.751  0.00  0.00    +0.114 C 
ENDBRANCH   1  11
BRANCH   1  14
ATOM     14  C   UNL     1      35.305 -22.483 -15.040  0.00  0.00    +0.057 C 
BRANCH  14  15
ATOM     15  C   UNL     1      35.399 -22.211 -16.532  0.00  0.00    -0.020 C 
ATOM     16  C   UNL     1      34.322 -22.525 -17.338  0.00  0.00    -0.003 C 
ATOM     17  C   UNL     1      36.557 -21.656 -17.041  0.00  0.00    -0.003 C 
ATOM     18  C   UNL     1      34.408 -22.274 -18.708  0.00  0.00    +0.016 C 
ATOM     19  C   UNL     1      36.642 -21.406 -18.411  0.00  0.00    +0.016 C 
ATOM     20  C   UNL     1      35.567 -21.715 -19.243  0.00  0.00    +0.065 C 
BRANCH  20  21
ATOM     21  N   UNL     1      35.655 -21.460 -20.646  0.00  0.00    -0.213 N 
ATOM     22  H   UNL     1      35.973 -22.145 -21.277  0.00  0.00    +0.174 HD
BRANCH  21  23
ATOM     23  S   UNL     1      35.172 -19.884 -21.183  0.00  0.00    +0.091 S 
ATOM     24  O   UNL     1      33.660 -19.701 -20.599  0.00  0.00    -0.050 OA
ATOM     25  O   UNL     1      36.016 -18.893 -20.540  0.00  0.00    -0.050 OA
ATOM     26  O   UNL     1      35.070 -19.919 -22.630  0.00  0.00    -0.050 OA
ENDBRANCH  21  23
ENDBRANCH  20  21
ENDBRANCH  14  15
ENDBRANCH   1  14
BRANCH   1  27
ATOM     27  C   UNL     1      35.566 -25.038 -15.363  0.00  0.00    +0.057 C 
BRANCH  27  28
ATOM     28  C   UNL     1      36.990 -25.362 -15.060  0.00  0.00    -0.020 C 
ATOM     29  C   UNL     1      37.987 -24.418 -15.304  0.00  0.00    -0.004 C 
ATOM     30  C   UNL     1      37.325 -26.610 -14.534  0.00  0.00    -0.004 C 
ATOM     31  C   UNL     1      39.319 -24.721 -15.021  0.00  0.00    -0.000 C 
ATOM     32  C   UNL     1      38.656 -26.913 -14.251  0.00  0.00    -0.000 C 
ATOM     33  C   UNL     1      39.654 -25.968 -14.494  0.00  0.00    -0.000 C 
ENDBRANCH  27  28
ENDBRANCH   1  27
TORSDOF 8
ENDMDL
MODEL 4
REMARK VINA RESULT:      -8.0     10.384     14.033
REMARK  Name = 6914661
REMARK  8 active torsions:
REMARK  status: ('A' for Active; 'I' for Inactive)
REMARK    1  A    between atoms: C_1  and  C_5
REMARK    2  A    between atoms: C_1  and  C_11
REMARK    3  A    between atoms: C_1  and  C_14
REMARK    4  A    between atoms: C_1  and  C_27
REMARK    5  A    between atoms: C_14  and  C_15
REMARK    6  A    between atoms: C_20  and  N_21
REMARK    7  A    between atoms: N_21  and  S_23
REMARK    8  A    between atoms: C_27  and  C_28
REMARK                            x       y       z     vdW  Elec       q    Type
REMARK                         _______ _______ _______ _____ _____    ______ ____
ROOT
ATOM      1  C   UNL     1      33.342 -11.925 -23.450  0.00  0.00    +0.182 C 
ENDROOT
BRANCH   1   5
ATOM      2  O   UNL     1      35.028  -8.891 -24.239  0.00  0.00    -0.316 OA
ATOM      3  N   UNL     1      32.908  -9.522 -23.886  0.00  0.00    -0.316 NA
ATOM      4  N   UNL     1      35.071 -10.264 -23.968  0.00  0.00    -0.011 NA
ATOM      5  C   UNL     1      33.813 -10.470 -23.794  0.00  0.00    +0.116 C 
ATOM      6  C   UNL     1      33.718  -8.534 -24.171  0.00  0.00    +0.294 C 
ATOM      7  C   UNL     1      33.410  -7.120 -24.422  0.00  0.00    +0.114 C 
ENDBRANCH   1   5
BRANCH   1  11
ATOM      8  O   UNL     1      33.467 -13.111 -26.804  0.00  0.00    -0.316 OA
ATOM      9  N   UNL     1      32.761 -13.900 -24.830  0.00  0.00    -0.316 NA
ATOM     10  N   UNL     1      33.721 -12.101 -25.867  0.00  0.00    -0.011 NA
ATOM     11  C   UNL     1      33.273 -12.691 -24.814  0.00  0.00    +0.116 C 
ATOM     12  C   UNL     1      32.901 -14.134 -26.111  0.00  0.00    +0.294 C 
ATOM     13  C   UNL     1      32.539 -15.329 -26.885  0.00  0.00    +0.114 C 
ENDBRANCH   1  11
BRANCH   1  14
ATOM     14  C   UNL     1      34.364 -12.673 -22.489  0.00  0.00    +0.057 C 
BRANCH  14  15
ATOM     15  C   UNL     1      34.132 -14.133 -22.139  0.00  0.00    -0.020 C 
ATOM     16  C   UNL     1      34.682 -15.110 -22.944  0.00  0.00    -0.003 C 
ATOM     17  C   UNL     1      33.377 -14.443 -21.023  0.00  0.00    -0.003 C 
ATOM     18  C   UNL     1      34.471 -16.451 -22.622  0.00  0.00    +0.016 C 
ATOM     19  C   UNL     1      33.166 -15.784 -20.702  0.00  0.00    +0.016 C 
ATOM     20  C   UNL     1      33.713 -16.787 -21.501  0.00  0.00    +0.065 C 
BRANCH  20  21
ATOM     21  N   UNL     1      33.495 -18.160 -21.173  0.00  0.00    -0.213 N 
ATOM     22  H   UNL     1      32.600 -18.502 -20.946  0.00  0.00    +0.174 HD
BRANCH  21  23
ATOM     23  S   UNL     1      34.885 -19.196 -21.194  0.00  0.00    +0.091 S 
ATOM     24  O   UNL     1      34.459 -20.466 -20.263  0.00  0.00    -0.050 OA
ATOM     25  O   UNL     1      35.082 -19.686 -22.546  0.00  0.00    -0.050 OA
ATOM     26  O   UNL     1      35.964 -18.506 -20.509  0.00  0.00    -0.050 OA
ENDBRANCH  21  23
ENDBRANCH  20  21
ENDBRANCH  14  15
ENDBRANCH   1  14
BRANCH   1  27
ATOM     27  C   UNL     1      31.923 -11.840 -22.707  0.00  0.00    +0.057 C 
BRANCH  27  28
ATOM     28  C   UNL     1      31.804 -11.169 -21.380  0.00  0.00    -0.020 C 
ATOM     29  C   UNL     1      31.947  -9.785 -21.283  0.00  0.00    -0.004 C 
ATOM     30  C   UNL     1      31.553 -11.927 -20.236  0.00  0.00    -0.004 C 
ATOM     31  C   UNL     1      31.836  -9.158 -20.042  0.00  0.00    -0.000 C 
ATOM     32  C   UNL     1      31.442 -11.299 -18.995  0.00  0.00    -0.000 C 
ATOM     33  C   UNL     1      31.584  -9.915 -18.898  0.00  0.00    -0.000 C 
ENDBRANCH  27  28
ENDBRANCH   1  27
TORSDOF 8
ENDMDL
MODEL 5
REMARK VINA RESULT:      -7.6     12.254     15.854
REMARK  Name = 6914661
REMARK  8 active torsions:
REMARK  status: ('A' for Active; 'I' for Inactive)
REMARK    1  A    between atoms: C_1  and  C_5
REMARK    2  A    between atoms: C_1  and  C_11
REMARK    3  A    between atoms: C_1  and  C_14
REMARK    4  A    between atoms: C_1  and  C_27
REMARK    5  A    between atoms: C_14  and  C_15
REMARK    6  A    between atoms: C_20  and  N_21
REMARK    7  A    between atoms: N_21  and  S_23
REMARK    8  A    between atoms: C_27  and  C_28
REMARK                            x       y       z     vdW  Elec       q    Type
REMARK                         _______ _______ _______ _____ _____    ______ ____
ROOT
ATOM      1  C   UNL     1      31.737  -9.920 -22.610  0.00  0.00    +0.182 C 
ENDROOT
BRANCH   1   5
ATOM      2  O   UNL     1      32.568  -9.126 -19.241  0.00  0.00    -0.316 OA
ATOM      3  N   UNL     1      31.348 -10.688 -20.284  0.00  0.00    -0.316 NA
ATOM      4  N   UNL     1      32.669  -8.848 -20.610  0.00  0.00    -0.011 NA
ATOM      5  C   UNL     1      31.935  -9.805 -21.060  0.00  0.00    +0.116 C 
ATOM      6  C   UNL     1      31.773 -10.223 -19.137  0.00  0.00    +0.294 C 
ATOM      7  C   UNL     1      31.512 -10.717 -17.778  0.00  0.00    +0.114 C 
ENDBRANCH   1   5
BRANCH   1  11
ATOM      8  O   UNL     1      34.965  -8.775 -23.578  0.00  0.00    -0.316 OA
ATOM      9  N   UNL     1      33.512 -10.323 -24.293  0.00  0.00    -0.316 NA
ATOM     10  N   UNL     1      33.860  -8.697 -22.722  0.00  0.00    -0.011 NA
ATOM     11  C   UNL     1      33.136  -9.621 -23.249  0.00  0.00    +0.116 C 
ATOM     12  C   UNL     1      34.679  -9.757 -24.473  0.00  0.00    +0.294 C 
ATOM     13  C   UNL     1      35.701 -10.033 -25.492  0.00  0.00    +0.114 C 
ENDBRANCH   1  11
BRANCH   1  14
ATOM     14  C   UNL     1      31.271 -11.377 -23.046  0.00  0.00    +0.057 C 
BRANCH  14  15
ATOM     15  C   UNL     1      32.231 -12.545 -22.902  0.00  0.00    -0.020 C 
ATOM     16  C   UNL     1      32.389 -13.133 -21.663  0.00  0.00    -0.003 C 
ATOM     17  C   UNL     1      32.918 -12.990 -24.015  0.00  0.00    -0.003 C 
ATOM     18  C   UNL     1      33.269 -14.207 -21.530  0.00  0.00    +0.016 C 
ATOM     19  C   UNL     1      33.799 -14.064 -23.883  0.00  0.00    +0.016 C 
ATOM     20  C   UNL     1      33.973 -14.672 -22.640  0.00  0.00    +0.065 C 
BRANCH  20  21
ATOM     21  N   UNL     1      34.876 -15.770 -22.503  0.00  0.00    -0.213 N 
ATOM     22  H   UNL     1      35.566 -15.959 -23.179  0.00  0.00    +0.174 HD
BRANCH  21  23
ATOM     23  S   UNL     1      34.695 -16.755 -21.088  0.00  0.00    +0.091 S 
ATOM     24  O   UNL     1      35.810 -17.932 -21.267  0.00  0.00    -0.050 OA
ATOM     25  O   UNL     1      35.065 -15.970 -19.923  0.00  0.00    -0.050 OA
ATOM     26  O   UNL     1      33.391 -17.388 -21.150  0.00  0.00    -0.050 OA
ENDBRANCH  21  23
ENDBRANCH  20  21
ENDBRANCH  14  15
ENDBRANCH   1  14
BRANCH   1  27
ATOM     27  C   UNL     1      30.607  -8.875 -23.060  0.00  0.00    +0.057 C 
BRANCH  27  28
ATOM     28  C   UNL     1      30.955  -7.446 -23.305  0.00  0.00    -0.020 C 
ATOM     29  C   UNL     1      31.256  -7.012 -24.596  0.00  0.00    -0.004 C 
ATOM     30  C   UNL     1      30.982  -6.542 -22.242  0.00  0.00    -0.004 C 
ATOM     31  C   UNL     1      31.583  -5.676 -24.825  0.00  0.00    -0.000 C 
ATOM     32  C   UNL     1      31.308  -5.206 -22.471  0.00  0.00    -0.000 C 
ATOM     33  C   UNL     1      31.609  -4.772 -23.763  0.00  0.00    -0.000 C 
ENDBRANCH  27  28
ENDBRANCH   1  27
TORSDOF 8
ENDMDL
MODEL 6
REMARK VINA RESULT:      -7.6     12.262     15.838
REMARK  Name = 6914661
REMARK  8 active torsions:
REMARK  status: ('A' for Active; 'I' for Inactive)
REMARK    1  A    between atoms: C_1  and  C_5
REMARK    2  A    between atoms: C_1  and  C_11
REMARK    3  A    between atoms: C_1  and  C_14
REMARK    4  A    between atoms: C_1  and  C_27
REMARK    5  A    between atoms: C_14  and  C_15
REMARK    6  A    between atoms: C_20  and  N_21
REMARK    7  A    between atoms: N_21  and  S_23
REMARK    8  A    between atoms: C_27  and  C_28
REMARK                            x       y       z     vdW  Elec       q    Type
REMARK                         _______ _______ _______ _____ _____    ______ ____
ROOT
ATOM      1  C   UNL     1      31.734  -9.911 -22.611  0.00  0.00    +0.182 C 
ENDROOT
BRANCH   1   5
ATOM      2  O   UNL     1      32.561  -9.124 -19.240  0.00  0.00    -0.316 OA
ATOM      3  N   UNL     1      31.338 -10.681 -20.288  0.00  0.00    -0.316 NA
ATOM      4  N   UNL     1      32.666  -8.845 -20.608  0.00  0.00    -0.011 NA
ATOM      5  C   UNL     1      31.929  -9.798 -21.061  0.00  0.00    +0.116 C 
ATOM      6  C   UNL     1      31.762 -10.219 -19.139  0.00  0.00    +0.294 C 
ATOM      7  C   UNL     1      31.497 -10.714 -17.781  0.00  0.00    +0.114 C 
ENDBRANCH   1   5
BRANCH   1  11
ATOM      8  O   UNL     1      34.966  -8.766 -23.568  0.00  0.00    -0.316 OA
ATOM      9  N   UNL     1      33.509 -10.302 -24.298  0.00  0.00    -0.316 NA
ATOM     10  N   UNL     1      33.861  -8.693 -22.711  0.00  0.00    -0.011 NA
ATOM     11  C   UNL     1      33.134  -9.610 -23.247  0.00  0.00    +0.116 C 
ATOM     12  C   UNL     1      34.677  -9.738 -24.473  0.00  0.00    +0.294 C 
ATOM     13  C   UNL     1      35.698 -10.008 -25.494  0.00  0.00    +0.114 C 
ENDBRANCH   1  11
BRANCH   1  14
ATOM     14  C   UNL     1      31.270 -11.366 -23.052  0.00  0.00    +0.057 C 
BRANCH  14  15
ATOM     15  C   UNL     1      32.226 -12.536 -22.901  0.00  0.00    -0.020 C 
ATOM     16  C   UNL     1      32.931 -12.971 -24.006  0.00  0.00    -0.003 C 
ATOM     17  C   UNL     1      32.367 -13.132 -21.662  0.00  0.00    -0.003 C 
ATOM     18  C   UNL     1      33.812 -14.044 -23.868  0.00  0.00    +0.016 C 
ATOM     19  C   UNL     1      33.247 -14.206 -21.524  0.00  0.00    +0.016 C 
ATOM     20  C   UNL     1      33.969 -14.661 -22.627  0.00  0.00    +0.065 C 
BRANCH  20  21
ATOM     21  N   UNL     1      34.869 -15.761 -22.486  0.00  0.00    -0.213 N 
ATOM     22  H   UNL     1      35.561 -15.952 -23.160  0.00  0.00    +0.174 HD
BRANCH  21  23
ATOM     23  S   UNL     1      34.683 -16.743 -21.070  0.00  0.00    +0.091 S 
ATOM     24  O   UNL     1      35.794 -17.924 -21.246  0.00  0.00    -0.050 OA
ATOM     25  O   UNL     1      35.052 -15.958 -19.906  0.00  0.00    -0.050 OA
ATOM     26  O   UNL     1      33.376 -17.372 -21.134  0.00  0.00    -0.050 OA
ENDBRANCH  21  23
ENDBRANCH  20  21
ENDBRANCH  14  15
ENDBRANCH   1  14
BRANCH   1  27
ATOM     27  C   UNL     1      30.605  -8.865 -23.062  0.00  0.00    +0.057 C 
BRANCH  27  28
ATOM     28  C   UNL     1      30.954  -7.435 -23.303  0.00  0.00    -0.020 C 
ATOM     29  C   UNL     1      30.985  -6.535 -22.239  0.00  0.00    -0.004 C 
ATOM     30  C   UNL     1      31.247  -6.997 -24.596  0.00  0.00    -0.004 C 
ATOM     31  C   UNL     1      31.310  -5.198 -22.465  0.00  0.00    -0.000 C 
ATOM     32  C   UNL     1      31.572  -5.660 -24.822  0.00  0.00    -0.000 C 
ATOM     33  C   UNL     1      31.604  -4.760 -23.756  0.00  0.00    -0.000 C 
ENDBRANCH  27  28
ENDBRANCH   1  27
TORSDOF 8
ENDMDL
MODEL 7
REMARK VINA RESULT:      -7.6      1.844      4.343
REMARK  Name = 6914661
REMARK  8 active torsions:
REMARK  status: ('A' for Active; 'I' for Inactive)
REMARK    1  A    between atoms: C_1  and  C_5
REMARK    2  A    between atoms: C_1  and  C_11
REMARK    3  A    between atoms: C_1  and  C_14
REMARK    4  A    between atoms: C_1  and  C_27
REMARK    5  A    between atoms: C_14  and  C_15
REMARK    6  A    between atoms: C_20  and  N_21
REMARK    7  A    between atoms: N_21  and  S_23
REMARK    8  A    between atoms: C_27  and  C_28
REMARK                            x       y       z     vdW  Elec       q    Type
REMARK                         _______ _______ _______ _____ _____    ______ ____
ROOT
ATOM      1  C   UNL     1      34.758 -24.360 -14.215  0.00  0.00    +0.182 C 
ENDROOT
BRANCH   1   5
ATOM      2  O   UNL     1      35.188 -24.693 -10.697  0.00  0.00    -0.316 OA
ATOM      3  N   UNL     1      36.021 -23.387 -12.315  0.00  0.00    -0.316 NA
ATOM      4  N   UNL     1      34.573 -25.106 -11.885  0.00  0.00    -0.011 NA
ATOM      5  C   UNL     1      35.141 -24.285 -12.697  0.00  0.00    +0.116 C 
ATOM      6  C   UNL     1      36.025 -23.678 -11.039  0.00  0.00    +0.294 C 
ATOM      7  C   UNL     1      36.796 -23.068  -9.947  0.00  0.00    +0.114 C 
ENDBRANCH   1   5
BRANCH   1  11
ATOM      8  O   UNL     1      37.708 -25.846 -15.542  0.00  0.00    -0.316 OA
ATOM      9  N   UNL     1      35.519 -26.321 -15.527  0.00  0.00    -0.316 NA
ATOM     10  N   UNL     1      37.090 -24.816 -14.821  0.00  0.00    -0.011 NA
ATOM     11  C   UNL     1      35.872 -25.223 -14.900  0.00  0.00    +0.116 C 
ATOM     12  C   UNL     1      36.712 -26.689 -15.921  0.00  0.00    +0.294 C 
ATOM     13  C   UNL     1      37.112 -27.868 -16.701  0.00  0.00    +0.114 C 
ENDBRANCH   1  11
BRANCH   1  14
ATOM     14  C   UNL     1      33.349 -25.062 -14.442  0.00  0.00    +0.057 C 
BRANCH  14  15
ATOM     15  C   UNL     1      32.106 -24.207 -14.618  0.00  0.00    -0.020 C 
ATOM     16  C   UNL     1      31.295 -23.973 -13.525  0.00  0.00    -0.003 C 
ATOM     17  C   UNL     1      31.821 -23.685 -15.865  0.00  0.00    -0.003 C 
ATOM     18  C   UNL     1      30.154 -23.187 -13.685  0.00  0.00    +0.016 C 
ATOM     19  C   UNL     1      30.680 -22.899 -16.025  0.00  0.00    +0.016 C 
ATOM     20  C   UNL     1      29.847 -22.650 -14.935  0.00  0.00    +0.065 C 
BRANCH  20  21
ATOM     21  N   UNL     1      28.678 -21.846 -15.099  0.00  0.00    -0.213 N 
ATOM     22  H   UNL     1      28.595 -20.962 -14.675  0.00  0.00    +0.174 HD
BRANCH  21  23
ATOM     23  S   UNL     1      27.412 -22.506 -16.083  0.00  0.00    +0.091 S 
ATOM     24  O   UNL     1      27.440 -21.601 -17.440  0.00  0.00    -0.050 OA
ATOM     25  O   UNL     1      27.766 -23.865 -16.451  0.00  0.00    -0.050 OA
ATOM     26  O   UNL     1      26.149 -22.241 -15.419  0.00  0.00    -0.050 OA
ENDBRANCH  21  23
ENDBRANCH  20  21
ENDBRANCH  14  15
ENDBRANCH   1  14
BRANCH   1  27
ATOM     27  C   UNL     1      34.676 -22.868 -14.795  0.00  0.00    +0.057 C 
BRANCH  27  28
ATOM     28  C   UNL     1      35.189 -22.560 -16.162  0.00  0.00    -0.020 C 
ATOM     29  C   UNL     1      36.463 -22.017 -16.322  0.00  0.00    -0.004 C 
ATOM     30  C   UNL     1      34.393 -22.814 -17.279  0.00  0.00    -0.004 C 
ATOM     31  C   UNL     1      36.943 -21.728 -17.600  0.00  0.00    -0.000 C 
ATOM     32  C   UNL     1      34.872 -22.525 -18.557  0.00  0.00    -0.000 C 
ATOM     33  C   UNL     1      36.148 -21.982 -18.717  0.00  0.00    -0.000 C 
ENDBRANCH  27  28
ENDBRANCH   1  27
TORSDOF 8
ENDMDL
