MODEL 1
REMARK VINA RESULT:     -13.4      0.000      0.000
REMARK  Name = 25171648
REMARK  8 active torsions:
REMARK  status: ('A' for Active; 'I' for Inactive)
REMARK    1  A    between atoms: C_1  and  C_12
REMARK    2  A    between atoms: C_2  and  C_23
REMARK    3  A    between atoms: C_9  and  O_13
REMARK    4  A    between atoms: O_13  and  C_14
REMARK    5  A    between atoms: C_14  and  C_16
REMARK    6  A    between atoms: C_23  and  N_25
REMARK    7  A    between atoms: C_27  and  C_31
REMARK    8  A    between atoms: C_34  and  C_38
REMARK                            x       y       z     vdW  Elec       q    Type
REMARK                         _______ _______ _______ _____ _____    ______ ____
ROOT
ATOM      1  C   UNL     1      35.244 -19.766 -20.639  0.00  0.00    +0.062 C 
ATOM      2  C   UNL     1      34.240 -21.614 -19.449  0.00  0.00    +0.000 C 
ATOM      3  C   UNL     1      34.111 -20.488 -20.263  0.00  0.00    +0.007 C 
ATOM      4  C   UNL     1      36.505 -20.171 -20.201  0.00  0.00    +0.010 C 
ATOM      5  C   UNL     1      35.501 -22.018 -19.012  0.00  0.00    -0.003 C 
ATOM      6  C   UNL     1      36.633 -21.297 -19.389  0.00  0.00    +0.000 C 
ENDROOT
BRANCH   1  12
ATOM      7  N   UNL     1      35.042 -17.415 -20.852  0.00  0.00    -0.212 NA
ATOM      8  N   UNL     1      35.070 -18.824 -22.807  0.00  0.00    -0.190 NA
ATOM      9  C   UNL     1      34.864 -16.437 -23.044  0.00  0.00    +0.161 C 
ATOM     10  C   UNL     1      34.918 -16.348 -21.668  0.00  0.00    +0.201 C 
ATOM     11  C   UNL     1      34.946 -17.713 -23.563  0.00  0.00    +0.144 C 
ATOM     12  C   UNL     1      35.111 -18.604 -21.478  0.00  0.00    +0.031 C 
BRANCH   9  13
ATOM     13  O   UNL     1      34.738 -15.329 -23.845  0.00  0.00    -0.476 OA
BRANCH  13  14
ATOM     14  C   UNL     1      33.447 -14.761 -23.961  0.00  0.00    +0.205 C 
BRANCH  14  16
ATOM     15  N   UNL     1      32.391 -10.638 -23.228  0.00  0.00    +0.386 N 
ATOM     16  C   UNL     1      33.477 -13.359 -23.363  0.00  0.00    +0.040 C 
ATOM     17  C   UNL     1      32.156 -13.034 -22.656  0.00  0.00    -0.019 C 
ATOM     18  C   UNL     1      33.760 -12.305 -24.439  0.00  0.00    -0.019 C 
ATOM     19  C   UNL     1      32.139 -11.594 -22.140  0.00  0.00    -0.077 C 
ATOM     20  C   UNL     1      33.691 -10.889 -23.864  0.00  0.00    -0.077 C 
ATOM     21  C   UNL     1      32.321  -9.265 -22.729  0.00  0.00    -0.101 C 
ATOM     22  H   UNL     1      31.665 -10.767 -23.933  0.00  0.00    -0.080 HD
ENDBRANCH  14  16
ENDBRANCH  13  14
ENDBRANCH   9  13
ENDBRANCH   1  12
BRANCH   2  23
ATOM     23  C   UNL     1      33.028 -22.386 -19.047  0.00  0.00    +0.146 C 
BRANCH  23  25
ATOM     24  O   UNL     1      30.768 -22.413 -17.285  0.00  0.00    -0.268 OA
ATOM     25  N   UNL     1      33.042 -22.739 -17.637  0.00  0.00    -0.173 N 
ATOM     26  N   UNL     1      34.270 -23.073 -17.143  0.00  0.00    -0.175 NA
ATOM     27  C   UNL     1      34.361 -23.392 -15.892  0.00  0.00    +0.099 C 
ATOM     28  C   UNL     1      31.886 -22.722 -16.871  0.00  0.00    +0.268 C 
ATOM     29  C   UNL     1      33.220 -23.445 -14.958  0.00  0.00    +0.025 C 
ATOM     30  C   UNL     1      32.030 -23.114 -15.454  0.00  0.00    +0.061 C 
BRANCH  27  31
ATOM     31  C   UNL     1      35.694 -23.753 -15.340  0.00  0.00    +0.020 C 
ATOM     32  C   UNL     1      35.791 -24.659 -14.284  0.00  0.00    +0.012 C 
ATOM     33  C   UNL     1      36.849 -23.187 -15.881  0.00  0.00    +0.002 C 
ATOM     34  C   UNL     1      37.043 -24.998 -13.768  0.00  0.00    +0.068 C 
ATOM     35  C   UNL     1      38.100 -23.525 -15.365  0.00  0.00    +0.001 C 
ATOM     36  C   UNL     1      38.197 -24.431 -14.309  0.00  0.00    +0.010 C 
BRANCH  34  38
ATOM     37  N   UNL     1      37.224 -26.678 -11.806  0.00  0.00    -0.191 NA
ATOM     38  C   UNL     1      37.143 -25.925 -12.686  0.00  0.00    +0.100 C 
ENDBRANCH  34  38
ENDBRANCH  27  31
ENDBRANCH  23  25
ENDBRANCH   2  23
TORSDOF 8
ENDMDL
MODEL 2
REMARK VINA RESULT:     -13.2      2.032      4.062
REMARK  Name = 25171648
REMARK  8 active torsions:
REMARK  status: ('A' for Active; 'I' for Inactive)
REMARK    1  A    between atoms: C_1  and  C_12
REMARK    2  A    between atoms: C_2  and  C_23
REMARK    3  A    between atoms: C_9  and  O_13
REMARK    4  A    between atoms: O_13  and  C_14
REMARK    5  A    between atoms: C_14  and  C_16
REMARK    6  A    between atoms: C_23  and  N_25
REMARK    7  A    between atoms: C_27  and  C_31
REMARK    8  A    between atoms: C_34  and  C_38
REMARK                            x       y       z     vdW  Elec       q    Type
REMARK                         _______ _______ _______ _____ _____    ______ ____
ROOT
ATOM      1  C   UNL     1      34.540 -20.180 -20.351  0.00  0.00    +0.062 C 
ATOM      2  C   UNL     1      35.427 -21.782 -18.774  0.00  0.00    +0.000 C 
ATOM      3  C   UNL     1      35.619 -20.704 -19.639  0.00  0.00    +0.007 C 
ATOM      4  C   UNL     1      33.269 -20.735 -20.198  0.00  0.00    +0.010 C 
ATOM      5  C   UNL     1      34.156 -22.336 -18.621  0.00  0.00    -0.003 C 
ATOM      6  C   UNL     1      33.077 -21.812 -19.333  0.00  0.00    +0.000 C 
ENDROOT
BRANCH   1  12
ATOM      7  N   UNL     1      34.531 -19.304 -22.552  0.00  0.00    -0.212 NA
ATOM      8  N   UNL     1      35.111 -17.903 -20.679  0.00  0.00    -0.190 NA
ATOM      9  C   UNL     1      35.108 -16.993 -22.907  0.00  0.00    +0.161 C 
ATOM     10  C   UNL     1      34.726 -18.240 -23.359  0.00  0.00    +0.201 C 
ATOM     11  C   UNL     1      35.287 -16.883 -21.543  0.00  0.00    +0.144 C 
ATOM     12  C   UNL     1      34.738 -19.068 -21.243  0.00  0.00    +0.031 C 
BRANCH   9  13
ATOM     13  O   UNL     1      35.296 -15.933 -23.758  0.00  0.00    -0.476 OA
BRANCH  13  14
ATOM     14  C   UNL     1      34.136 -15.295 -24.259  0.00  0.00    +0.205 C 
BRANCH  14  16
ATOM     15  N   UNL     1      31.985 -11.967 -22.541  0.00  0.00    +0.386 N 
ATOM     16  C   UNL     1      33.833 -14.082 -23.386  0.00  0.00    +0.040 C 
ATOM     17  C   UNL     1      32.639 -14.352 -22.464  0.00  0.00    -0.019 C 
ATOM     18  C   UNL     1      33.554 -12.842 -24.243  0.00  0.00    -0.019 C 
ATOM     19  C   UNL     1      32.265 -13.107 -21.657  0.00  0.00    -0.077 C 
ATOM     20  C   UNL     1      33.150 -11.647 -23.377  0.00  0.00    -0.077 C 
ATOM     21  C   UNL     1      31.580 -10.800 -21.758  0.00  0.00    -0.101 C 
ATOM     22  H   UNL     1      31.217 -12.230 -23.158  0.00  0.00    -0.080 HD
ENDBRANCH  14  16
ENDBRANCH  13  14
ENDBRANCH   9  13
ENDBRANCH   1  12
BRANCH   2  23
ATOM     23  C   UNL     1      36.580 -22.342 -18.012  0.00  0.00    +0.146 C 
BRANCH  23  25
ATOM     24  O   UNL     1      38.355 -22.426 -15.763  0.00  0.00    -0.268 OA
ATOM     25  N   UNL     1      36.223 -22.694 -16.648  0.00  0.00    -0.173 N 
ATOM     26  N   UNL     1      34.909 -23.018 -16.467  0.00  0.00    -0.175 NA
ATOM     27  C   UNL     1      34.518 -23.350 -15.278  0.00  0.00    +0.099 C 
ATOM     28  C   UNL     1      37.163 -22.701 -15.628  0.00  0.00    +0.268 C 
ATOM     29  C   UNL     1      35.392 -23.380 -14.090  0.00  0.00    +0.025 C 
ATOM     30  C   UNL     1      36.671 -23.064 -14.283  0.00  0.00    +0.061 C 
BRANCH  27  31
ATOM     31  C   UNL     1      33.090 -23.710 -15.069  0.00  0.00    +0.020 C 
ATOM     32  C   UNL     1      32.100 -23.127 -15.859  0.00  0.00    +0.012 C 
ATOM     33  C   UNL     1      32.742 -24.633 -14.082  0.00  0.00    +0.002 C 
ATOM     34  C   UNL     1      30.761 -23.466 -15.662  0.00  0.00    +0.068 C 
ATOM     35  C   UNL     1      31.403 -24.972 -13.885  0.00  0.00    +0.001 C 
ATOM     36  C   UNL     1      30.413 -24.389 -14.675  0.00  0.00    +0.010 C 
BRANCH  34  38
ATOM     37  N   UNL     1      28.921 -22.382 -17.127  0.00  0.00    -0.191 NA
ATOM     38  C   UNL     1      29.746 -22.868 -16.470  0.00  0.00    +0.100 C 
ENDBRANCH  34  38
ENDBRANCH  27  31
ENDBRANCH  23  25
ENDBRANCH   2  23
TORSDOF 8
ENDMDL
MODEL 3
REMARK VINA RESULT:     -13.0      3.610     14.621
REMARK  Name = 25171648
REMARK  8 active torsions:
REMARK  status: ('A' for Active; 'I' for Inactive)
REMARK    1  A    between atoms: C_1  and  C_12
REMARK    2  A    between atoms: C_2  and  C_23
REMARK    3  A    between atoms: C_9  and  O_13
REMARK    4  A    between atoms: O_13  and  C_14
REMARK    5  A    between atoms: C_14  and  C_16
REMARK    6  A    between atoms: C_23  and  N_25
REMARK    7  A    between atoms: C_27  and  C_31
REMARK    8  A    between atoms: C_34  and  C_38
REMARK                            x       y       z     vdW  Elec       q    Type
REMARK                         _______ _______ _______ _____ _____    ______ ____
ROOT
ATOM      1  C   UNL     1      33.603 -13.039 -23.524  0.00  0.00    +0.062 C 
ATOM      2  C   UNL     1      32.388 -11.066 -22.837  0.00  0.00    +0.000 C 
ATOM      3  C   UNL     1      32.708 -12.413 -22.656  0.00  0.00    +0.007 C 
ATOM      4  C   UNL     1      34.178 -12.319 -24.571  0.00  0.00    +0.010 C 
ATOM      5  C   UNL     1      32.964 -10.347 -23.884  0.00  0.00    -0.003 C 
ATOM      6  C   UNL     1      33.860 -10.974 -24.750  0.00  0.00    +0.000 C 
ENDROOT
BRANCH   1  12
ATOM      7  N   UNL     1      33.884 -15.209 -24.433  0.00  0.00    -0.212 NA
ATOM      8  N   UNL     1      34.255 -14.807 -22.086  0.00  0.00    -0.190 NA
ATOM      9  C   UNL     1      34.547 -17.019 -22.990  0.00  0.00    +0.161 C 
ATOM     10  C   UNL     1      34.199 -16.504 -24.222  0.00  0.00    +0.201 C 
ATOM     11  C   UNL     1      34.559 -16.114 -21.948  0.00  0.00    +0.144 C 
ATOM     12  C   UNL     1      33.932 -14.428 -23.338  0.00  0.00    +0.031 C 
BRANCH   9  13
ATOM     13  O   UNL     1      34.862 -18.343 -22.813  0.00  0.00    -0.476 OA
BRANCH  13  14
ATOM     14  C   UNL     1      35.908 -18.641 -21.908  0.00  0.00    +0.205 C 
BRANCH  14  16
ATOM     15  N   UNL     1      34.266 -21.893 -19.587  0.00  0.00    +0.386 N 
ATOM     16  C   UNL     1      35.324 -19.406 -20.724  0.00  0.00    +0.040 C 
ATOM     17  C   UNL     1      36.228 -20.579 -20.328  0.00  0.00    -0.019 C 
ATOM     18  C   UNL     1      33.916 -19.921 -21.040  0.00  0.00    -0.019 C 
ATOM     19  C   UNL     1      35.601 -21.410 -19.206  0.00  0.00    -0.077 C 
ATOM     20  C   UNL     1      33.366 -20.774 -19.894  0.00  0.00    -0.077 C 
ATOM     21  C   UNL     1      33.703 -22.728 -18.526  0.00  0.00    -0.101 C 
ATOM     22  H   UNL     1      34.366 -22.458 -20.430  0.00  0.00    -0.080 HD
ENDBRANCH  14  16
ENDBRANCH  13  14
ENDBRANCH   9  13
ENDBRANCH   1  12
BRANCH   2  23
ATOM     23  C   UNL     1      31.431 -10.396 -21.910  0.00  0.00    +0.146 C 
BRANCH  23  25
ATOM     24  O   UNL     1      32.095  -9.349 -19.326  0.00  0.00    -0.268 OA
ATOM     25  N   UNL     1      31.819  -9.027 -21.611  0.00  0.00    -0.173 N 
ATOM     26  N   UNL     1      31.847  -8.192 -22.691  0.00  0.00    -0.175 NA
ATOM     27  C   UNL     1      32.176  -6.955 -22.499  0.00  0.00    +0.099 C 
ATOM     28  C   UNL     1      32.123  -8.623 -20.319  0.00  0.00    +0.268 C 
ATOM     29  C   UNL     1      32.551  -6.383 -21.192  0.00  0.00    +0.025 C 
ATOM     30  C   UNL     1      32.516  -7.209 -20.149  0.00  0.00    +0.061 C 
BRANCH  27  31
ATOM     31  C   UNL     1      32.205  -6.034 -23.666  0.00  0.00    +0.020 C 
ATOM     32  C   UNL     1      31.315  -4.962 -23.733  0.00  0.00    +0.012 C 
ATOM     33  C   UNL     1      33.125  -6.241 -24.695  0.00  0.00    +0.002 C 
ATOM     34  C   UNL     1      31.344  -4.098 -24.828  0.00  0.00    +0.068 C 
ATOM     35  C   UNL     1      33.154  -5.377 -25.790  0.00  0.00    +0.001 C 
ATOM     36  C   UNL     1      32.264  -4.306 -25.856  0.00  0.00    +0.010 C 
BRANCH  34  38
ATOM     37  N   UNL     1      29.690  -2.110 -24.953  0.00  0.00    -0.191 NA
ATOM     38  C   UNL     1      30.431  -3.001 -24.897  0.00  0.00    +0.100 C 
ENDBRANCH  34  38
ENDBRANCH  27  31
ENDBRANCH  23  25
ENDBRANCH   2  23
TORSDOF 8
ENDMDL
MODEL 4
REMARK VINA RESULT:     -12.9      3.812      8.090
REMARK  Name = 25171648
REMARK  8 active torsions:
REMARK  status: ('A' for Active; 'I' for Inactive)
REMARK    1  A    between atoms: C_1  and  C_12
REMARK    2  A    between atoms: C_2  and  C_23
REMARK    3  A    between atoms: C_9  and  O_13
REMARK    4  A    between atoms: O_13  and  C_14
REMARK    5  A    between atoms: C_14  and  C_16
REMARK    6  A    between atoms: C_23  and  N_25
REMARK    7  A    between atoms: C_27  and  C_31
REMARK    8  A    between atoms: C_34  and  C_38
REMARK                            x       y       z     vdW  Elec       q    Type
REMARK                         _______ _______ _______ _____ _____    ______ ____
ROOT
ATOM      1  C   UNL     1      32.754 -12.946 -22.238  0.00  0.00    +0.062 C 
ATOM      2  C   UNL     1      34.163 -14.856 -22.690  0.00  0.00    +0.000 C 
ATOM      3  C   UNL     1      33.747 -13.561 -23.001  0.00  0.00    +0.007 C 
ATOM      4  C   UNL     1      32.178 -13.626 -21.165  0.00  0.00    +0.010 C 
ATOM      5  C   UNL     1      33.587 -15.535 -21.617  0.00  0.00    -0.003 C 
ATOM      6  C   UNL     1      32.596 -14.919 -20.853  0.00  0.00    +0.000 C 
ENDROOT
BRANCH   1  12
ATOM      7  N   UNL     1      31.196 -11.182 -21.964  0.00  0.00    -0.212 NA
ATOM      8  N   UNL     1      33.096 -10.922 -23.423  0.00  0.00    -0.190 NA
ATOM      9  C   UNL     1      31.525  -9.118 -23.158  0.00  0.00    +0.161 C 
ATOM     10  C   UNL     1      30.823  -9.926 -22.287  0.00  0.00    +0.201 C 
ATOM     11  C   UNL     1      32.665  -9.674 -23.701  0.00  0.00    +0.144 C 
ATOM     12  C   UNL     1      32.325 -11.610 -22.559  0.00  0.00    +0.031 C 
BRANCH   9  13
ATOM     13  O   UNL     1      31.115  -7.843 -23.464  0.00  0.00    -0.476 OA
BRANCH  13  14
ATOM     14  C   UNL     1      31.330  -6.846 -22.483  0.00  0.00    +0.205 C 
BRANCH  14  16
ATOM     15  N   UNL     1      30.662  -3.159 -24.632  0.00  0.00    +0.386 N 
ATOM     16  C   UNL     1      31.621  -5.525 -23.188  0.00  0.00    +0.040 C 
ATOM     17  C   UNL     1      30.918  -4.359 -22.483  0.00  0.00    -0.019 C 
ATOM     18  C   UNL     1      31.188  -5.577 -24.657  0.00  0.00    -0.019 C 
ATOM     19  C   UNL     1      31.122  -3.045 -23.241  0.00  0.00    -0.077 C 
ATOM     20  C   UNL     1      31.384  -4.223 -25.344  0.00  0.00    -0.077 C 
ATOM     21  C   UNL     1      30.816  -1.881 -25.328  0.00  0.00    -0.101 C 
ATOM     22  H   UNL     1      29.673  -3.406 -24.616  0.00  0.00    -0.080 HD
ENDBRANCH  14  16
ENDBRANCH  13  14
ENDBRANCH   9  13
ENDBRANCH   1  12
BRANCH   2  23
ATOM     23  C   UNL     1      35.224 -15.516 -23.506  0.00  0.00    +0.146 C 
BRANCH  23  25
ATOM     24  O   UNL     1      34.316 -16.819 -25.891  0.00  0.00    -0.268 OA
ATOM     25  N   UNL     1      34.989 -16.940 -23.670  0.00  0.00    -0.173 N 
ATOM     26  N   UNL     1      35.226 -17.691 -22.554  0.00  0.00    -0.175 NA
ATOM     27  C   UNL     1      35.031 -18.969 -22.624  0.00  0.00    +0.099 C 
ATOM     28  C   UNL     1      34.549 -17.471 -24.874  0.00  0.00    +0.268 C 
ATOM     29  C   UNL     1      34.591 -19.682 -23.837  0.00  0.00    +0.025 C 
ATOM     30  C   UNL     1      34.361 -18.936 -24.916  0.00  0.00    +0.061 C 
BRANCH  27  31
ATOM     31  C   UNL     1      35.281 -19.797 -21.414  0.00  0.00    +0.020 C 
ATOM     32  C   UNL     1      34.219 -20.434 -20.772  0.00  0.00    +0.012 C 
ATOM     33  C   UNL     1      36.579 -19.939 -20.922  0.00  0.00    +0.002 C 
ATOM     34  C   UNL     1      34.455 -21.211 -19.638  0.00  0.00    +0.068 C 
ATOM     35  C   UNL     1      36.815 -20.716 -19.788  0.00  0.00    +0.001 C 
ATOM     36  C   UNL     1      35.753 -21.352 -19.146  0.00  0.00    +0.010 C 
BRANCH  34  38
ATOM     37  N   UNL     1      32.483 -22.392 -18.443  0.00  0.00    -0.191 NA
ATOM     38  C   UNL     1      33.367 -21.863 -18.978  0.00  0.00    +0.100 C 
ENDBRANCH  34  38
ENDBRANCH  27  31
ENDBRANCH  23  25
ENDBRANCH   2  23
TORSDOF 8
ENDMDL
MODEL 5
REMARK VINA RESULT:     -12.8      3.427     14.431
REMARK  Name = 25171648
REMARK  8 active torsions:
REMARK  status: ('A' for Active; 'I' for Inactive)
REMARK    1  A    between atoms: C_1  and  C_12
REMARK    2  A    between atoms: C_2  and  C_23
REMARK    3  A    between atoms: C_9  and  O_13
REMARK    4  A    between atoms: O_13  and  C_14
REMARK    5  A    between atoms: C_14  and  C_16
REMARK    6  A    between atoms: C_23  and  N_25
REMARK    7  A    between atoms: C_27  and  C_31
REMARK    8  A    between atoms: C_34  and  C_38
REMARK                            x       y       z     vdW  Elec       q    Type
REMARK                         _______ _______ _______ _____ _____    ______ ____
ROOT
ATOM      1  C   UNL     1      33.697 -13.198 -22.917  0.00  0.00    +0.062 C 
ATOM      2  C   UNL     1      32.276 -11.249 -22.770  0.00  0.00    +0.000 C 
ATOM      3  C   UNL     1      32.734 -12.454 -22.235  0.00  0.00    +0.007 C 
ATOM      4  C   UNL     1      34.202 -12.738 -24.133  0.00  0.00    +0.010 C 
ATOM      5  C   UNL     1      32.781 -10.790 -23.986  0.00  0.00    -0.003 C 
ATOM      6  C   UNL     1      33.745 -11.533 -24.667  0.00  0.00    +0.000 C 
ENDROOT
BRANCH   1  12
ATOM      7  N   UNL     1      33.953 -14.636 -21.050  0.00  0.00    -0.212 NA
ATOM      8  N   UNL     1      34.780 -15.285 -23.219  0.00  0.00    -0.190 NA
ATOM      9  C   UNL     1      35.050 -16.760 -21.336  0.00  0.00    +0.161 C 
ATOM     10  C   UNL     1      34.408 -15.811 -20.567  0.00  0.00    +0.201 C 
ATOM     11  C   UNL     1      35.209 -16.440 -22.669  0.00  0.00    +0.144 C 
ATOM     12  C   UNL     1      34.169 -14.441 -22.365  0.00  0.00    +0.031 C 
BRANCH   9  13
ATOM     13  O   UNL     1      35.499 -17.946 -20.810  0.00  0.00    -0.476 OA
BRANCH  13  14
ATOM     14  C   UNL     1      35.712 -19.012 -21.715  0.00  0.00    +0.205 C 
BRANCH  14  16
ATOM     15  N   UNL     1      34.080 -21.721 -18.773  0.00  0.00    +0.386 N 
ATOM     16  C   UNL     1      35.173 -20.295 -21.091  0.00  0.00    +0.040 C 
ATOM     17  C   UNL     1      33.726 -20.112 -20.620  0.00  0.00    -0.019 C 
ATOM     18  C   UNL     1      36.046 -20.747 -19.916  0.00  0.00    -0.019 C 
ATOM     19  C   UNL     1      33.211 -21.362 -19.903  0.00  0.00    -0.077 C 
ATOM     20  C   UNL     1      35.455 -21.976 -19.222  0.00  0.00    -0.077 C 
ATOM     21  C   UNL     1      33.546 -22.886 -18.068  0.00  0.00    -0.101 C 
ATOM     22  H   UNL     1      34.100 -20.930 -18.130  0.00  0.00    -0.080 HD
ENDBRANCH  14  16
ENDBRANCH  13  14
ENDBRANCH   9  13
ENDBRANCH   1  12
BRANCH   2  23
ATOM     23  C   UNL     1      31.246 -10.453 -22.042  0.00  0.00    +0.146 C 
BRANCH  23  25
ATOM     24  O   UNL     1      32.159  -9.542 -19.483  0.00  0.00    -0.268 OA
ATOM     25  N   UNL     1      31.708  -9.113 -21.722  0.00  0.00    -0.173 N 
ATOM     26  N   UNL     1      31.679  -8.233 -22.766  0.00  0.00    -0.175 NA
ATOM     27  C   UNL     1      32.070  -7.018 -22.554  0.00  0.00    +0.099 C 
ATOM     28  C   UNL     1      32.133  -8.775 -20.445  0.00  0.00    +0.268 C 
ATOM     29  C   UNL     1      32.572  -6.516 -21.261  0.00  0.00    +0.025 C 
ATOM     30  C   UNL     1      32.592  -7.384 -20.252  0.00  0.00    +0.061 C 
BRANCH  27  31
ATOM     31  C   UNL     1      32.038  -6.049 -23.682  0.00  0.00    +0.020 C 
ATOM     32  C   UNL     1      33.081  -6.021 -24.608  0.00  0.00    +0.012 C 
ATOM     33  C   UNL     1      30.964  -5.169 -23.814  0.00  0.00    +0.002 C 
ATOM     34  C   UNL     1      33.049  -5.112 -25.666  0.00  0.00    +0.068 C 
ATOM     35  C   UNL     1      30.932  -4.259 -24.872  0.00  0.00    +0.001 C 
ATOM     36  C   UNL     1      31.975  -4.231 -25.798  0.00  0.00    +0.010 C 
BRANCH  34  38
ATOM     37  N   UNL     1      34.986  -5.057 -27.385  0.00  0.00    -0.191 NA
ATOM     38  C   UNL     1      34.118  -5.082 -26.614  0.00  0.00    +0.100 C 
ENDBRANCH  34  38
ENDBRANCH  27  31
ENDBRANCH  23  25
ENDBRANCH   2  23
TORSDOF 8
ENDMDL
MODEL 6
REMARK VINA RESULT:     -12.5      3.725      8.042
REMARK  Name = 25171648
REMARK  8 active torsions:
REMARK  status: ('A' for Active; 'I' for Inactive)
REMARK    1  A    between atoms: C_1  and  C_12
REMARK    2  A    between atoms: C_2  and  C_23
REMARK    3  A    between atoms: C_9  and  O_13
REMARK    4  A    between atoms: O_13  and  C_14
REMARK    5  A    between atoms: C_14  and  C_16
REMARK    6  A    between atoms: C_23  and  N_25
REMARK    7  A    between atoms: C_27  and  C_31
REMARK    8  A    between atoms: C_34  and  C_38
REMARK                            x       y       z     vdW  Elec       q    Type
REMARK                         _______ _______ _______ _____ _____    ______ ____
ROOT
ATOM      1  C   UNL     1      32.750 -12.984 -22.094  0.00  0.00    +0.062 C 
ATOM      2  C   UNL     1      34.166 -14.908 -22.458  0.00  0.00    +0.000 C 
ATOM      3  C   UNL     1      33.754 -13.625 -22.820  0.00  0.00    +0.007 C 
ATOM      4  C   UNL     1      32.158 -13.626 -21.006  0.00  0.00    +0.010 C 
ATOM      5  C   UNL     1      33.573 -15.549 -21.370  0.00  0.00    -0.003 C 
ATOM      6  C   UNL     1      32.570 -14.908 -20.644  0.00  0.00    +0.000 C 
ENDROOT
BRANCH   1  12
ATOM      7  N   UNL     1      33.132 -10.985 -23.308  0.00  0.00    -0.212 NA
ATOM      8  N   UNL     1      31.164 -11.229 -21.938  0.00  0.00    -0.190 NA
ATOM      9  C   UNL     1      31.534  -9.190 -23.164  0.00  0.00    +0.161 C 
ATOM     10  C   UNL     1      32.704  -9.748 -23.637  0.00  0.00    +0.201 C 
ATOM     11  C   UNL     1      30.796  -9.985 -22.310  0.00  0.00    +0.144 C 
ATOM     12  C   UNL     1      32.326 -11.659 -22.467  0.00  0.00    +0.031 C 
BRANCH   9  13
ATOM     13  O   UNL     1      31.128  -7.928 -23.521  0.00  0.00    -0.476 OA
BRANCH  13  14
ATOM     14  C   UNL     1      31.290  -6.904 -22.558  0.00  0.00    +0.205 C 
BRANCH  14  16
ATOM     15  N   UNL     1      31.508  -3.436 -25.125  0.00  0.00    +0.386 N 
ATOM     16  C   UNL     1      31.852  -5.667 -23.253  0.00  0.00    +0.040 C 
ATOM     17  C   UNL     1      31.031  -4.420 -22.905  0.00  0.00    -0.019 C 
ATOM     18  C   UNL     1      31.886  -5.856 -24.773  0.00  0.00    -0.019 C 
ATOM     19  C   UNL     1      31.527  -3.194 -23.675  0.00  0.00    -0.077 C 
ATOM     20  C   UNL     1      32.354  -4.583 -25.482  0.00  0.00    -0.077 C 
ATOM     21  C   UNL     1      31.935  -2.239 -25.849  0.00  0.00    -0.101 C 
ATOM     22  H   UNL     1      30.549  -3.657 -25.394  0.00  0.00    -0.080 HD
ENDBRANCH  14  16
ENDBRANCH  13  14
ENDBRANCH   9  13
ENDBRANCH   1  12
BRANCH   2  23
ATOM     23  C   UNL     1      35.238 -15.595 -23.234  0.00  0.00    +0.146 C 
BRANCH  23  25
ATOM     24  O   UNL     1      34.983 -16.800 -25.822  0.00  0.00    -0.268 OA
ATOM     25  N   UNL     1      34.919 -16.986 -23.506  0.00  0.00    -0.173 N 
ATOM     26  N   UNL     1      34.720 -17.755 -22.395  0.00  0.00    -0.175 NA
ATOM     27  C   UNL     1      34.424 -19.004 -22.560  0.00  0.00    +0.099 C 
ATOM     28  C   UNL     1      34.821 -17.470 -24.802  0.00  0.00    +0.268 C 
ATOM     29  C   UNL     1      34.309 -19.669 -23.872  0.00  0.00    +0.025 C 
ATOM     30  C   UNL     1      34.504 -18.906 -24.945  0.00  0.00    +0.061 C 
BRANCH  27  31
ATOM     31  C   UNL     1      34.200 -19.851 -21.358  0.00  0.00    +0.020 C 
ATOM     32  C   UNL     1      35.288 -20.344 -20.638  0.00  0.00    +0.012 C 
ATOM     33  C   UNL     1      32.900 -20.151 -20.950  0.00  0.00    +0.002 C 
ATOM     34  C   UNL     1      35.076 -21.137 -19.511  0.00  0.00    +0.068 C 
ATOM     35  C   UNL     1      32.688 -20.944 -19.822  0.00  0.00    +0.001 C 
ATOM     36  C   UNL     1      33.776 -21.437 -19.102  0.00  0.00    +0.010 C 
BRANCH  34  38
ATOM     37  N   UNL     1      37.096 -22.055 -18.174  0.00  0.00    -0.191 NA
ATOM     38  C   UNL     1      36.191 -21.644 -18.773  0.00  0.00    +0.100 C 
ENDBRANCH  34  38
ENDBRANCH  27  31
ENDBRANCH  23  25
ENDBRANCH   2  23
TORSDOF 8
ENDMDL
MODEL 7
REMARK VINA RESULT:     -12.4      2.710     13.514
REMARK  Name = 25171648
REMARK  8 active torsions:
REMARK  status: ('A' for Active; 'I' for Inactive)
REMARK    1  A    between atoms: C_1  and  C_12
REMARK    2  A    between atoms: C_2  and  C_23
REMARK    3  A    between atoms: C_9  and  O_13
REMARK    4  A    between atoms: O_13  and  C_14
REMARK    5  A    between atoms: C_14  and  C_16
REMARK    6  A    between atoms: C_23  and  N_25
REMARK    7  A    between atoms: C_27  and  C_31
REMARK    8  A    between atoms: C_34  and  C_38
REMARK                            x       y       z     vdW  Elec       q    Type
REMARK                         _______ _______ _______ _____ _____    ______ ____
ROOT
ATOM      1  C   UNL     1      33.691 -14.886 -22.537  0.00  0.00    +0.062 C 
ATOM      2  C   UNL     1      32.318 -12.931 -22.172  0.00  0.00    +0.000 C 
ATOM      3  C   UNL     1      32.695 -14.227 -21.816  0.00  0.00    +0.007 C 
ATOM      4  C   UNL     1      34.309 -14.249 -23.614  0.00  0.00    +0.010 C 
ATOM      5  C   UNL     1      32.937 -12.295 -23.248  0.00  0.00    -0.003 C 
ATOM      6  C   UNL     1      33.933 -12.954 -23.968  0.00  0.00    +0.000 C 
ENDROOT
BRANCH   1  12
ATOM      7  N   UNL     1      35.207 -16.696 -22.733  0.00  0.00    -0.212 NA
ATOM      8  N   UNL     1      33.277 -16.864 -21.300  0.00  0.00    -0.190 NA
ATOM      9  C   UNL     1      34.805 -18.715 -21.485  0.00  0.00    +0.161 C 
ATOM     10  C   UNL     1      35.541 -17.951 -22.367  0.00  0.00    +0.201 C 
ATOM     11  C   UNL     1      33.671 -18.114 -20.978  0.00  0.00    +0.144 C 
ATOM     12  C   UNL     1      34.080 -16.222 -22.171  0.00  0.00    +0.031 C 
BRANCH   9  13
ATOM     13  O   UNL     1      35.176 -19.990 -21.135  0.00  0.00    -0.476 OA
BRANCH  13  14
ATOM     14  C   UNL     1      36.313 -20.123 -20.303  0.00  0.00    +0.205 C 
BRANCH  14  16
ATOM     15  N   UNL     1      35.071 -22.501 -16.917  0.00  0.00    +0.386 N 
ATOM     16  C   UNL     1      36.114 -21.335 -19.398  0.00  0.00    +0.040 C 
ATOM     17  C   UNL     1      34.623 -21.626 -19.188  0.00  0.00    -0.019 C 
ATOM     18  C   UNL     1      36.796 -21.129 -18.041  0.00  0.00    -0.019 C 
ATOM     19  C   UNL     1      34.414 -22.778 -18.202  0.00  0.00    -0.077 C 
ATOM     20  C   UNL     1      36.516 -22.297 -17.094  0.00  0.00    -0.077 C 
ATOM     21  C   UNL     1      34.819 -23.587 -15.970  0.00  0.00    -0.101 C 
ATOM     22  H   UNL     1      34.675 -21.640 -16.541  0.00  0.00    -0.080 HD
ENDBRANCH  14  16
ENDBRANCH  13  14
ENDBRANCH   9  13
ENDBRANCH   1  12
BRANCH   2  23
ATOM     23  C   UNL     1      31.253 -12.226 -21.402  0.00  0.00    +0.146 C 
BRANCH  23  25
ATOM     24  O   UNL     1      31.372 -11.297 -18.693  0.00  0.00    -0.268 OA
ATOM     25  N   UNL     1      31.671 -10.904 -20.964  0.00  0.00    -0.173 N 
ATOM     26  N   UNL     1      32.022 -10.053 -21.972  0.00  0.00    -0.175 NA
ATOM     27  C   UNL     1      32.399  -8.855 -21.658  0.00  0.00    +0.099 C 
ATOM     28  C   UNL     1      31.694 -10.556 -19.621  0.00  0.00    +0.268 C 
ATOM     29  C   UNL     1      32.500  -8.346 -20.277  0.00  0.00    +0.025 C 
ATOM     30  C   UNL     1      32.152  -9.187 -19.305  0.00  0.00    +0.061 C 
BRANCH  27  31
ATOM     31  C   UNL     1      32.779  -7.916 -22.747  0.00  0.00    +0.020 C 
ATOM     32  C   UNL     1      31.890  -6.921 -23.154  0.00  0.00    +0.012 C 
ATOM     33  C   UNL     1      34.027  -8.029 -23.360  0.00  0.00    +0.002 C 
ATOM     34  C   UNL     1      32.249  -6.041 -24.175  0.00  0.00    +0.068 C 
ATOM     35  C   UNL     1      34.386  -7.149 -24.382  0.00  0.00    +0.001 C 
ATOM     36  C   UNL     1      33.497  -6.155 -24.789  0.00  0.00    +0.010 C 
BRANCH  34  38
ATOM     37  N   UNL     1      30.598  -4.196 -24.933  0.00  0.00    -0.191 NA
ATOM     38  C   UNL     1      31.337  -5.023 -24.594  0.00  0.00    +0.100 C 
ENDBRANCH  34  38
ENDBRANCH  27  31
ENDBRANCH  23  25
ENDBRANCH   2  23
TORSDOF 8
ENDMDL
MODEL 8
REMARK VINA RESULT:     -12.0      3.339     14.575
REMARK  Name = 25171648
REMARK  8 active torsions:
REMARK  status: ('A' for Active; 'I' for Inactive)
REMARK    1  A    between atoms: C_1  and  C_12
REMARK    2  A    between atoms: C_2  and  C_23
REMARK    3  A    between atoms: C_9  and  O_13
REMARK    4  A    between atoms: O_13  and  C_14
REMARK    5  A    between atoms: C_14  and  C_16
REMARK    6  A    between atoms: C_23  and  N_25
REMARK    7  A    between atoms: C_27  and  C_31
REMARK    8  A    between atoms: C_34  and  C_38
REMARK                            x       y       z     vdW  Elec       q    Type
REMARK                         _______ _______ _______ _____ _____    ______ ____
ROOT
ATOM      1  C   UNL     1      33.016 -13.675 -21.726  0.00  0.00    +0.062 C 
ATOM      2  C   UNL     1      32.260 -11.676 -22.854  0.00  0.00    +0.000 C 
ATOM      3  C   UNL     1      32.980 -12.871 -22.866  0.00  0.00    +0.007 C 
ATOM      4  C   UNL     1      32.332 -13.283 -20.576  0.00  0.00    +0.010 C 
ATOM      5  C   UNL     1      31.576 -11.285 -21.704  0.00  0.00    -0.003 C 
ATOM      6  C   UNL     1      31.611 -12.089 -20.565  0.00  0.00    +0.000 C 
ENDROOT
BRANCH   1  12
ATOM      7  N   UNL     1      33.891 -15.518 -22.931  0.00  0.00    -0.212 NA
ATOM      8  N   UNL     1      34.248 -15.327 -20.555  0.00  0.00    -0.190 NA
ATOM      9  C   UNL     1      35.145 -17.207 -21.760  0.00  0.00    +0.161 C 
ATOM     10  C   UNL     1      34.593 -16.670 -22.905  0.00  0.00    +0.201 C 
ATOM     11  C   UNL     1      34.939 -16.484 -20.603  0.00  0.00    +0.144 C 
ATOM     12  C   UNL     1      33.759 -14.908 -21.739  0.00  0.00    +0.031 C 
BRANCH   9  13
ATOM     13  O   UNL     1      35.854 -18.383 -21.772  0.00  0.00    -0.476 OA
BRANCH  13  14
ATOM     14  C   UNL     1      35.119 -19.577 -21.959  0.00  0.00    +0.205 C 
BRANCH  14  16
ATOM     15  N   UNL     1      33.874 -22.399 -18.935  0.00  0.00    +0.386 N 
ATOM     16  C   UNL     1      34.759 -20.146 -20.589  0.00  0.00    +0.040 C 
ATOM     17  C   UNL     1      35.688 -21.306 -20.214  0.00  0.00    -0.019 C 
ATOM     18  C   UNL     1      33.302 -20.617 -20.553  0.00  0.00    -0.019 C 
ATOM     19  C   UNL     1      35.272 -21.947 -18.889  0.00  0.00    -0.077 C 
ATOM     20  C   UNL     1      32.964 -21.280 -19.216  0.00  0.00    -0.077 C 
ATOM     21  C   UNL     1      33.508 -23.055 -17.679  0.00  0.00    -0.101 C 
ATOM     22  H   UNL     1      33.788 -23.074 -19.694  0.00  0.00    -0.080 HD
ENDBRANCH  14  16
ENDBRANCH  13  14
ENDBRANCH   9  13
ENDBRANCH   1  12
BRANCH   2  23
ATOM     23  C   UNL     1      32.222 -10.816 -24.073  0.00  0.00    +0.146 C 
BRANCH  23  25
ATOM     24  O   UNL     1      35.061 -10.503 -24.306  0.00  0.00    -0.268 OA
ATOM     25  N   UNL     1      32.967  -9.580 -23.900  0.00  0.00    -0.173 N 
ATOM     26  N   UNL     1      32.205  -8.491 -23.588  0.00  0.00    -0.175 NA
ATOM     27  C   UNL     1      32.801  -7.356 -23.412  0.00  0.00    +0.099 C 
ATOM     28  C   UNL     1      34.347  -9.537 -24.037  0.00  0.00    +0.268 C 
ATOM     29  C   UNL     1      34.255  -7.147 -23.548  0.00  0.00    +0.025 C 
ATOM     30  C   UNL     1      34.986  -8.218 -23.850  0.00  0.00    +0.061 C 
BRANCH  27  31
ATOM     31  C   UNL     1      31.982  -6.163 -23.066  0.00  0.00    +0.020 C 
ATOM     32  C   UNL     1      31.972  -5.055 -23.913  0.00  0.00    +0.012 C 
ATOM     33  C   UNL     1      31.224  -6.154 -21.895  0.00  0.00    +0.002 C 
ATOM     34  C   UNL     1      31.203  -3.937 -23.588  0.00  0.00    +0.068 C 
ATOM     35  C   UNL     1      30.455  -5.036 -21.571  0.00  0.00    +0.001 C 
ATOM     36  C   UNL     1      30.444  -3.928 -22.417  0.00  0.00    +0.010 C 
BRANCH  34  38
ATOM     37  N   UNL     1      31.183  -1.878 -25.159  0.00  0.00    -0.191 NA
ATOM     38  C   UNL     1      31.192  -2.801 -24.455  0.00  0.00    +0.100 C 
ENDBRANCH  34  38
ENDBRANCH  27  31
ENDBRANCH  23  25
ENDBRANCH   2  23
TORSDOF 8
ENDMDL
MODEL 9
REMARK VINA RESULT:     -11.9      2.040     12.707
REMARK  Name = 25171648
REMARK  8 active torsions:
REMARK  status: ('A' for Active; 'I' for Inactive)
REMARK    1  A    between atoms: C_1  and  C_12
REMARK    2  A    between atoms: C_2  and  C_23
REMARK    3  A    between atoms: C_9  and  O_13
REMARK    4  A    between atoms: O_13  and  C_14
REMARK    5  A    between atoms: C_14  and  C_16
REMARK    6  A    between atoms: C_23  and  N_25
REMARK    7  A    between atoms: C_27  and  C_31
REMARK    8  A    between atoms: C_34  and  C_38
REMARK                            x       y       z     vdW  Elec       q    Type
REMARK                         _______ _______ _______ _____ _____    ______ ____
ROOT
ATOM      1  C   UNL     1      34.803 -18.342 -21.693  0.00  0.00    +0.062 C 
ATOM      2  C   UNL     1      34.063 -16.179 -22.477  0.00  0.00    +0.000 C 
ATOM      3  C   UNL     1      33.853 -17.320 -21.701  0.00  0.00    +0.007 C 
ATOM      4  C   UNL     1      35.962 -18.222 -22.461  0.00  0.00    +0.010 C 
ATOM      5  C   UNL     1      35.222 -16.061 -23.244  0.00  0.00    -0.003 C 
ATOM      6  C   UNL     1      36.171 -17.082 -23.235  0.00  0.00    +0.000 C 
ENDROOT
BRANCH   1  12
ATOM      7  N   UNL     1      35.687 -20.162 -20.461  0.00  0.00    -0.212 NA
ATOM      8  N   UNL     1      33.305 -19.858 -20.657  0.00  0.00    -0.190 NA
ATOM      9  C   UNL     1      34.183 -21.714 -19.400  0.00  0.00    +0.161 C 
ATOM     10  C   UNL     1      35.448 -21.260 -19.714  0.00  0.00    +0.201 C 
ATOM     11  C   UNL     1      33.138 -20.965 -19.904  0.00  0.00    +0.144 C 
ATOM     12  C   UNL     1      34.587 -19.519 -20.893  0.00  0.00    +0.031 C 
BRANCH   9  13
ATOM     13  O   UNL     1      33.976 -22.836 -18.636  0.00  0.00    -0.476 OA
BRANCH  13  14
ATOM     14  C   UNL     1      33.008 -22.746 -17.608  0.00  0.00    +0.205 C 
BRANCH  14  16
ATOM     15  N   UNL     1      34.538 -23.469 -13.634  0.00  0.00    +0.386 N 
ATOM     16  C   UNL     1      33.525 -23.498 -16.386  0.00  0.00    +0.040 C 
ATOM     17  C   UNL     1      32.612 -23.273 -15.175  0.00  0.00    -0.019 C 
ATOM     18  C   UNL     1      34.956 -23.073 -16.041  0.00  0.00    -0.019 C 
ATOM     19  C   UNL     1      33.176 -23.942 -13.920  0.00  0.00    -0.077 C 
ATOM     20  C   UNL     1      35.443 -23.749 -14.757  0.00  0.00    -0.077 C 
ATOM     21  C   UNL     1      35.044 -24.078 -12.404  0.00  0.00    -0.101 C 
ATOM     22  H   UNL     1      34.499 -22.458 -13.507  0.00  0.00    -0.080 HD
ENDBRANCH  14  16
ENDBRANCH  13  14
ENDBRANCH   9  13
ENDBRANCH   1  12
BRANCH   2  23
ATOM     23  C   UNL     1      33.048 -15.086 -22.486  0.00  0.00    +0.146 C 
BRANCH  23  25
ATOM     24  O   UNL     1      33.010 -15.832 -25.253  0.00  0.00    -0.268 OA
ATOM     25  N   UNL     1      33.211 -14.191 -23.619  0.00  0.00    -0.173 N 
ATOM     26  N   UNL     1      33.408 -12.880 -23.290  0.00  0.00    -0.175 NA
ATOM     27  C   UNL     1      33.568 -12.025 -24.248  0.00  0.00    +0.099 C 
ATOM     28  C   UNL     1      33.174 -14.657 -24.925  0.00  0.00    +0.268 C 
ATOM     29  C   UNL     1      33.529 -12.362 -25.683  0.00  0.00    +0.025 C 
ATOM     30  C   UNL     1      33.338 -13.644 -25.989  0.00  0.00    +0.061 C 
BRANCH  27  31
ATOM     31  C   UNL     1      33.788 -10.596 -23.901  0.00  0.00    +0.020 C 
ATOM     32  C   UNL     1      32.978  -9.975 -22.952  0.00  0.00    +0.012 C 
ATOM     33  C   UNL     1      34.808  -9.877 -24.526  0.00  0.00    +0.002 C 
ATOM     34  C   UNL     1      33.186  -8.634 -22.627  0.00  0.00    +0.068 C 
ATOM     35  C   UNL     1      35.016  -8.536 -24.202  0.00  0.00    +0.001 C 
ATOM     36  C   UNL     1      34.205  -7.914 -23.252  0.00  0.00    +0.010 C 
BRANCH  34  38
ATOM     37  N   UNL     1      31.680  -7.478 -20.865  0.00  0.00    -0.191 NA
ATOM     38  C   UNL     1      32.355  -7.996 -21.655  0.00  0.00    +0.100 C 
ENDBRANCH  34  38
ENDBRANCH  27  31
ENDBRANCH  23  25
ENDBRANCH   2  23
TORSDOF 8
ENDMDL
