MODEL 1
REMARK VINA RESULT:     -10.9      0.000      0.000
REMARK  Name = 3033538
REMARK  4 active torsions:
REMARK  status: ('A' for Active; 'I' for Inactive)
REMARK    1  A    between atoms: N_1  and  C_15
REMARK    2  A    between atoms: N_2  and  C_8
REMARK    3  A    between atoms: C_15  and  C_16
REMARK    4  A    between atoms: C_16  and  C_21
REMARK                            x       y       z     vdW  Elec       q    Type
REMARK                         _______ _______ _______ _____ _____    ______ ____
ROOT
ATOM      1  N   UNL     1      35.256 -16.457 -23.291  0.00  0.00    +0.390 N 
ATOM      2  N   UNL     1      35.076 -18.734 -21.575  0.00  0.00    -0.312 N 
ATOM      3  C   UNL     1      34.907 -17.774 -23.838  0.00  0.00    -0.055 C 
ATOM      4  C   UNL     1      34.717 -16.322 -21.932  0.00  0.00    -0.055 C 
ATOM      5  C   UNL     1      35.483 -18.898 -22.974  0.00  0.00    +0.068 C 
ATOM      6  C   UNL     1      35.288 -17.397 -21.005  0.00  0.00    +0.068 C 
ATOM      7  H   UNL     1      36.272 -16.375 -23.252  0.00  0.00    -0.080 HD
ENDROOT
BRANCH   2   8
ATOM      8  C   UNL     1      35.111 -19.831 -20.708  0.00  0.00    +0.044 C 
ATOM      9  C   UNL     1      33.933 -20.473 -20.273  0.00  0.00    -0.009 C 
ATOM     10  C   UNL     1      36.344 -20.331 -20.243  0.00  0.00    +0.014 C 
ATOM     11  C   UNL     1      33.987 -21.566 -19.407  0.00  0.00    -0.003 C 
ATOM     12  C   UNL     1      32.598 -19.985 -20.735  0.00  0.00    +0.032 C 
ATOM     13  C   UNL     1      36.399 -21.424 -19.378  0.00  0.00    +0.001 C 
ATOM     14  C   UNL     1      35.220 -22.041 -18.961  0.00  0.00    -0.000 C 
ENDBRANCH   2   8
BRANCH   1  15
ATOM     15  C   UNL     1      34.746 -15.391 -24.154  0.00  0.00    -0.069 C 
BRANCH  15  16
ATOM     16  C   UNL     1      33.415 -14.849 -23.629  0.00  0.00    +0.043 C 
BRANCH  16  21
ATOM     17  N   UNL     1      32.721 -12.576 -22.834  0.00  0.00    -0.302 N 
ATOM     18  N   UNL     1      33.880 -12.619 -24.676  0.00  0.00    -0.134 NA
ATOM     19  N   UNL     1      33.573 -11.301 -24.387  0.00  0.00    -0.134 NA
ATOM     20  C   UNL     1      31.969 -12.974 -21.665  0.00  0.00    +0.108 C 
ATOM     21  C   UNL     1      33.357 -13.368 -23.731  0.00  0.00    +0.141 A 
ATOM     22  C   UNL     1      31.697 -11.794 -20.729  0.00  0.00    +0.025 C 
ATOM     23  C   UNL     1      31.254 -10.559 -21.518  0.00  0.00    +0.010 C 
ATOM     24  C   UNL     1      32.329 -10.130 -22.521  0.00  0.00    +0.066 C 
ATOM     25  C   UNL     1      32.870 -11.291 -23.273  0.00  0.00    +0.143 A 
ENDBRANCH  16  21
ENDBRANCH  15  16
ENDBRANCH   1  15
TORSDOF 4
ENDMDL
MODEL 2
REMARK VINA RESULT:     -10.5      3.783      9.590
REMARK  Name = 3033538
REMARK  4 active torsions:
REMARK  status: ('A' for Active; 'I' for Inactive)
REMARK    1  A    between atoms: N_1  and  C_15
REMARK    2  A    between atoms: N_2  and  C_8
REMARK    3  A    between atoms: C_15  and  C_16
REMARK    4  A    between atoms: C_16  and  C_21
REMARK                            x       y       z     vdW  Elec       q    Type
REMARK                         _______ _______ _______ _____ _____    ______ ____
ROOT
ATOM      1  N   UNL     1      35.048 -20.765 -19.570  0.00  0.00    +0.390 N 
ATOM      2  N   UNL     1      34.855 -18.883 -21.710  0.00  0.00    -0.312 N 
ATOM      3  C   UNL     1      33.827 -20.684 -20.379  0.00  0.00    -0.055 C 
ATOM      4  C   UNL     1      36.220 -20.464 -20.401  0.00  0.00    -0.055 C 
ATOM      5  C   UNL     1      33.652 -19.284 -20.973  0.00  0.00    +0.068 C 
ATOM      6  C   UNL     1      36.125 -19.057 -20.994  0.00  0.00    +0.068 C 
ATOM      7  H   UNL     1      34.992 -20.077 -18.818  0.00  0.00    -0.080 HD
ENDROOT
BRANCH   2   8
ATOM      8  C   UNL     1      34.775 -17.871 -22.672  0.00  0.00    +0.044 C 
ATOM      9  C   UNL     1      34.756 -18.156 -24.053  0.00  0.00    -0.009 C 
ATOM     10  C   UNL     1      34.709 -16.519 -22.277  0.00  0.00    +0.014 C 
ATOM     11  C   UNL     1      34.676 -17.132 -24.998  0.00  0.00    -0.003 C 
ATOM     12  C   UNL     1      34.823 -19.571 -24.527  0.00  0.00    +0.032 C 
ATOM     13  C   UNL     1      34.628 -15.495 -23.221  0.00  0.00    +0.001 C 
ATOM     14  C   UNL     1      34.612 -15.803 -24.581  0.00  0.00    -0.000 C 
ENDBRANCH   2   8
BRANCH   1  15
ATOM     15  C   UNL     1      35.175 -22.091 -18.964  0.00  0.00    -0.069 C 
BRANCH  15  16
ATOM     16  C   UNL     1      33.812 -22.627 -18.525  0.00  0.00    +0.043 C 
BRANCH  16  21
ATOM     17  N   UNL     1      32.762 -23.247 -16.335  0.00  0.00    -0.302 N 
ATOM     18  N   UNL     1      34.917 -23.527 -16.461  0.00  0.00    -0.134 NA
ATOM     19  N   UNL     1      34.504 -23.904 -15.196  0.00  0.00    -0.134 NA
ATOM     20  C   UNL     1      31.395 -22.885 -16.637  0.00  0.00    +0.108 C 
ATOM     21  C   UNL     1      33.855 -23.134 -17.129  0.00  0.00    +0.141 A 
ATOM     22  C   UNL     1      30.408 -23.473 -15.626  0.00  0.00    +0.025 C 
ATOM     23  C   UNL     1      30.926 -23.307 -14.195  0.00  0.00    +0.010 C 
ATOM     24  C   UNL     1      32.272 -24.014 -14.009  0.00  0.00    +0.066 C 
ATOM     25  C   UNL     1      33.200 -23.727 -15.133  0.00  0.00    +0.143 A 
ENDBRANCH  16  21
ENDBRANCH  15  16
ENDBRANCH   1  15
TORSDOF 4
ENDMDL
MODEL 3
REMARK VINA RESULT:     -10.5      2.236      9.661
REMARK  Name = 3033538
REMARK  4 active torsions:
REMARK  status: ('A' for Active; 'I' for Inactive)
REMARK    1  A    between atoms: N_1  and  C_15
REMARK    2  A    between atoms: N_2  and  C_8
REMARK    3  A    between atoms: C_15  and  C_16
REMARK    4  A    between atoms: C_16  and  C_21
REMARK                            x       y       z     vdW  Elec       q    Type
REMARK                         _______ _______ _______ _____ _____    ______ ____
ROOT
ATOM      1  N   UNL     1      32.063 -12.572 -22.759  0.00  0.00    +0.390 N 
ATOM      2  N   UNL     1      31.957  -9.719 -22.652  0.00  0.00    -0.312 N 
ATOM      3  C   UNL     1      33.194 -11.768 -23.238  0.00  0.00    -0.055 C 
ATOM      4  C   UNL     1      31.412 -11.895 -21.631  0.00  0.00    -0.055 C 
ATOM      5  C   UNL     1      32.728 -10.387 -23.706  0.00  0.00    +0.068 C 
ATOM      6  C   UNL     1      30.886 -10.519 -22.045  0.00  0.00    +0.068 C 
ATOM      7  H   UNL     1      31.387 -12.674 -23.516  0.00  0.00    -0.080 HD
ENDROOT
BRANCH   2   8
ATOM      8  C   UNL     1      31.806  -8.329 -22.677  0.00  0.00    +0.044 C 
ATOM      9  C   UNL     1      32.139  -7.523 -21.568  0.00  0.00    -0.009 C 
ATOM     10  C   UNL     1      31.310  -7.689 -23.831  0.00  0.00    +0.014 C 
ATOM     11  C   UNL     1      31.981  -6.138 -21.612  0.00  0.00    -0.003 C 
ATOM     12  C   UNL     1      32.670  -8.149 -20.319  0.00  0.00    +0.032 C 
ATOM     13  C   UNL     1      31.153  -6.303 -23.875  0.00  0.00    +0.001 C 
ATOM     14  C   UNL     1      31.488  -5.529 -22.765  0.00  0.00    -0.000 C 
ENDBRANCH   2   8
BRANCH   1  15
ATOM     15  C   UNL     1      32.513 -13.907 -22.366  0.00  0.00    -0.069 C 
BRANCH  15  16
ATOM     16  C   UNL     1      34.037 -14.016 -22.435  0.00  0.00    +0.043 C 
BRANCH  16  21
ATOM     17  N   UNL     1      34.677 -16.436 -22.558  0.00  0.00    -0.302 N 
ATOM     18  N   UNL     1      34.832 -15.517 -20.590  0.00  0.00    -0.134 NA
ATOM     19  N   UNL     1      35.209 -16.843 -20.480  0.00  0.00    -0.134 NA
ATOM     20  C   UNL     1      34.403 -16.665 -23.958  0.00  0.00    +0.108 C 
ATOM     21  C   UNL     1      34.515 -15.294 -21.847  0.00  0.00    +0.141 A 
ATOM     22  C   UNL     1      35.030 -17.967 -24.461  0.00  0.00    +0.025 C 
ATOM     23  C   UNL     1      34.806 -19.105 -23.460  0.00  0.00    +0.010 C 
ATOM     24  C   UNL     1      35.429 -18.774 -22.100  0.00  0.00    +0.066 C 
ATOM     25  C   UNL     1      35.108 -17.387 -21.676  0.00  0.00    +0.143 A 
ENDBRANCH  16  21
ENDBRANCH  15  16
ENDBRANCH   1  15
TORSDOF 4
ENDMDL
MODEL 4
REMARK VINA RESULT:     -10.5      1.552      2.430
REMARK  Name = 3033538
REMARK  4 active torsions:
REMARK  status: ('A' for Active; 'I' for Inactive)
REMARK    1  A    between atoms: N_1  and  C_15
REMARK    2  A    between atoms: N_2  and  C_8
REMARK    3  A    between atoms: C_15  and  C_16
REMARK    4  A    between atoms: C_16  and  C_21
REMARK                            x       y       z     vdW  Elec       q    Type
REMARK                         _______ _______ _______ _____ _____    ______ ____
ROOT
ATOM      1  N   UNL     1      34.020 -15.137 -23.124  0.00  0.00    +0.390 N 
ATOM      2  N   UNL     1      34.700 -17.599 -21.843  0.00  0.00    -0.312 N 
ATOM      3  C   UNL     1      34.165 -16.368 -23.909  0.00  0.00    -0.055 C 
ATOM      4  C   UNL     1      33.486 -15.454 -21.793  0.00  0.00    -0.055 C 
ATOM      5  C   UNL     1      35.121 -17.348 -23.225  0.00  0.00    +0.068 C 
ATOM      6  C   UNL     1      34.420 -16.402 -21.038  0.00  0.00    +0.068 C 
ATOM      7  H   UNL     1      34.938 -14.705 -23.016  0.00  0.00    -0.080 HD
ENDROOT
BRANCH   2   8
ATOM      8  C   UNL     1      35.141 -18.749 -21.180  0.00  0.00    +0.044 C 
ATOM      9  C   UNL     1      34.242 -19.733 -20.718  0.00  0.00    -0.009 C 
ATOM     10  C   UNL     1      36.517 -18.956 -20.956  0.00  0.00    +0.014 C 
ATOM     11  C   UNL     1      34.700 -20.873 -20.058  0.00  0.00    -0.003 C 
ATOM     12  C   UNL     1      32.772 -19.564 -20.930  0.00  0.00    +0.032 C 
ATOM     13  C   UNL     1      36.976 -20.097 -20.297  0.00  0.00    +0.001 C 
ATOM     14  C   UNL     1      36.067 -21.055 -19.848  0.00  0.00    -0.000 C 
ENDBRANCH   2   8
BRANCH   1  15
ATOM     15  C   UNL     1      33.147 -14.187 -23.814  0.00  0.00    -0.069 C 
BRANCH  15  16
ATOM     16  C   UNL     1      33.870 -12.864 -24.069  0.00  0.00    +0.043 C 
BRANCH  16  21
ATOM     17  N   UNL     1      33.574 -10.440 -23.505  0.00  0.00    -0.302 N 
ATOM     18  N   UNL     1      32.104 -11.796 -22.645  0.00  0.00    -0.134 NA
ATOM     19  N   UNL     1      31.803 -10.510 -22.230  0.00  0.00    -0.134 NA
ATOM     20  C   UNL     1      34.726  -9.911 -24.200  0.00  0.00    +0.108 C 
ATOM     21  C   UNL     1      33.172 -11.730 -23.408  0.00  0.00    +0.141 A 
ATOM     22  C   UNL     1      34.650  -8.391 -24.363  0.00  0.00    +0.025 C 
ATOM     23  C   UNL     1      34.190  -7.723 -23.064  0.00  0.00    +0.010 C 
ATOM     24  C   UNL     1      32.804  -8.224 -22.647  0.00  0.00    +0.066 C 
ATOM     25  C   UNL     1      32.701  -9.702 -22.755  0.00  0.00    +0.143 A 
ENDBRANCH  16  21
ENDBRANCH  15  16
ENDBRANCH   1  15
TORSDOF 4
ENDMDL
MODEL 5
REMARK VINA RESULT:     -10.5      3.945      9.716
REMARK  Name = 3033538
REMARK  4 active torsions:
REMARK  status: ('A' for Active; 'I' for Inactive)
REMARK    1  A    between atoms: N_1  and  C_15
REMARK    2  A    between atoms: N_2  and  C_8
REMARK    3  A    between atoms: C_15  and  C_16
REMARK    4  A    between atoms: C_16  and  C_21
REMARK                            x       y       z     vdW  Elec       q    Type
REMARK                         _______ _______ _______ _____ _____    ______ ____
ROOT
ATOM      1  N   UNL     1      34.310 -21.297 -19.558  0.00  0.00    +0.390 N 
ATOM      2  N   UNL     1      34.482 -19.073 -21.342  0.00  0.00    -0.312 N 
ATOM      3  C   UNL     1      33.148 -20.897 -20.360  0.00  0.00    -0.055 C 
ATOM      4  C   UNL     1      35.546 -21.040 -20.306  0.00  0.00    -0.055 C 
ATOM      5  C   UNL     1      33.204 -19.406 -20.704  0.00  0.00    +0.068 C 
ATOM      6  C   UNL     1      35.683 -19.554 -20.647  0.00  0.00    +0.068 C 
ATOM      7  H   UNL     1      34.324 -20.746 -18.699  0.00  0.00    -0.080 HD
ENDROOT
BRANCH   2   8
ATOM      8  C   UNL     1      34.590 -17.911 -22.114  0.00  0.00    +0.044 C 
ATOM      9  C   UNL     1      34.781 -17.961 -23.511  0.00  0.00    -0.009 C 
ATOM     10  C   UNL     1      34.509 -16.643 -21.505  0.00  0.00    +0.014 C 
ATOM     11  C   UNL     1      34.887 -16.792 -24.264  0.00  0.00    -0.003 C 
ATOM     12  C   UNL     1      34.873 -19.280 -24.208  0.00  0.00    +0.032 C 
ATOM     13  C   UNL     1      34.615 -15.473 -22.258  0.00  0.00    +0.001 C 
ATOM     14  C   UNL     1      34.804 -15.549 -23.638  0.00  0.00    -0.000 C 
ENDBRANCH   2   8
BRANCH   1  15
ATOM     15  C   UNL     1      34.217 -22.710 -19.190  0.00  0.00    -0.069 C 
BRANCH  15  16
ATOM     16  C   UNL     1      34.253 -22.885 -17.671  0.00  0.00    +0.043 C 
BRANCH  16  21
ATOM     17  N   UNL     1      32.597 -23.506 -15.895  0.00  0.00    -0.302 N 
ATOM     18  N   UNL     1      31.771 -22.536 -17.660  0.00  0.00    -0.134 NA
ATOM     19  N   UNL     1      30.730 -22.817 -16.793  0.00  0.00    -0.134 NA
ATOM     20  C   UNL     1      33.503 -24.137 -14.962  0.00  0.00    +0.108 C 
ATOM     21  C   UNL     1      32.883 -22.959 -17.102  0.00  0.00    +0.141 A 
ATOM     22  C   UNL     1      32.869 -24.319 -13.581  0.00  0.00    +0.025 C 
ATOM     23  C   UNL     1      31.435 -24.843 -13.701  0.00  0.00    +0.010 C 
ATOM     24  C   UNL     1      30.558 -23.874 -14.500  0.00  0.00    +0.066 C 
ATOM     25  C   UNL     1      31.244 -23.406 -15.732  0.00  0.00    +0.143 A 
ENDBRANCH  16  21
ENDBRANCH  15  16
ENDBRANCH   1  15
TORSDOF 4
ENDMDL
MODEL 6
REMARK VINA RESULT:     -10.5      2.367      9.569
REMARK  Name = 3033538
REMARK  4 active torsions:
REMARK  status: ('A' for Active; 'I' for Inactive)
REMARK    1  A    between atoms: N_1  and  C_15
REMARK    2  A    between atoms: N_2  and  C_8
REMARK    3  A    between atoms: C_15  and  C_16
REMARK    4  A    between atoms: C_16  and  C_21
REMARK                            x       y       z     vdW  Elec       q    Type
REMARK                         _______ _______ _______ _____ _____    ______ ____
ROOT
ATOM      1  N   UNL     1      32.280 -12.518 -22.904  0.00  0.00    +0.390 N 
ATOM      2  N   UNL     1      32.051  -9.676 -22.736  0.00  0.00    -0.312 N 
ATOM      3  C   UNL     1      33.383 -11.657 -23.345  0.00  0.00    -0.055 C 
ATOM      4  C   UNL     1      31.582 -11.895 -21.773  0.00  0.00    -0.055 C 
ATOM      5  C   UNL     1      32.867 -10.287 -23.790  0.00  0.00    +0.068 C 
ATOM      6  C   UNL     1      31.004 -10.534 -22.166  0.00  0.00    +0.068 C 
ATOM      7  H   UNL     1      31.622 -12.632 -23.675  0.00  0.00    -0.080 HD
ENDROOT
BRANCH   2   8
ATOM      8  C   UNL     1      31.842  -8.293 -22.734  0.00  0.00    +0.044 C 
ATOM      9  C   UNL     1      32.131  -7.498 -21.605  0.00  0.00    -0.009 C 
ATOM     10  C   UNL     1      31.329  -7.650 -23.878  0.00  0.00    +0.014 C 
ATOM     11  C   UNL     1      31.914  -6.120 -21.621  0.00  0.00    -0.003 C 
ATOM     12  C   UNL     1      32.677  -8.128 -20.365  0.00  0.00    +0.032 C 
ATOM     13  C   UNL     1      31.113  -6.271 -23.895  0.00  0.00    +0.001 C 
ATOM     14  C   UNL     1      31.406  -5.507 -22.766  0.00  0.00    -0.000 C 
ENDBRANCH   2   8
BRANCH   1  15
ATOM     15  C   UNL     1      32.779 -13.842 -22.533  0.00  0.00    -0.069 C 
BRANCH  15  16
ATOM     16  C   UNL     1      34.142 -14.115 -23.172  0.00  0.00    +0.043 C 
BRANCH  16  21
ATOM     17  N   UNL     1      34.350 -16.532 -23.798  0.00  0.00    -0.302 N 
ATOM     18  N   UNL     1      33.756 -15.188 -25.405  0.00  0.00    -0.134 NA
ATOM     19  N   UNL     1      33.833 -16.471 -25.919  0.00  0.00    -0.134 NA
ATOM     20  C   UNL     1      34.787 -17.053 -22.522  0.00  0.00    +0.108 C 
ATOM     21  C   UNL     1      34.072 -15.248 -24.130  0.00  0.00    +0.141 A 
ATOM     22  C   UNL     1      34.665 -18.576 -22.452  0.00  0.00    +0.025 C 
ATOM     23  C   UNL     1      35.179 -19.227 -23.739  0.00  0.00    +0.010 C 
ATOM     24  C   UNL     1      34.384 -18.745 -24.957  0.00  0.00    +0.066 C 
ATOM     25  C   UNL     1      34.195 -17.272 -24.938  0.00  0.00    +0.143 A 
ENDBRANCH  16  21
ENDBRANCH  15  16
ENDBRANCH   1  15
TORSDOF 4
ENDMDL
MODEL 7
REMARK VINA RESULT:     -10.4      3.910      9.654
REMARK  Name = 3033538
REMARK  4 active torsions:
REMARK  status: ('A' for Active; 'I' for Inactive)
REMARK    1  A    between atoms: N_1  and  C_15
REMARK    2  A    between atoms: N_2  and  C_8
REMARK    3  A    between atoms: C_15  and  C_16
REMARK    4  A    between atoms: C_16  and  C_21
REMARK                            x       y       z     vdW  Elec       q    Type
REMARK                         _______ _______ _______ _____ _____    ______ ____
ROOT
ATOM      1  N   UNL     1      35.040 -20.864 -19.432  0.00  0.00    +0.390 N 
ATOM      2  N   UNL     1      34.828 -19.196 -21.741  0.00  0.00    -0.312 N 
ATOM      3  C   UNL     1      33.812 -20.861 -20.235  0.00  0.00    -0.055 C 
ATOM      4  C   UNL     1      36.205 -20.644 -20.298  0.00  0.00    -0.055 C 
ATOM      5  C   UNL     1      33.632 -19.524 -20.959  0.00  0.00    +0.068 C 
ATOM      6  C   UNL     1      36.105 -19.300 -21.022  0.00  0.00    +0.068 C 
ATOM      7  H   UNL     1      34.990 -20.107 -18.749  0.00  0.00    -0.080 HD
ENDROOT
BRANCH   2   8
ATOM      8  C   UNL     1      34.740 -18.280 -22.794  0.00  0.00    +0.044 C 
ATOM      9  C   UNL     1      34.721 -16.887 -22.570  0.00  0.00    -0.009 C 
ATOM     10  C   UNL     1      34.667 -18.734 -24.126  0.00  0.00    +0.014 C 
ATOM     11  C   UNL     1      34.631 -15.989 -23.633  0.00  0.00    -0.003 C 
ATOM     12  C   UNL     1      34.796 -16.351 -21.177  0.00  0.00    +0.032 C 
ATOM     13  C   UNL     1      34.578 -17.836 -25.190  0.00  0.00    +0.001 C 
ATOM     14  C   UNL     1      34.560 -16.463 -24.943  0.00  0.00    -0.000 C 
ENDBRANCH   2   8
BRANCH   1  15
ATOM     15  C   UNL     1      35.173 -22.126 -18.703  0.00  0.00    -0.069 C 
BRANCH  15  16
ATOM     16  C   UNL     1      33.801 -22.711 -18.362  0.00  0.00    +0.043 C 
BRANCH  16  21
ATOM     17  N   UNL     1      32.638 -23.313 -16.226  0.00  0.00    -0.302 N 
ATOM     18  N   UNL     1      34.785 -23.671 -16.265  0.00  0.00    -0.134 NA
ATOM     19  N   UNL     1      34.306 -24.045 -15.022  0.00  0.00    -0.134 NA
ATOM     20  C   UNL     1      31.299 -22.899 -16.581  0.00  0.00    +0.108 C 
ATOM     21  C   UNL     1      33.767 -23.233 -16.972  0.00  0.00    +0.141 A 
ATOM     22  C   UNL     1      30.250 -23.461 -15.619  0.00  0.00    +0.025 C 
ATOM     23  C   UNL     1      30.713 -23.327 -14.165  0.00  0.00    +0.010 C 
ATOM     24  C   UNL     1      32.023 -24.085 -13.931  0.00  0.00    +0.066 C 
ATOM     25  C   UNL     1      33.007 -23.821 -15.012  0.00  0.00    +0.143 A 
ENDBRANCH  16  21
ENDBRANCH  15  16
ENDBRANCH   1  15
TORSDOF 4
ENDMDL
MODEL 8
REMARK VINA RESULT:     -10.2      2.361      9.441
REMARK  Name = 3033538
REMARK  4 active torsions:
REMARK  status: ('A' for Active; 'I' for Inactive)
REMARK    1  A    between atoms: N_1  and  C_15
REMARK    2  A    between atoms: N_2  and  C_8
REMARK    3  A    between atoms: C_15  and  C_16
REMARK    4  A    between atoms: C_16  and  C_21
REMARK                            x       y       z     vdW  Elec       q    Type
REMARK                         _______ _______ _______ _____ _____    ______ ____
ROOT
ATOM      1  N   UNL     1      33.784 -11.865 -23.819  0.00  0.00    +0.390 N 
ATOM      2  N   UNL     1      32.705  -9.415 -22.821  0.00  0.00    -0.312 N 
ATOM      3  C   UNL     1      32.451 -11.835 -23.205  0.00  0.00    -0.055 C 
ATOM      4  C   UNL     1      34.039 -10.601 -24.521  0.00  0.00    -0.055 C 
ATOM      5  C   UNL     1      32.334 -10.689 -22.198  0.00  0.00    +0.068 C 
ATOM      6  C   UNL     1      33.976  -9.415 -23.557  0.00  0.00    +0.068 C 
ATOM      7  H   UNL     1      34.482 -11.980 -23.084  0.00  0.00    -0.080 HD
ENDROOT
BRANCH   2   8
ATOM      8  C   UNL     1      32.275  -8.212 -22.252  0.00  0.00    +0.044 C 
ATOM      9  C   UNL     1      31.418  -7.327 -22.941  0.00  0.00    -0.009 C 
ATOM     10  C   UNL     1      32.692  -7.849 -20.956  0.00  0.00    +0.014 C 
ATOM     11  C   UNL     1      31.000  -6.131 -22.357  0.00  0.00    -0.003 C 
ATOM     12  C   UNL     1      30.944  -7.662 -24.318  0.00  0.00    +0.032 C 
ATOM     13  C   UNL     1      32.273  -6.653 -20.371  0.00  0.00    +0.001 C 
ATOM     14  C   UNL     1      31.427  -5.795 -21.073  0.00  0.00    -0.000 C 
ENDBRANCH   2   8
BRANCH   1  15
ATOM     15  C   UNL     1      33.901 -12.996 -24.739  0.00  0.00    -0.069 C 
BRANCH  15  16
ATOM     16  C   UNL     1      33.115 -14.204 -24.226  0.00  0.00    +0.043 C 
BRANCH  16  21
ATOM     17  N   UNL     1      34.279 -16.367 -23.723  0.00  0.00    -0.302 N 
ATOM     18  N   UNL     1      33.969 -15.929 -25.833  0.00  0.00    -0.134 NA
ATOM     19  N   UNL     1      34.627 -17.143 -25.733  0.00  0.00    -0.134 NA
ATOM     20  C   UNL     1      34.326 -16.260 -22.282  0.00  0.00    +0.108 C 
ATOM     21  C   UNL     1      33.772 -15.480 -24.614  0.00  0.00    +0.141 A 
ATOM     22  C   UNL     1      34.660 -17.597 -21.618  0.00  0.00    +0.025 C 
ATOM     23  C   UNL     1      35.803 -18.304 -22.353  0.00  0.00    +0.010 C 
ATOM     24  C   UNL     1      35.433 -18.580 -23.813  0.00  0.00    +0.066 C 
ATOM     25  C   UNL     1      34.810 -17.393 -24.453  0.00  0.00    +0.143 A 
ENDBRANCH  16  21
ENDBRANCH  15  16
ENDBRANCH   1  15
TORSDOF 4
ENDMDL
MODEL 9
REMARK VINA RESULT:     -10.1      1.089      2.446
REMARK  Name = 3033538
REMARK  4 active torsions:
REMARK  status: ('A' for Active; 'I' for Inactive)
REMARK    1  A    between atoms: N_1  and  C_15
REMARK    2  A    between atoms: N_2  and  C_8
REMARK    3  A    between atoms: C_15  and  C_16
REMARK    4  A    between atoms: C_16  and  C_21
REMARK                            x       y       z     vdW  Elec       q    Type
REMARK                         _______ _______ _______ _____ _____    ______ ____
ROOT
ATOM      1  N   UNL     1      34.143 -15.952 -22.971  0.00  0.00    +0.390 N 
ATOM      2  N   UNL     1      34.444 -18.364 -21.470  0.00  0.00    -0.312 N 
ATOM      3  C   UNL     1      34.304 -15.905 -21.513  0.00  0.00    -0.055 C 
ATOM      4  C   UNL     1      34.908 -17.079 -23.521  0.00  0.00    -0.055 C 
ATOM      5  C   UNL     1      33.801 -17.196 -20.862  0.00  0.00    +0.068 C 
ATOM      6  C   UNL     1      34.424 -18.408 -22.938  0.00  0.00    +0.068 C 
ATOM      7  H   UNL     1      33.156 -16.086 -23.190  0.00  0.00    -0.080 HD
ENDROOT
BRANCH   2   8
ATOM      8  C   UNL     1      34.477 -19.579 -20.777  0.00  0.00    +0.044 C 
ATOM      9  C   UNL     1      35.691 -20.184 -20.391  0.00  0.00    -0.009 C 
ATOM     10  C   UNL     1      33.277 -20.238 -20.440  0.00  0.00    +0.014 C 
ATOM     11  C   UNL     1      35.704 -21.396 -19.701  0.00  0.00    -0.003 C 
ATOM     12  C   UNL     1      36.993 -19.528 -20.722  0.00  0.00    +0.032 C 
ATOM     13  C   UNL     1      33.289 -21.449 -19.749  0.00  0.00    +0.001 C 
ATOM     14  C   UNL     1      34.503 -22.028 -19.380  0.00  0.00    -0.000 C 
ENDBRANCH   2   8
BRANCH   1  15
ATOM     15  C   UNL     1      34.577 -14.693 -23.576  0.00  0.00    -0.069 C 
BRANCH  15  16
ATOM     16  C   UNL     1      33.389 -13.927 -24.160  0.00  0.00    +0.043 C 
BRANCH  16  21
ATOM     17  N   UNL     1      32.735 -11.741 -23.121  0.00  0.00    -0.302 N 
ATOM     18  N   UNL     1      32.044 -13.525 -22.082  0.00  0.00    -0.134 NA
ATOM     19  N   UNL     1      31.609 -12.417 -21.377  0.00  0.00    -0.134 NA
ATOM     20  C   UNL     1      33.398 -10.852 -24.047  0.00  0.00    +0.108 C 
ATOM     21  C   UNL     1      32.720 -13.097 -23.125  0.00  0.00    +0.141 A 
ATOM     22  C   UNL     1      32.903  -9.410 -23.912  0.00  0.00    +0.025 C 
ATOM     23  C   UNL     1      32.790  -9.006 -22.439  0.00  0.00    +0.010 C 
ATOM     24  C   UNL     1      31.809  -9.914 -21.692  0.00  0.00    +0.066 C 
ATOM     25  C   UNL     1      32.036 -11.346 -22.015  0.00  0.00    +0.143 A 
ENDBRANCH  16  21
ENDBRANCH  15  16
ENDBRANCH   1  15
TORSDOF 4
ENDMDL
