MODEL 1
REMARK VINA RESULT:      -9.7      0.000      0.000
REMARK  Name = 16473
REMARK  3 active torsions:
REMARK  status: ('A' for Active; 'I' for Inactive)
REMARK    1  A    between atoms: N_3  and  C_12
REMARK    2  A    between atoms: C_10  and  S_18
REMARK    3  A    between atoms: S_18  and  N_21
REMARK                            x       y       z     vdW  Elec       q    Type
REMARK                         _______ _______ _______ _____ _____    ______ ____
ROOT
ATOM      1 CL   UNL     1      38.526 -23.536 -15.742  0.00  0.00    -0.081 Cl
ATOM      2  O   UNL     1      32.455 -24.920 -12.991  0.00  0.00    -0.270 OA
ATOM      3  N   UNL     1      32.324 -23.688 -15.004  0.00  0.00    -0.274 N 
ATOM      4  C   UNL     1      33.267 -23.143 -15.973  0.00  0.00    +0.121 C 
ATOM      5  C   UNL     1      32.943 -24.356 -13.954  0.00  0.00    +0.249 C 
ATOM      6  C   UNL     1      34.578 -23.557 -15.395  0.00  0.00    +0.003 C 
ATOM      7  C   UNL     1      34.385 -24.269 -14.210  0.00  0.00    +0.053 C 
ATOM      8  C   UNL     1      35.855 -23.328 -15.873  0.00  0.00    +0.010 C 
ATOM      9  C   UNL     1      35.432 -24.773 -13.464  0.00  0.00    +0.025 C 
ATOM     10  C   UNL     1      36.723 -24.544 -13.942  0.00  0.00    +0.132 C 
ATOM     11  C   UNL     1      36.933 -23.829 -15.136  0.00  0.00    +0.076 C 
ENDROOT
BRANCH   3  12
ATOM     12  C   UNL     1      30.893 -23.547 -15.123  0.00  0.00    +0.076 C 
ATOM     13  C   UNL     1      30.529 -22.747 -16.376  0.00  0.00    +0.020 C 
ATOM     14  C   UNL     1      30.218 -24.921 -15.124  0.00  0.00    +0.020 C 
ATOM     15  C   UNL     1      29.016 -22.633 -16.550  0.00  0.00    +0.002 C 
ATOM     16  C   UNL     1      28.707 -24.805 -15.301  0.00  0.00    +0.002 C 
ATOM     17  C   UNL     1      28.346 -24.003 -16.549  0.00  0.00    +0.000 C 
ENDBRANCH   3  12
BRANCH  10  18
ATOM     18  S   UNL     1      38.061 -25.180 -13.002  0.00  0.00    +0.058 S 
ATOM     19  O   UNL     1      38.778 -26.137 -13.829  0.00  0.00    -0.153 OA
ATOM     20  O   UNL     1      38.769 -24.060 -12.402  0.00  0.00    -0.153 OA
BRANCH  18  21
ATOM     21  N   UNL     1      37.219 -26.022 -11.780  0.00  0.00    -0.203 NA
ATOM     22  H   UNL     1      37.416 -27.020 -11.856  0.00  0.00    +0.144 HD
ATOM     23  H   UNL     1      36.217 -25.864 -11.887  0.00  0.00    +0.144 HD
ENDBRANCH  18  21
ENDBRANCH  10  18
TORSDOF 3
ENDMDL
MODEL 2
REMARK VINA RESULT:      -9.5      6.513      7.798
REMARK  Name = 16473
REMARK  3 active torsions:
REMARK  status: ('A' for Active; 'I' for Inactive)
REMARK    1  A    between atoms: N_3  and  C_12
REMARK    2  A    between atoms: C_10  and  S_18
REMARK    3  A    between atoms: S_18  and  N_21
REMARK                            x       y       z     vdW  Elec       q    Type
REMARK                         _______ _______ _______ _____ _____    ______ ____
ROOT
ATOM      1 CL   UNL     1      32.563 -23.507 -16.798  0.00  0.00    -0.081 Cl
ATOM      2  O   UNL     1      37.260 -19.989 -20.247  0.00  0.00    -0.270 OA
ATOM      3  N   UNL     1      35.098 -19.865 -21.195  0.00  0.00    -0.274 N 
ATOM      4  C   UNL     1      33.777 -20.399 -20.888  0.00  0.00    +0.121 C 
ATOM      5  C   UNL     1      36.073 -20.256 -20.284  0.00  0.00    +0.249 C 
ATOM      6  C   UNL     1      34.042 -21.187 -19.650  0.00  0.00    +0.003 C 
ATOM      7  C   UNL     1      35.390 -21.101 -19.297  0.00  0.00    +0.053 C 
ATOM      8  C   UNL     1      33.165 -21.928 -18.881  0.00  0.00    +0.010 C 
ATOM      9  C   UNL     1      35.913 -21.736 -18.188  0.00  0.00    +0.025 C 
ATOM     10  C   UNL     1      35.031 -22.487 -17.409  0.00  0.00    +0.132 C 
ATOM     11  C   UNL     1      33.669 -22.582 -17.752  0.00  0.00    +0.076 C 
ENDROOT
BRANCH   3  12
ATOM     12  C   UNL     1      35.368 -19.018 -22.331  0.00  0.00    +0.076 C 
ATOM     13  C   UNL     1      34.511 -19.431 -23.531  0.00  0.00    +0.020 C 
ATOM     14  C   UNL     1      35.145 -17.547 -21.968  0.00  0.00    +0.020 C 
ATOM     15  C   UNL     1      34.741 -18.512 -24.729  0.00  0.00    +0.002 C 
ATOM     16  C   UNL     1      35.372 -16.631 -23.168  0.00  0.00    +0.002 C 
ATOM     17  C   UNL     1      34.521 -17.047 -24.364  0.00  0.00    +0.000 C 
ENDBRANCH   3  12
BRANCH  10  18
ATOM     18  S   UNL     1      35.684 -23.298 -15.997  0.00  0.00    +0.058 S 
ATOM     19  O   UNL     1      35.342 -22.510 -14.825  0.00  0.00    -0.153 OA
ATOM     20  O   UNL     1      35.311 -24.703 -16.067  0.00  0.00    -0.153 OA
BRANCH  18  21
ATOM     21  N   UNL     1      37.359 -23.155 -16.295  0.00  0.00    -0.203 NA
ATOM     22  H   UNL     1      37.769 -24.084 -16.387  0.00  0.00    +0.144 HD
ATOM     23  H   UNL     1      37.801 -22.663 -15.518  0.00  0.00    +0.144 HD
ENDBRANCH  18  21
ENDBRANCH  10  18
TORSDOF 3
ENDMDL
MODEL 3
REMARK VINA RESULT:      -9.2      7.620      8.962
REMARK  Name = 16473
REMARK  3 active torsions:
REMARK  status: ('A' for Active; 'I' for Inactive)
REMARK    1  A    between atoms: N_3  and  C_12
REMARK    2  A    between atoms: C_10  and  S_18
REMARK    3  A    between atoms: S_18  and  N_21
REMARK                            x       y       z     vdW  Elec       q    Type
REMARK                         _______ _______ _______ _____ _____    ______ ____
ROOT
ATOM      1 CL   UNL     1      36.916 -22.459 -17.455  0.00  0.00    -0.081 Cl
ATOM      2  O   UNL     1      33.165 -19.257 -22.147  0.00  0.00    -0.270 OA
ATOM      3  N   UNL     1      35.391 -18.473 -22.018  0.00  0.00    -0.274 N 
ATOM      4  C   UNL     1      36.577 -18.784 -21.228  0.00  0.00    +0.121 C 
ATOM      5  C   UNL     1      34.292 -19.258 -21.686  0.00  0.00    +0.249 C 
ATOM      6  C   UNL     1      36.082 -19.879 -20.345  0.00  0.00    +0.003 C 
ATOM      7  C   UNL     1      34.741 -20.155 -20.616  0.00  0.00    +0.053 C 
ATOM      8  C   UNL     1      36.758 -20.588 -19.370  0.00  0.00    +0.010 C 
ATOM      9  C   UNL     1      34.029 -21.128 -19.942  0.00  0.00    +0.025 C 
ATOM     10  C   UNL     1      34.708 -21.846 -18.956  0.00  0.00    +0.132 C 
ATOM     11  C   UNL     1      36.060 -21.579 -18.673  0.00  0.00    +0.076 C 
ENDROOT
BRANCH   3  12
ATOM     12  C   UNL     1      35.360 -17.455 -23.038  0.00  0.00    +0.076 C 
ATOM     13  C   UNL     1      34.799 -18.016 -24.348  0.00  0.00    +0.020 C 
ATOM     14  C   UNL     1      34.555 -16.243 -22.563  0.00  0.00    +0.020 C 
ATOM     15  C   UNL     1      34.707 -16.939 -25.427  0.00  0.00    +0.002 C 
ATOM     16  C   UNL     1      34.461 -15.170 -23.644  0.00  0.00    +0.002 C 
ATOM     17  C   UNL     1      33.906 -15.732 -24.949  0.00  0.00    +0.000 C 
ENDBRANCH   3  12
BRANCH  10  18
ATOM     18  S   UNL     1      33.813 -23.085 -18.094  0.00  0.00    +0.058 S 
ATOM     19  O   UNL     1      33.731 -24.258 -18.947  0.00  0.00    -0.153 OA
ATOM     20  O   UNL     1      34.366 -23.195 -16.753  0.00  0.00    -0.153 OA
BRANCH  18  21
ATOM     21  N   UNL     1      32.272 -22.356 -17.999  0.00  0.00    -0.203 NA
ATOM     22  H   UNL     1      32.377 -21.343 -17.966  0.00  0.00    +0.144 HD
ATOM     23  H   UNL     1      31.796 -22.677 -17.156  0.00  0.00    +0.144 HD
ENDBRANCH  18  21
ENDBRANCH  10  18
TORSDOF 3
ENDMDL
MODEL 4
REMARK VINA RESULT:      -9.1      6.368      7.630
REMARK  Name = 16473
REMARK  3 active torsions:
REMARK  status: ('A' for Active; 'I' for Inactive)
REMARK    1  A    between atoms: N_3  and  C_12
REMARK    2  A    between atoms: C_10  and  S_18
REMARK    3  A    between atoms: S_18  and  N_21
REMARK                            x       y       z     vdW  Elec       q    Type
REMARK                         _______ _______ _______ _____ _____    ______ ____
ROOT
ATOM      1 CL   UNL     1      37.510 -22.626 -16.511  0.00  0.00    -0.081 Cl
ATOM      2  O   UNL     1      32.495 -20.616 -20.651  0.00  0.00    -0.270 OA
ATOM      3  N   UNL     1      34.622 -19.796 -21.273  0.00  0.00    -0.274 N 
ATOM      4  C   UNL     1      35.986 -19.905 -20.769  0.00  0.00    +0.121 C 
ATOM      5  C   UNL     1      33.698 -20.498 -20.508  0.00  0.00    +0.249 C 
ATOM      6  C   UNL     1      35.805 -20.777 -19.573  0.00  0.00    +0.003 C 
ATOM      7  C   UNL     1      34.461 -21.124 -19.423  0.00  0.00    +0.053 C 
ATOM      8  C   UNL     1      36.751 -21.239 -18.677  0.00  0.00    +0.010 C 
ATOM      9  C   UNL     1      34.009 -21.928 -18.395  0.00  0.00    +0.025 C 
ATOM     10  C   UNL     1      34.961 -22.395 -17.486  0.00  0.00    +0.132 C 
ATOM     11  C   UNL     1      36.319 -22.055 -17.626  0.00  0.00    +0.076 C 
ENDROOT
BRANCH   3  12
ATOM     12  C   UNL     1      34.267 -19.035 -22.446  0.00  0.00    +0.076 C 
ATOM     13  C   UNL     1      34.664 -17.566 -22.280  0.00  0.00    +0.020 C 
ATOM     14  C   UNL     1      34.908 -19.646 -23.696  0.00  0.00    +0.020 C 
ATOM     15  C   UNL     1      34.347 -16.752 -23.533  0.00  0.00    +0.002 C 
ATOM     16  C   UNL     1      34.592 -18.830 -24.946  0.00  0.00    +0.002 C 
ATOM     17  C   UNL     1      34.984 -17.365 -24.776  0.00  0.00    +0.000 C 
ENDBRANCH   3  12
BRANCH  10  18
ATOM     18  S   UNL     1      34.398 -23.418 -16.176  0.00  0.00    +0.058 S 
ATOM     19  O   UNL     1      34.986 -24.735 -16.348  0.00  0.00    -0.153 OA
ATOM     20  O   UNL     1      34.577 -22.695 -14.926  0.00  0.00    -0.153 OA
BRANCH  18  21
ATOM     21  N   UNL     1      32.730 -23.502 -16.532  0.00  0.00    -0.203 NA
ATOM     22  H   UNL     1      32.362 -22.560 -16.657  0.00  0.00    +0.144 HD
ATOM     23  H   UNL     1      32.241 -23.960 -15.764  0.00  0.00    +0.144 HD
ENDBRANCH  18  21
ENDBRANCH  10  18
TORSDOF 3
ENDMDL
MODEL 5
REMARK VINA RESULT:      -9.0      3.772      5.026
REMARK  Name = 16473
REMARK  3 active torsions:
REMARK  status: ('A' for Active; 'I' for Inactive)
REMARK    1  A    between atoms: N_3  and  C_12
REMARK    2  A    between atoms: C_10  and  S_18
REMARK    3  A    between atoms: S_18  and  N_21
REMARK                            x       y       z     vdW  Elec       q    Type
REMARK                         _______ _______ _______ _____ _____    ______ ____
ROOT
ATOM      1 CL   UNL     1      38.094 -23.428 -13.079  0.00  0.00    -0.081 Cl
ATOM      2  O   UNL     1      33.083 -22.889 -17.654  0.00  0.00    -0.270 OA
ATOM      3  N   UNL     1      35.129 -21.949 -18.375  0.00  0.00    -0.274 N 
ATOM      4  C   UNL     1      36.471 -21.790 -17.826  0.00  0.00    +0.121 C 
ATOM      5  C   UNL     1      34.257 -22.598 -17.508  0.00  0.00    +0.249 C 
ATOM      6  C   UNL     1      36.335 -22.430 -16.487  0.00  0.00    +0.003 C 
ATOM      7  C   UNL     1      35.035 -22.904 -16.303  0.00  0.00    +0.053 C 
ATOM      8  C   UNL     1      37.284 -22.590 -15.494  0.00  0.00    +0.010 C 
ATOM      9  C   UNL     1      34.630 -23.543 -15.147  0.00  0.00    +0.025 C 
ATOM     10  C   UNL     1      35.585 -23.706 -14.141  0.00  0.00    +0.132 C 
ATOM     11  C   UNL     1      36.900 -23.234 -14.313  0.00  0.00    +0.076 C 
ENDROOT
BRANCH   3  12
ATOM     12  C   UNL     1      34.745 -21.479 -19.683  0.00  0.00    +0.076 C 
ATOM     13  C   UNL     1      33.369 -20.809 -19.636  0.00  0.00    +0.020 C 
ATOM     14  C   UNL     1      35.807 -20.530 -20.245  0.00  0.00    +0.020 C 
ATOM     15  C   UNL     1      32.966 -20.255 -21.002  0.00  0.00    +0.002 C 
ATOM     16  C   UNL     1      35.401 -19.975 -21.608  0.00  0.00    +0.002 C 
ATOM     17  C   UNL     1      34.028 -19.311 -21.560  0.00  0.00    +0.000 C 
ENDBRANCH   3  12
BRANCH  10  18
ATOM     18  S   UNL     1      35.082 -24.517 -12.669  0.00  0.00    +0.058 S 
ATOM     19  O   UNL     1      35.873 -25.728 -12.529  0.00  0.00    -0.153 OA
ATOM     20  O   UNL     1      35.054 -23.535 -11.596  0.00  0.00    -0.153 OA
BRANCH  18  21
ATOM     21  N   UNL     1      33.479 -24.943 -13.072  0.00  0.00    -0.203 NA
ATOM     22  H   UNL     1      33.097 -24.253 -13.719  0.00  0.00    +0.144 HD
ATOM     23  H   UNL     1      32.911 -24.967 -12.226  0.00  0.00    +0.144 HD
ENDBRANCH  18  21
ENDBRANCH  10  18
TORSDOF 3
ENDMDL
MODEL 6
REMARK VINA RESULT:      -9.0     14.022     15.341
REMARK  Name = 16473
REMARK  3 active torsions:
REMARK  status: ('A' for Active; 'I' for Inactive)
REMARK    1  A    between atoms: N_3  and  C_12
REMARK    2  A    between atoms: C_10  and  S_18
REMARK    3  A    between atoms: S_18  and  N_21
REMARK                            x       y       z     vdW  Elec       q    Type
REMARK                         _______ _______ _______ _____ _____    ______ ____
ROOT
ATOM      1 CL   UNL     1      32.230 -16.068 -20.453  0.00  0.00    -0.081 Cl
ATOM      2  O   UNL     1      34.491 -11.365 -24.824  0.00  0.00    -0.270 OA
ATOM      3  N   UNL     1      32.746 -10.598 -23.425  0.00  0.00    -0.274 N 
ATOM      4  C   UNL     1      31.927 -11.155 -22.356  0.00  0.00    +0.121 C 
ATOM      5  C   UNL     1      33.666 -11.506 -23.939  0.00  0.00    +0.249 C 
ATOM      6  C   UNL     1      32.451 -12.547 -22.257  0.00  0.00    +0.003 C 
ATOM      7  C   UNL     1      33.472 -12.750 -23.187  0.00  0.00    +0.053 C 
ATOM      8  C   UNL     1      32.064 -13.568 -21.410  0.00  0.00    +0.010 C 
ATOM      9  C   UNL     1      34.138 -13.953 -23.312  0.00  0.00    +0.025 C 
ATOM     10  C   UNL     1      33.750 -14.988 -22.460  0.00  0.00    +0.132 C 
ATOM     11  C   UNL     1      32.723 -14.798 -21.517  0.00  0.00    +0.076 C 
ENDROOT
BRANCH   3  12
ATOM     12  C   UNL     1      32.616  -9.243 -23.903  0.00  0.00    +0.076 C 
ATOM     13  C   UNL     1      31.324  -8.607 -23.384  0.00  0.00    +0.020 C 
ATOM     14  C   UNL     1      33.841  -8.415 -23.507  0.00  0.00    +0.020 C 
ATOM     15  C   UNL     1      31.192  -7.153 -23.834  0.00  0.00    +0.002 C 
ATOM     16  C   UNL     1      33.707  -6.962 -23.954  0.00  0.00    +0.002 C 
ATOM     17  C   UNL     1      32.416  -6.331 -23.440  0.00  0.00    +0.000 C 
ENDBRANCH   3  12
BRANCH  10  18
ATOM     18  S   UNL     1      34.589 -16.522 -22.611  0.00  0.00    +0.058 S 
ATOM     19  O   UNL     1      35.295 -16.774 -21.366  0.00  0.00    -0.153 OA
ATOM     20  O   UNL     1      33.651 -17.505 -23.129  0.00  0.00    -0.153 OA
BRANCH  18  21
ATOM     21  N   UNL     1      35.725 -16.144 -23.828  0.00  0.00    -0.203 NA
ATOM     22  H   UNL     1      35.541 -16.714 -24.653  0.00  0.00    +0.144 HD
ATOM     23  H   UNL     1      36.666 -16.335 -23.485  0.00  0.00    +0.144 HD
ENDBRANCH  18  21
ENDBRANCH  10  18
TORSDOF 3
ENDMDL
MODEL 7
REMARK VINA RESULT:      -8.9     11.796     13.280
REMARK  Name = 16473
REMARK  3 active torsions:
REMARK  status: ('A' for Active; 'I' for Inactive)
REMARK    1  A    between atoms: N_3  and  C_12
REMARK    2  A    between atoms: C_10  and  S_18
REMARK    3  A    between atoms: S_18  and  N_21
REMARK                            x       y       z     vdW  Elec       q    Type
REMARK                         _______ _______ _______ _____ _____    ______ ____
ROOT
ATOM      1 CL   UNL     1      33.503 -11.934 -23.694  0.00  0.00    -0.081 Cl
ATOM      2  O   UNL     1      34.562 -18.580 -24.717  0.00  0.00    -0.270 OA
ATOM      3  N   UNL     1      34.754 -17.927 -22.453  0.00  0.00    -0.274 N 
ATOM      4  C   UNL     1      34.634 -16.687 -21.697  0.00  0.00    +0.121 C 
ATOM      5  C   UNL     1      34.539 -17.760 -23.817  0.00  0.00    +0.249 C 
ATOM      6  C   UNL     1      34.311 -15.701 -22.768  0.00  0.00    +0.003 C 
ATOM      7  C   UNL     1      34.255 -16.334 -24.011  0.00  0.00    +0.053 C 
ATOM      8  C   UNL     1      34.079 -14.343 -22.665  0.00  0.00    +0.010 C 
ATOM      9  C   UNL     1      33.973 -15.656 -25.181  0.00  0.00    +0.025 C 
ATOM     10  C   UNL     1      33.739 -14.284 -25.082  0.00  0.00    +0.132 C 
ATOM     11  C   UNL     1      33.791 -13.632 -23.835  0.00  0.00    +0.076 C 
ENDROOT
BRANCH   3  12
ATOM     12  C   UNL     1      35.066 -19.199 -21.849  0.00  0.00    +0.076 C 
ATOM     13  C   UNL     1      36.350 -19.106 -21.021  0.00  0.00    +0.020 C 
ATOM     14  C   UNL     1      33.892 -19.692 -20.999  0.00  0.00    +0.020 C 
ATOM     15  C   UNL     1      36.670 -20.428 -20.327  0.00  0.00    +0.002 C 
ATOM     16  C   UNL     1      34.214 -21.011 -20.304  0.00  0.00    +0.002 C 
ATOM     17  C   UNL     1      35.497 -20.917 -19.483  0.00  0.00    +0.000 C 
ENDBRANCH   3  12
BRANCH  10  18
ATOM     18  S   UNL     1      33.379 -13.413 -26.562  0.00  0.00    +0.058 S 
ATOM     19  O   UNL     1      33.491 -11.990 -26.286  0.00  0.00    -0.153 OA
ATOM     20  O   UNL     1      34.152 -14.010 -27.640  0.00  0.00    -0.153 OA
BRANCH  18  21
ATOM     21  N   UNL     1      31.733 -13.811 -26.773  0.00  0.00    -0.203 NA
ATOM     22  H   UNL     1      31.619 -14.336 -27.639  0.00  0.00    +0.144 HD
ATOM     23  H   UNL     1      31.179 -12.956 -26.817  0.00  0.00    +0.144 HD
ENDBRANCH  18  21
ENDBRANCH  10  18
TORSDOF 3
ENDMDL
MODEL 8
REMARK VINA RESULT:      -8.8     12.000     13.466
REMARK  Name = 16473
REMARK  3 active torsions:
REMARK  status: ('A' for Active; 'I' for Inactive)
REMARK    1  A    between atoms: N_3  and  C_12
REMARK    2  A    between atoms: C_10  and  S_18
REMARK    3  A    between atoms: S_18  and  N_21
REMARK                            x       y       z     vdW  Elec       q    Type
REMARK                         _______ _______ _______ _____ _____    ______ ____
ROOT
ATOM      1 CL   UNL     1      31.557 -11.182 -21.812  0.00  0.00    -0.081 Cl
ATOM      2  O   UNL     1      35.317 -16.429 -23.973  0.00  0.00    -0.270 OA
ATOM      3  N   UNL     1      34.073 -16.897 -22.019  0.00  0.00    -0.274 N 
ATOM      4  C   UNL     1      33.142 -16.175 -21.161  0.00  0.00    +0.121 C 
ATOM      5  C   UNL     1      34.542 -16.133 -23.082  0.00  0.00    +0.249 C 
ATOM      6  C   UNL     1      33.080 -14.841 -21.824  0.00  0.00    +0.003 C 
ATOM      7  C   UNL     1      33.902 -14.820 -22.952  0.00  0.00    +0.053 C 
ATOM      8  C   UNL     1      32.353 -13.720 -21.468  0.00  0.00    +0.010 C 
ATOM      9  C   UNL     1      34.035 -13.706 -23.757  0.00  0.00    +0.025 C 
ATOM     10  C   UNL     1      33.304 -12.571 -23.401  0.00  0.00    +0.132 C 
ATOM     11  C   UNL     1      32.470 -12.578 -22.268  0.00  0.00    +0.076 C 
ENDROOT
BRANCH   3  12
ATOM     12  C   UNL     1      34.468 -18.265 -21.789  0.00  0.00    +0.076 C 
ATOM     13  C   UNL     1      35.850 -18.327 -21.133  0.00  0.00    +0.020 C 
ATOM     14  C   UNL     1      33.419 -18.991 -20.943  0.00  0.00    +0.020 C 
ATOM     15  C   UNL     1      36.266 -19.765 -20.830  0.00  0.00    +0.002 C 
ATOM     16  C   UNL     1      33.837 -20.427 -20.639  0.00  0.00    +0.002 C 
ATOM     17  C   UNL     1      35.217 -20.486 -19.989  0.00  0.00    +0.000 C 
ENDBRANCH   3  12
BRANCH  10  18
ATOM     18  S   UNL     1      33.465 -11.150 -24.418  0.00  0.00    +0.058 S 
ATOM     19  O   UNL     1      33.587 -11.593 -25.796  0.00  0.00    -0.153 OA
ATOM     20  O   UNL     1      32.424 -10.204 -24.044  0.00  0.00    -0.153 OA
BRANCH  18  21
ATOM     21  N   UNL     1      34.973 -10.550 -23.890  0.00  0.00    -0.203 NA
ATOM     22  H   UNL     1      34.851  -9.612 -23.509  0.00  0.00    +0.144 HD
ATOM     23  H   UNL     1      35.620 -10.517 -24.677  0.00  0.00    +0.144 HD
ENDBRANCH  18  21
ENDBRANCH  10  18
TORSDOF 3
ENDMDL
MODEL 9
REMARK VINA RESULT:      -8.7      1.985      2.608
REMARK  Name = 16473
REMARK  3 active torsions:
REMARK  status: ('A' for Active; 'I' for Inactive)
REMARK    1  A    between atoms: N_3  and  C_12
REMARK    2  A    between atoms: C_10  and  S_18
REMARK    3  A    between atoms: S_18  and  N_21
REMARK                            x       y       z     vdW  Elec       q    Type
REMARK                         _______ _______ _______ _____ _____    ______ ____
ROOT
ATOM      1 CL   UNL     1      37.083 -24.908 -11.556  0.00  0.00    -0.081 Cl
ATOM      2  O   UNL     1      33.522 -23.587 -17.205  0.00  0.00    -0.270 OA
ATOM      3  N   UNL     1      32.206 -23.616 -15.242  0.00  0.00    -0.274 N 
ATOM      4  C   UNL     1      32.436 -23.836 -13.819  0.00  0.00    +0.121 C 
ATOM      5  C   UNL     1      33.365 -23.715 -16.005  0.00  0.00    +0.249 C 
ATOM      6  C   UNL     1      33.905 -24.090 -13.778  0.00  0.00    +0.003 C 
ATOM      7  C   UNL     1      34.447 -24.018 -15.062  0.00  0.00    +0.053 C 
ATOM      8  C   UNL     1      34.714 -24.364 -12.692  0.00  0.00    +0.010 C 
ATOM      9  C   UNL     1      35.791 -24.212 -15.316  0.00  0.00    +0.025 C 
ATOM     10  C   UNL     1      36.612 -24.490 -14.223  0.00  0.00    +0.132 C 
ATOM     11  C   UNL     1      36.080 -24.565 -12.922  0.00  0.00    +0.076 C 
ENDROOT
BRANCH   3  12
ATOM     12  C   UNL     1      30.909 -23.326 -15.801  0.00  0.00    +0.076 C 
ATOM     13  C   UNL     1      30.143 -24.619 -16.094  0.00  0.00    +0.020 C 
ATOM     14  C   UNL     1      30.115 -22.408 -14.868  0.00  0.00    +0.020 C 
ATOM     15  C   UNL     1      28.744 -24.333 -16.637  0.00  0.00    +0.002 C 
ATOM     16  C   UNL     1      28.717 -22.127 -15.410  0.00  0.00    +0.002 C 
ATOM     17  C   UNL     1      27.957 -23.417 -15.705  0.00  0.00    +0.000 C 
ENDBRANCH   3  12
BRANCH  10  18
ATOM     18  S   UNL     1      38.321 -24.738 -14.534  0.00  0.00    +0.058 S 
ATOM     19  O   UNL     1      39.063 -24.270 -13.375  0.00  0.00    -0.153 OA
ATOM     20  O   UNL     1      38.503 -26.098 -15.016  0.00  0.00    -0.153 OA
BRANCH  18  21
ATOM     21  N   UNL     1      38.569 -23.654 -15.828  0.00  0.00    -0.203 NA
ATOM     22  H   UNL     1      38.540 -22.696 -15.480  0.00  0.00    +0.144 HD
ATOM     23  H   UNL     1      37.837 -23.785 -16.526  0.00  0.00    +0.144 HD
ENDBRANCH  18  21
ENDBRANCH  10  18
TORSDOF 3
ENDMDL
