MODEL 1
REMARK VINA RESULT:     -10.5      0.000      0.000
REMARK  Name = 40467016
REMARK  4 active torsions:
REMARK  status: ('A' for Active; 'I' for Inactive)
REMARK    1  A    between atoms: C_3  and  C_16
REMARK    2  A    between atoms: C_4  and  C_9
REMARK    3  A    between atoms: C_5  and  C_21
REMARK    4  A    between atoms: C_24  and  S_27
REMARK                            x       y       z     vdW  Elec       q    Type
REMARK                         _______ _______ _______ _____ _____    ______ ____
ROOT
ATOM      1  N   UNL     1      33.042 -22.624 -17.460  0.00  0.00    -0.315 N 
ATOM      2  N   UNL     1      35.254 -22.651 -17.265  0.00  0.00    -0.315 N 
ATOM      3  C   UNL     1      33.311 -23.363 -16.342  0.00  0.00    +0.059 C 
ATOM      4  C   UNL     1      34.682 -23.365 -16.242  0.00  0.00    +0.059 C 
ATOM      5  C   UNL     1      34.240 -22.218 -17.980  0.00  0.00    +0.168 C 
ATOM      6  H   UNL     1      32.150 -22.422 -17.824  0.00  0.00    +0.149 HD
ATOM      7  H   UNL     1      36.213 -22.496 -17.428  0.00  0.00    +0.149 HD
ENDROOT
BRANCH   4   9
ATOM      8  F   UNL     1      37.636 -25.898 -12.264  0.00  0.00    -0.204 F 
ATOM      9  C   UNL     1      35.444 -24.018 -15.216  0.00  0.00    +0.015 C 
ATOM     10  C   UNL     1      35.816 -25.355 -15.368  0.00  0.00    +0.004 C 
ATOM     11  C   UNL     1      35.813 -23.318 -14.068  0.00  0.00    +0.004 C 
ATOM     12  C   UNL     1      36.557 -25.990 -14.370  0.00  0.00    +0.030 C 
ATOM     13  C   UNL     1      36.554 -23.953 -13.071  0.00  0.00    +0.030 C 
ATOM     14  C   UNL     1      36.925 -25.288 -13.222  0.00  0.00    +0.140 C 
ENDBRANCH   4   9
BRANCH   3  16
ATOM     15  N   UNL     1      30.266 -25.100 -13.963  0.00  0.00    -0.242 NA
ATOM     16  C   UNL     1      32.275 -23.955 -15.532  0.00  0.00    +0.017 C 
ATOM     17  C   UNL     1      32.585 -24.502 -14.293  0.00  0.00    +0.022 C 
ATOM     18  C   UNL     1      30.962 -23.979 -15.988  0.00  0.00    +0.022 C 
ATOM     19  C   UNL     1      31.553 -25.058 -13.553  0.00  0.00    +0.099 C 
ATOM     20  C   UNL     1      30.002 -24.557 -15.173  0.00  0.00    +0.099 C 
ENDBRANCH   3  16
BRANCH   5  21
ATOM     21  C   UNL     1      34.322 -21.411 -19.174  0.00  0.00    +0.014 C 
ATOM     22  C   UNL     1      33.159 -20.927 -19.771  0.00  0.00    -0.000 C 
ATOM     23  C   UNL     1      35.567 -21.115 -19.731  0.00  0.00    -0.000 C 
ATOM     24  C   UNL     1      34.483 -19.852 -21.481  0.00  0.00    +0.056 C 
ATOM     25  C   UNL     1      33.239 -20.148 -20.924  0.00  0.00    +0.008 C 
ATOM     26  C   UNL     1      35.647 -20.336 -20.884  0.00  0.00    +0.008 C 
BRANCH  24  27
ATOM     27  S   UNL     1      34.585 -18.849 -22.964  0.00  0.00    +0.066 S 
ATOM     28  O   UNL     1      34.996 -19.769 -24.079  0.00  0.00    -0.251 OA
ATOM     29  C   UNL     1      36.050 -17.889 -22.500  0.00  0.00    +0.111 C 
ENDBRANCH  24  27
ENDBRANCH   5  21
TORSDOF 4
ENDMDL
MODEL 2
REMARK VINA RESULT:     -10.3      6.934     11.812
REMARK  Name = 40467016
REMARK  4 active torsions:
REMARK  status: ('A' for Active; 'I' for Inactive)
REMARK    1  A    between atoms: C_3  and  C_16
REMARK    2  A    between atoms: C_4  and  C_9
REMARK    3  A    between atoms: C_5  and  C_21
REMARK    4  A    between atoms: C_24  and  S_27
REMARK                            x       y       z     vdW  Elec       q    Type
REMARK                         _______ _______ _______ _____ _____    ______ ____
ROOT
ATOM      1  N   UNL     1      34.041 -16.125 -23.009  0.00  0.00    -0.315 N 
ATOM      2  N   UNL     1      33.295 -15.662 -20.969  0.00  0.00    -0.315 N 
ATOM      3  C   UNL     1      33.506 -14.870 -23.082  0.00  0.00    +0.059 C 
ATOM      4  C   UNL     1      33.052 -14.606 -21.811  0.00  0.00    +0.059 C 
ATOM      5  C   UNL     1      33.891 -16.560 -21.721  0.00  0.00    +0.168 C 
ATOM      6  H   UNL     1      34.458 -16.626 -23.747  0.00  0.00    +0.149 HD
ATOM      7  H   UNL     1      33.072 -15.732 -20.012  0.00  0.00    +0.149 HD
ENDROOT
BRANCH   4   9
ATOM      8  F   UNL     1      30.550  -9.911 -20.178  0.00  0.00    -0.204 F 
ATOM      9  C   UNL     1      32.407 -13.395 -21.390  0.00  0.00    +0.015 C 
ATOM     10  C   UNL     1      32.418 -13.031 -20.043  0.00  0.00    +0.004 C 
ATOM     11  C   UNL     1      31.769 -12.582 -22.327  0.00  0.00    +0.004 C 
ATOM     12  C   UNL     1      31.791 -11.854 -19.634  0.00  0.00    +0.030 C 
ATOM     13  C   UNL     1      31.142 -11.405 -21.918  0.00  0.00    +0.030 C 
ATOM     14  C   UNL     1      31.152 -11.041 -20.571  0.00  0.00    +0.140 C 
ENDBRANCH   4   9
BRANCH   3  16
ATOM     15  N   UNL     1      33.463 -12.609 -26.665  0.00  0.00    -0.242 NA
ATOM     16  C   UNL     1      33.491 -14.100 -24.301  0.00  0.00    +0.017 C 
ATOM     17  C   UNL     1      33.955 -12.790 -24.305  0.00  0.00    +0.022 C 
ATOM     18  C   UNL     1      33.014 -14.666 -25.478  0.00  0.00    +0.022 C 
ATOM     19  C   UNL     1      33.920 -12.093 -25.503  0.00  0.00    +0.099 C 
ATOM     20  C   UNL     1      33.020 -13.887 -26.623  0.00  0.00    +0.099 C 
ENDBRANCH   3  16
BRANCH   5  21
ATOM     21  C   UNL     1      34.350 -17.860 -21.293  0.00  0.00    +0.014 C 
ATOM     22  C   UNL     1      35.717 -18.124 -21.208  0.00  0.00    -0.000 C 
ATOM     23  C   UNL     1      33.427 -18.851 -20.961  0.00  0.00    -0.000 C 
ATOM     24  C   UNL     1      35.237 -20.370 -20.463  0.00  0.00    +0.056 C 
ATOM     25  C   UNL     1      36.161 -19.379 -20.794  0.00  0.00    +0.008 C 
ATOM     26  C   UNL     1      33.870 -20.106 -20.546  0.00  0.00    +0.008 C 
BRANCH  24  27
ATOM     27  S   UNL     1      35.808 -21.984 -19.930  0.00  0.00    +0.066 S 
ATOM     28  O   UNL     1      34.588 -22.762 -19.523  0.00  0.00    -0.251 OA
ATOM     29  C   UNL     1      36.632 -21.453 -18.406  0.00  0.00    +0.111 C 
ENDBRANCH  24  27
ENDBRANCH   5  21
TORSDOF 4
ENDMDL
MODEL 3
REMARK VINA RESULT:      -9.6      6.958     11.684
REMARK  Name = 40467016
REMARK  4 active torsions:
REMARK  status: ('A' for Active; 'I' for Inactive)
REMARK    1  A    between atoms: C_3  and  C_16
REMARK    2  A    between atoms: C_4  and  C_9
REMARK    3  A    between atoms: C_5  and  C_21
REMARK    4  A    between atoms: C_24  and  S_27
REMARK                            x       y       z     vdW  Elec       q    Type
REMARK                         _______ _______ _______ _____ _____    ______ ____
ROOT
ATOM      1  N   UNL     1      33.205 -15.784 -21.075  0.00  0.00    -0.315 N 
ATOM      2  N   UNL     1      34.012 -16.352 -23.064  0.00  0.00    -0.315 N 
ATOM      3  C   UNL     1      33.000 -14.703 -21.884  0.00  0.00    +0.059 C 
ATOM      4  C   UNL     1      33.506 -15.077 -23.107  0.00  0.00    +0.059 C 
ATOM      5  C   UNL     1      33.815 -16.750 -21.827  0.00  0.00    +0.168 C 
ATOM      6  H   UNL     1      32.959 -15.856 -20.124  0.00  0.00    +0.149 HD
ATOM      7  H   UNL     1      34.431 -16.858 -23.798  0.00  0.00    +0.149 HD
ENDROOT
BRANCH   4   9
ATOM      8  F   UNL     1      33.553 -11.926 -27.693  0.00  0.00    -0.204 F 
ATOM      9  C   UNL     1      33.518 -14.264 -24.290  0.00  0.00    +0.015 C 
ATOM     10  C   UNL     1      33.092 -14.797 -25.507  0.00  0.00    +0.004 C 
ATOM     11  C   UNL     1      33.955 -12.941 -24.223  0.00  0.00    +0.004 C 
ATOM     12  C   UNL     1      33.104 -14.007 -26.656  0.00  0.00    +0.030 C 
ATOM     13  C   UNL     1      33.967 -12.151 -25.373  0.00  0.00    +0.030 C 
ATOM     14  C   UNL     1      33.541 -12.684 -26.589  0.00  0.00    +0.140 C 
ENDBRANCH   4   9
BRANCH   3  16
ATOM     15  N   UNL     1      31.154 -11.140 -20.524  0.00  0.00    -0.242 NA
ATOM     16  C   UNL     1      32.372 -13.491 -21.421  0.00  0.00    +0.017 C 
ATOM     17  C   UNL     1      32.411 -13.155 -20.072  0.00  0.00    +0.022 C 
ATOM     18  C   UNL     1      31.725 -12.652 -22.321  0.00  0.00    +0.022 C 
ATOM     19  C   UNL     1      31.792 -11.979 -19.678  0.00  0.00    +0.099 C 
ATOM     20  C   UNL     1      31.137 -11.499 -21.828  0.00  0.00    +0.099 C 
ENDBRANCH   3  16
BRANCH   5  21
ATOM     21  C   UNL     1      34.178 -18.034 -21.277  0.00  0.00    +0.014 C 
ATOM     22  C   UNL     1      33.185 -18.933 -20.890  0.00  0.00    -0.000 C 
ATOM     23  C   UNL     1      35.523 -18.377 -21.136  0.00  0.00    -0.000 C 
ATOM     24  C   UNL     1      34.881 -20.516 -20.217  0.00  0.00    +0.056 C 
ATOM     25  C   UNL     1      33.536 -20.173 -20.359  0.00  0.00    +0.008 C 
ATOM     26  C   UNL     1      35.874 -19.617 -20.605  0.00  0.00    +0.008 C 
BRANCH  24  27
ATOM     27  S   UNL     1      35.331 -22.112 -19.535  0.00  0.00    +0.066 S 
ATOM     28  O   UNL     1      34.160 -22.578 -18.716  0.00  0.00    -0.251 OA
ATOM     29  C   UNL     1      36.593 -21.526 -18.373  0.00  0.00    +0.111 C 
ENDBRANCH  24  27
ENDBRANCH   5  21
TORSDOF 4
ENDMDL
MODEL 4
REMARK VINA RESULT:      -9.1     10.364     14.674
REMARK  Name = 40467016
REMARK  4 active torsions:
REMARK  status: ('A' for Active; 'I' for Inactive)
REMARK    1  A    between atoms: C_3  and  C_16
REMARK    2  A    between atoms: C_4  and  C_9
REMARK    3  A    between atoms: C_5  and  C_21
REMARK    4  A    between atoms: C_24  and  S_27
REMARK                            x       y       z     vdW  Elec       q    Type
REMARK                         _______ _______ _______ _____ _____    ______ ____
ROOT
ATOM      1  N   UNL     1      32.817 -12.081 -22.306  0.00  0.00    -0.315 N 
ATOM      2  N   UNL     1      33.415 -11.261 -24.282  0.00  0.00    -0.315 N 
ATOM      3  C   UNL     1      32.624 -10.731 -22.225  0.00  0.00    +0.059 C 
ATOM      4  C   UNL     1      33.000 -10.246 -23.456  0.00  0.00    +0.059 C 
ATOM      5  C   UNL     1      33.293 -12.353 -23.560  0.00  0.00    +0.168 C 
ATOM      6  H   UNL     1      32.646 -12.739 -21.594  0.00  0.00    +0.149 HD
ATOM      7  H   UNL     1      33.735 -11.188 -25.211  0.00  0.00    +0.149 HD
ENDROOT
BRANCH   4   9
ATOM      8  F   UNL     1      32.894  -4.902 -25.002  0.00  0.00    -0.204 F 
ATOM      9  C   UNL     1      32.973  -8.868 -23.855  0.00  0.00    +0.015 C 
ATOM     10  C   UNL     1      31.752  -8.229 -24.072  0.00  0.00    +0.004 C 
ATOM     11  C   UNL     1      34.166  -8.167 -24.025  0.00  0.00    +0.004 C 
ATOM     12  C   UNL     1      31.725  -6.889 -24.459  0.00  0.00    +0.030 C 
ATOM     13  C   UNL     1      34.140  -6.827 -24.412  0.00  0.00    +0.030 C 
ATOM     14  C   UNL     1      32.919  -6.188 -24.630  0.00  0.00    +0.140 C 
ENDBRANCH   4   9
BRANCH   3  16
ATOM     15  N   UNL     1      31.158  -8.834 -18.732  0.00  0.00    -0.242 NA
ATOM     16  C   UNL     1      32.124 -10.086 -21.037  0.00  0.00    +0.017 C 
ATOM     17  C   UNL     1      31.358 -10.800 -20.124  0.00  0.00    +0.022 C 
ATOM     18  C   UNL     1      32.409  -8.746 -20.798  0.00  0.00    +0.022 C 
ATOM     19  C   UNL     1      30.902 -10.134 -18.997  0.00  0.00    +0.099 C 
ATOM     20  C   UNL     1      31.907  -8.171 -19.642  0.00  0.00    +0.099 C 
ENDBRANCH   3  16
BRANCH   5  21
ATOM     21  C   UNL     1      33.607 -13.695 -23.986  0.00  0.00    +0.014 C 
ATOM     22  C   UNL     1      33.150 -14.161 -25.218  0.00  0.00    -0.000 C 
ATOM     23  C   UNL     1      34.371 -14.526 -23.166  0.00  0.00    -0.000 C 
ATOM     24  C   UNL     1      34.216 -16.289 -24.809  0.00  0.00    +0.056 C 
ATOM     25  C   UNL     1      33.454 -15.458 -25.629  0.00  0.00    +0.008 C 
ATOM     26  C   UNL     1      34.675 -15.823 -23.577  0.00  0.00    +0.008 C 
BRANCH  24  27
ATOM     27  S   UNL     1      34.607 -17.957 -25.339  0.00  0.00    +0.066 S 
ATOM     28  O   UNL     1      33.299 -18.630 -25.647  0.00  0.00    -0.251 OA
ATOM     29  C   UNL     1      35.166 -18.591 -23.736  0.00  0.00    +0.111 C 
ENDBRANCH  24  27
ENDBRANCH   5  21
TORSDOF 4
ENDMDL
MODEL 5
REMARK VINA RESULT:      -8.3     10.198     13.944
REMARK  Name = 40467016
REMARK  4 active torsions:
REMARK  status: ('A' for Active; 'I' for Inactive)
REMARK    1  A    between atoms: C_3  and  C_16
REMARK    2  A    between atoms: C_4  and  C_9
REMARK    3  A    between atoms: C_5  and  C_21
REMARK    4  A    between atoms: C_24  and  S_27
REMARK                            x       y       z     vdW  Elec       q    Type
REMARK                         _______ _______ _______ _____ _____    ______ ____
ROOT
ATOM      1  N   UNL     1      32.592 -10.941 -24.175  0.00  0.00    -0.315 N 
ATOM      2  N   UNL     1      32.662 -11.417 -22.007  0.00  0.00    -0.315 N 
ATOM      3  C   UNL     1      32.911 -12.268 -24.093  0.00  0.00    +0.059 C 
ATOM      4  C   UNL     1      32.948 -12.538 -22.745  0.00  0.00    +0.059 C 
ATOM      5  C   UNL     1      32.452 -10.473 -22.897  0.00  0.00    +0.168 C 
ATOM      6  H   UNL     1      32.482 -10.418 -25.002  0.00  0.00    +0.149 HD
ATOM      7  H   UNL     1      32.622 -11.336 -21.026  0.00  0.00    +0.149 HD
ENDROOT
BRANCH   4   9
ATOM      8  F   UNL     1      34.094 -17.483 -20.465  0.00  0.00    -0.204 F 
ATOM      9  C   UNL     1      33.244 -13.813 -22.157  0.00  0.00    +0.015 C 
ATOM     10  C   UNL     1      32.271 -14.481 -21.412  0.00  0.00    +0.004 C 
ATOM     11  C   UNL     1      34.504 -14.386 -22.330  0.00  0.00    +0.004 C 
ATOM     12  C   UNL     1      32.558 -15.721 -20.841  0.00  0.00    +0.030 C 
ATOM     13  C   UNL     1      34.791 -15.626 -21.759  0.00  0.00    +0.030 C 
ATOM     14  C   UNL     1      33.819 -16.293 -21.014  0.00  0.00    +0.140 C 
ENDBRANCH   4   9
BRANCH   3  16
ATOM     15  N   UNL     1      33.561 -14.679 -27.515  0.00  0.00    -0.242 NA
ATOM     16  C   UNL     1      33.132 -13.089 -25.256  0.00  0.00    +0.017 C 
ATOM     17  C   UNL     1      32.853 -14.450 -25.215  0.00  0.00    +0.022 C 
ATOM     18  C   UNL     1      33.625 -12.522 -26.426  0.00  0.00    +0.022 C 
ATOM     19  C   UNL     1      33.082 -15.195 -26.360  0.00  0.00    +0.099 C 
ATOM     20  C   UNL     1      33.820 -13.352 -27.519  0.00  0.00    +0.099 C 
ENDBRANCH   3  16
BRANCH   5  21
ATOM     21  C   UNL     1      32.114  -9.098 -22.618  0.00  0.00    +0.014 C 
ATOM     22  C   UNL     1      32.493  -8.518 -21.408  0.00  0.00    -0.000 C 
ATOM     23  C   UNL     1      31.409  -8.348 -23.560  0.00  0.00    -0.000 C 
ATOM     24  C   UNL     1      31.461  -6.441 -22.080  0.00  0.00    +0.056 C 
ATOM     25  C   UNL     1      32.167  -7.190 -21.138  0.00  0.00    +0.008 C 
ATOM     26  C   UNL     1      31.083  -7.020 -23.291  0.00  0.00    +0.008 C 
BRANCH  24  27
ATOM     27  S   UNL     1      31.042  -4.732 -21.733  0.00  0.00    +0.066 S 
ATOM     28  O   UNL     1      29.549  -4.679 -21.567  0.00  0.00    -0.251 OA
ATOM     29  C   UNL     1      31.418  -4.058 -23.372  0.00  0.00    +0.111 C 
ENDBRANCH  24  27
ENDBRANCH   5  21
TORSDOF 4
ENDMDL
MODEL 6
REMARK VINA RESULT:      -7.6      2.409      3.421
REMARK  Name = 40467016
REMARK  4 active torsions:
REMARK  status: ('A' for Active; 'I' for Inactive)
REMARK    1  A    between atoms: C_3  and  C_16
REMARK    2  A    between atoms: C_4  and  C_9
REMARK    3  A    between atoms: C_5  and  C_21
REMARK    4  A    between atoms: C_24  and  S_27
REMARK                            x       y       z     vdW  Elec       q    Type
REMARK                         _______ _______ _______ _____ _____    ______ ____
ROOT
ATOM      1  N   UNL     1      35.517 -22.441 -16.032  0.00  0.00    -0.315 N 
ATOM      2  N   UNL     1      37.357 -23.076 -17.102  0.00  0.00    -0.315 N 
ATOM      3  C   UNL     1      36.214 -23.219 -15.151  0.00  0.00    +0.059 C 
ATOM      4  C   UNL     1      37.345 -23.599 -15.834  0.00  0.00    +0.059 C 
ATOM      5  C   UNL     1      36.243 -22.384 -17.190  0.00  0.00    +0.168 C 
ATOM      6  H   UNL     1      34.652 -22.002 -15.865  0.00  0.00    +0.149 HD
ATOM      7  H   UNL     1      38.048 -23.192 -17.795  0.00  0.00    +0.149 HD
ENDROOT
BRANCH   4   9
ATOM      8  F   UNL     1      41.409 -26.825 -13.824  0.00  0.00    -0.204 F 
ATOM      9  C   UNL     1      38.393 -24.431 -15.315  0.00  0.00    +0.015 C 
ATOM     10  C   UNL     1      38.081 -25.641 -14.695  0.00  0.00    +0.004 C 
ATOM     11  C   UNL     1      39.724 -24.031 -15.432  0.00  0.00    +0.004 C 
ATOM     12  C   UNL     1      39.100 -26.450 -14.191  0.00  0.00    +0.030 C 
ATOM     13  C   UNL     1      40.743 -24.840 -14.928  0.00  0.00    +0.030 C 
ATOM     14  C   UNL     1      40.431 -26.049 -14.308  0.00  0.00    +0.140 C 
ENDBRANCH   4   9
BRANCH   3  16
ATOM     15  N   UNL     1      34.831 -24.038 -11.231  0.00  0.00    -0.242 NA
ATOM     16  C   UNL     1      35.742 -23.497 -13.817  0.00  0.00    +0.017 C 
ATOM     17  C   UNL     1      34.485 -24.056 -13.623  0.00  0.00    +0.022 C 
ATOM     18  C   UNL     1      36.545 -23.209 -12.719  0.00  0.00    +0.022 C 
ATOM     19  C   UNL     1      34.079 -24.305 -12.321  0.00  0.00    +0.099 C 
ATOM     20  C   UNL     1      36.049 -23.495 -11.458  0.00  0.00    +0.099 C 
ENDBRANCH   3  16
BRANCH   5  21
ATOM     21  C   UNL     1      35.792 -21.639 -18.341  0.00  0.00    +0.014 C 
ATOM     22  C   UNL     1      36.688 -20.839 -19.049  0.00  0.00    -0.000 C 
ATOM     23  C   UNL     1      34.459 -21.720 -18.746  0.00  0.00    -0.000 C 
ATOM     24  C   UNL     1      34.920 -20.200 -20.565  0.00  0.00    +0.056 C 
ATOM     25  C   UNL     1      36.252 -20.119 -20.161  0.00  0.00    +0.008 C 
ATOM     26  C   UNL     1      34.024 -21.001 -19.858  0.00  0.00    +0.008 C 
BRANCH  24  27
ATOM     27  S   UNL     1      34.360 -19.274 -21.995  0.00  0.00    +0.066 S 
ATOM     28  O   UNL     1      35.201 -19.724 -23.157  0.00  0.00    -0.251 OA
ATOM     29  C   UNL     1      34.984 -17.651 -21.486  0.00  0.00    +0.111 C 
ENDBRANCH  24  27
ENDBRANCH   5  21
TORSDOF 4
ENDMDL
MODEL 7
REMARK VINA RESULT:      -7.5      4.498      6.109
REMARK  Name = 40467016
REMARK  4 active torsions:
REMARK  status: ('A' for Active; 'I' for Inactive)
REMARK    1  A    between atoms: C_3  and  C_16
REMARK    2  A    between atoms: C_4  and  C_9
REMARK    3  A    between atoms: C_5  and  C_21
REMARK    4  A    between atoms: C_24  and  S_27
REMARK                            x       y       z     vdW  Elec       q    Type
REMARK                         _______ _______ _______ _____ _____    ______ ____
ROOT
ATOM      1  N   UNL     1      33.471 -23.776 -13.506  0.00  0.00    -0.315 N 
ATOM      2  N   UNL     1      34.257 -24.339 -15.505  0.00  0.00    -0.315 N 
ATOM      3  C   UNL     1      34.808 -24.001 -13.333  0.00  0.00    +0.059 C 
ATOM      4  C   UNL     1      35.271 -24.347 -14.581  0.00  0.00    +0.059 C 
ATOM      5  C   UNL     1      33.186 -23.992 -14.826  0.00  0.00    +0.168 C 
ATOM      6  H   UNL     1      32.830 -23.509 -12.808  0.00  0.00    +0.149 HD
ATOM      7  H   UNL     1      34.317 -24.548 -16.466  0.00  0.00    +0.149 HD
ENDROOT
BRANCH   4   9
ATOM      8  F   UNL     1      40.539 -25.626 -15.838  0.00  0.00    -0.204 F 
ATOM      9  C   UNL     1      36.630 -24.677 -14.905  0.00  0.00    +0.015 C 
ATOM     10  C   UNL     1      37.493 -23.689 -15.380  0.00  0.00    +0.004 C 
ATOM     11  C   UNL     1      37.088 -25.984 -14.745  0.00  0.00    +0.004 C 
ATOM     12  C   UNL     1      38.814 -24.009 -15.695  0.00  0.00    +0.030 C 
ATOM     13  C   UNL     1      38.408 -26.305 -15.060  0.00  0.00    +0.030 C 
ATOM     14  C   UNL     1      39.271 -25.318 -15.535  0.00  0.00    +0.140 C 
ENDBRANCH   4   9
BRANCH   3  16
ATOM     15  N   UNL     1      36.732 -23.600  -9.580  0.00  0.00    -0.242 NA
ATOM     16  C   UNL     1      35.462 -23.864 -12.056  0.00  0.00    +0.017 C 
ATOM     17  C   UNL     1      35.002 -24.579 -10.955  0.00  0.00    +0.022 C 
ATOM     18  C   UNL     1      36.556 -23.018 -11.919  0.00  0.00    +0.022 C 
ATOM     19  C   UNL     1      35.666 -24.413  -9.750  0.00  0.00    +0.099 C 
ATOM     20  C   UNL     1      37.152 -22.921 -10.672  0.00  0.00    +0.099 C 
ENDBRANCH   3  16
BRANCH   5  21
ATOM     21  C   UNL     1      31.853 -23.842 -15.357  0.00  0.00    +0.014 C 
ATOM     22  C   UNL     1      30.839 -24.709 -14.951  0.00  0.00    -0.000 C 
ATOM     23  C   UNL     1      31.578 -22.828 -16.275  0.00  0.00    -0.000 C 
ATOM     24  C   UNL     1      29.276 -23.550 -16.382  0.00  0.00    +0.056 C 
ATOM     25  C   UNL     1      29.551 -24.563 -15.464  0.00  0.00    +0.008 C 
ATOM     26  C   UNL     1      30.290 -22.682 -16.787  0.00  0.00    +0.008 C 
BRANCH  24  27
ATOM     27  S   UNL     1      27.619 -23.363 -17.041  0.00  0.00    +0.066 S 
ATOM     28  O   UNL     1      27.750 -22.604 -18.331  0.00  0.00    -0.251 OA
ATOM     29  C   UNL     1      27.000 -22.197 -15.799  0.00  0.00    +0.111 C 
ENDBRANCH  24  27
ENDBRANCH   5  21
TORSDOF 4
ENDMDL
