MODEL 1
REMARK VINA RESULT:      -9.6      0.000      0.000
REMARK  Name = 121750
REMARK  6 active torsions:
REMARK  status: ('A' for Active; 'I' for Inactive)
REMARK    1  A    between atoms: O_1  and  N_2
REMARK    2  A    between atoms: O_1  and  C_16
REMARK    3  A    between atoms: C_16  and  C_17
REMARK    4  A    between atoms: C_17  and  C_18
REMARK    5  A    between atoms: C_18  and  O_19
REMARK    6  A    between atoms: O_19  and  C_23
REMARK                            x       y       z     vdW  Elec       q    Type
REMARK                         _______ _______ _______ _____ _____    ______ ____
ROOT
ATOM      1  O   UNL     1      35.282 -24.799 -14.126  0.00  0.00    -0.252 OA
ENDROOT
BRANCH   1   2
ATOM      2  N   UNL     1      36.618 -25.146 -14.072  0.00  0.00    -0.181 N 
ATOM      3  N   UNL     1      38.948 -24.700 -13.467  0.00  0.00    -0.178 NA
ATOM      4  N   UNL     1      38.302 -26.660 -14.652  0.00  0.00    -0.304 NA
ATOM      5  N   UNL     1      36.075 -27.084 -15.245  0.00  0.00    -0.317 N 
ATOM      6  N   UNL     1      40.540 -26.270 -14.043  0.00  0.00    -0.293 N 
ATOM      7  C   UNL     1      37.553 -24.229 -13.461  0.00  0.00    +0.188 C 
ATOM      8  C   UNL     1      37.169 -24.013 -11.991  0.00  0.00    +0.051 C 
ATOM      9  C   UNL     1      37.534 -22.894 -14.215  0.00  0.00    +0.051 C 
ATOM     10  C   UNL     1      37.041 -26.308 -14.657  0.00  0.00    +0.280 C 
ATOM     11  C   UNL     1      39.235 -25.837 -14.037  0.00  0.00    +0.142 C 
ATOM     12  H   UNL     1      35.135 -26.793 -15.232  0.00  0.00    +0.146 HD
ATOM     13  H   UNL     1      36.323 -27.933 -15.679  0.00  0.00    +0.146 HD
ATOM     14  H   UNL     1      41.242 -25.724 -13.621  0.00  0.00    +0.155 HD
ATOM     15  H   UNL     1      40.772 -27.126 -14.470  0.00  0.00    +0.155 HD
ENDBRANCH   1   2
BRANCH   1  16
ATOM     16  C   UNL     1      35.081 -24.183 -15.393  0.00  0.00    +0.178 C 
BRANCH  16  17
ATOM     17  C   UNL     1      33.693 -23.564 -15.450  0.00  0.00    +0.082 C 
BRANCH  17  18
ATOM     18  C   UNL     1      33.307 -23.161 -16.863  0.00  0.00    +0.208 C 
BRANCH  18  19
ATOM     19  O   UNL     1      34.449 -23.272 -17.702  0.00  0.00    -0.474 OA
BRANCH  19  23
ATOM     20 CL   UNL     1      37.268 -22.232 -17.721  0.00  0.00    -0.079 Cl
ATOM     21 CL   UNL     1      32.493 -20.171 -21.173  0.00  0.00    -0.081 Cl
ATOM     22 CL   UNL     1      35.427 -18.829 -21.429  0.00  0.00    -0.081 Cl
ATOM     23  C   UNL     1      34.683 -22.236 -18.568  0.00  0.00    +0.150 C 
ATOM     24  C   UNL     1      35.946 -21.664 -18.674  0.00  0.00    +0.092 C 
ATOM     25  C   UNL     1      33.628 -21.767 -19.343  0.00  0.00    +0.050 C 
ATOM     26  C   UNL     1      33.838 -20.714 -20.234  0.00  0.00    +0.071 C 
ATOM     27  C   UNL     1      36.157 -20.610 -19.563  0.00  0.00    +0.027 C 
ATOM     28  C   UNL     1      35.103 -20.136 -20.344  0.00  0.00    +0.069 C 
ENDBRANCH  19  23
ENDBRANCH  18  19
ENDBRANCH  17  18
ENDBRANCH  16  17
ENDBRANCH   1  16
TORSDOF 6
ENDMDL
MODEL 2
REMARK VINA RESULT:      -9.5     10.940     13.983
REMARK  Name = 121750
REMARK  6 active torsions:
REMARK  status: ('A' for Active; 'I' for Inactive)
REMARK    1  A    between atoms: O_1  and  N_2
REMARK    2  A    between atoms: O_1  and  C_16
REMARK    3  A    between atoms: C_16  and  C_17
REMARK    4  A    between atoms: C_17  and  C_18
REMARK    5  A    between atoms: C_18  and  O_19
REMARK    6  A    between atoms: O_19  and  C_23
REMARK                            x       y       z     vdW  Elec       q    Type
REMARK                         _______ _______ _______ _____ _____    ______ ____
ROOT
ATOM      1  O   UNL     1      31.450 -11.370 -22.494  0.00  0.00    -0.252 OA
ENDROOT
BRANCH   1   2
ATOM      2  N   UNL     1      31.817 -10.252 -21.773  0.00  0.00    -0.181 N 
ATOM      3  N   UNL     1      32.629  -7.947 -21.614  0.00  0.00    -0.178 NA
ATOM      4  N   UNL     1      32.194  -9.270 -19.684  0.00  0.00    -0.304 NA
ATOM      5  N   UNL     1      31.430 -11.480 -19.831  0.00  0.00    -0.317 N 
ATOM      6  N   UNL     1      32.933  -7.044 -19.511  0.00  0.00    -0.293 N 
ATOM      7  C   UNL     1      32.256  -9.074 -22.485  0.00  0.00    +0.188 C 
ATOM      8  C   UNL     1      31.124  -8.574 -23.391  0.00  0.00    +0.051 C 
ATOM      9  C   UNL     1      33.495  -9.411 -23.324  0.00  0.00    +0.051 C 
ATOM     10  C   UNL     1      31.827 -10.299 -20.405  0.00  0.00    +0.280 C 
ATOM     11  C   UNL     1      32.581  -8.099 -20.320  0.00  0.00    +0.142 C 
ATOM     12  H   UNL     1      31.159 -12.237 -20.400  0.00  0.00    +0.146 HD
ATOM     13  H   UNL     1      31.415 -11.570 -18.850  0.00  0.00    +0.146 HD
ATOM     14  H   UNL     1      33.216  -6.190 -19.910  0.00  0.00    +0.155 HD
ATOM     15  H   UNL     1      32.902  -7.144 -18.532  0.00  0.00    +0.155 HD
ENDBRANCH   1   2
BRANCH   1  16
ATOM     16  C   UNL     1      32.648 -12.101 -22.732  0.00  0.00    +0.178 C 
BRANCH  16  17
ATOM     17  C   UNL     1      32.315 -13.556 -23.022  0.00  0.00    +0.082 C 
BRANCH  17  18
ATOM     18  C   UNL     1      33.237 -14.154 -24.071  0.00  0.00    +0.208 C 
BRANCH  18  19
ATOM     19  O   UNL     1      34.477 -14.484 -23.459  0.00  0.00    -0.474 OA
BRANCH  19  23
ATOM     20 CL   UNL     1      34.624 -14.720 -20.467  0.00  0.00    -0.079 Cl
ATOM     21 CL   UNL     1      34.857 -19.386 -24.607  0.00  0.00    -0.081 Cl
ATOM     22 CL   UNL     1      35.044 -19.975 -21.430  0.00  0.00    -0.081 Cl
ATOM     23  C   UNL     1      34.610 -15.761 -22.980  0.00  0.00    +0.150 C 
ATOM     24  C   UNL     1      34.689 -16.008 -21.613  0.00  0.00    +0.092 C 
ATOM     25  C   UNL     1      34.663 -16.810 -23.892  0.00  0.00    +0.050 C 
ATOM     26  C   UNL     1      34.797 -18.121 -23.432  0.00  0.00    +0.071 C 
ATOM     27  C   UNL     1      34.824 -17.317 -21.153  0.00  0.00    +0.027 C 
ATOM     28  C   UNL     1      34.877 -18.374 -22.062  0.00  0.00    +0.069 C 
ENDBRANCH  19  23
ENDBRANCH  18  19
ENDBRANCH  17  18
ENDBRANCH  16  17
ENDBRANCH   1  16
TORSDOF 6
ENDMDL
MODEL 3
REMARK VINA RESULT:      -9.3     11.174     14.267
REMARK  Name = 121750
REMARK  6 active torsions:
REMARK  status: ('A' for Active; 'I' for Inactive)
REMARK    1  A    between atoms: O_1  and  N_2
REMARK    2  A    between atoms: O_1  and  C_16
REMARK    3  A    between atoms: C_16  and  C_17
REMARK    4  A    between atoms: C_17  and  C_18
REMARK    5  A    between atoms: C_18  and  O_19
REMARK    6  A    between atoms: O_19  and  C_23
REMARK                            x       y       z     vdW  Elec       q    Type
REMARK                         _______ _______ _______ _____ _____    ______ ____
ROOT
ATOM      1  O   UNL     1      31.239 -11.190 -22.413  0.00  0.00    -0.252 OA
ENDROOT
BRANCH   1   2
ATOM      2  N   UNL     1      31.677 -10.089 -21.703  0.00  0.00    -0.181 N 
ATOM      3  N   UNL     1      32.613  -7.830 -21.570  0.00  0.00    -0.178 NA
ATOM      4  N   UNL     1      32.143  -9.121 -19.626  0.00  0.00    -0.304 NA
ATOM      5  N   UNL     1      31.261 -11.287 -19.749  0.00  0.00    -0.317 N 
ATOM      6  N   UNL     1      33.002  -6.936 -19.478  0.00  0.00    -0.293 N 
ATOM      7  C   UNL     1      32.166  -8.939 -22.430  0.00  0.00    +0.188 C 
ATOM      8  C   UNL     1      31.045  -8.383 -23.317  0.00  0.00    +0.051 C 
ATOM      9  C   UNL     1      33.370  -9.345 -23.289  0.00  0.00    +0.051 C 
ATOM     10  C   UNL     1      31.709 -10.132 -20.336  0.00  0.00    +0.280 C 
ATOM     11  C   UNL     1      32.580  -7.974 -20.275  0.00  0.00    +0.142 C 
ATOM     12  H   UNL     1      30.940 -12.031 -20.309  0.00  0.00    +0.146 HD
ATOM     13  H   UNL     1      31.258 -11.373 -18.768  0.00  0.00    +0.146 HD
ATOM     14  H   UNL     1      33.323  -6.100 -19.886  0.00  0.00    +0.155 HD
ATOM     15  H   UNL     1      32.984  -7.030 -18.498  0.00  0.00    +0.155 HD
ENDBRANCH   1   2
BRANCH   1  16
ATOM     16  C   UNL     1      32.408 -11.900 -22.807  0.00  0.00    +0.178 C 
BRANCH  16  17
ATOM     17  C   UNL     1      32.302 -13.352 -22.365  0.00  0.00    +0.082 C 
BRANCH  17  18
ATOM     18  C   UNL     1      33.666 -13.982 -22.147  0.00  0.00    +0.208 C 
BRANCH  18  19
ATOM     19  O   UNL     1      34.249 -14.267 -23.412  0.00  0.00    -0.474 OA
BRANCH  19  23
ATOM     20 CL   UNL     1      33.292 -15.047 -26.152  0.00  0.00    -0.079 Cl
ATOM     21 CL   UNL     1      35.899 -18.789 -21.890  0.00  0.00    -0.081 Cl
ATOM     22 CL   UNL     1      34.968 -19.945 -24.767  0.00  0.00    -0.081 Cl
ATOM     23  C   UNL     1      34.413 -15.589 -23.734  0.00  0.00    +0.150 C 
ATOM     24  C   UNL     1      34.012 -16.080 -24.972  0.00  0.00    +0.092 C 
ATOM     25  C   UNL     1      34.993 -16.434 -22.793  0.00  0.00    +0.050 C 
ATOM     26  C   UNL     1      35.173 -17.784 -23.094  0.00  0.00    +0.071 C 
ATOM     27  C   UNL     1      34.191 -17.429 -25.273  0.00  0.00    +0.027 C 
ATOM     28  C   UNL     1      34.772 -18.282 -24.334  0.00  0.00    +0.069 C 
ENDBRANCH  19  23
ENDBRANCH  18  19
ENDBRANCH  17  18
ENDBRANCH  16  17
ENDBRANCH   1  16
TORSDOF 6
ENDMDL
MODEL 4
REMARK VINA RESULT:      -9.0      1.207      1.829
REMARK  Name = 121750
REMARK  6 active torsions:
REMARK  status: ('A' for Active; 'I' for Inactive)
REMARK    1  A    between atoms: O_1  and  N_2
REMARK    2  A    between atoms: O_1  and  C_16
REMARK    3  A    between atoms: C_16  and  C_17
REMARK    4  A    between atoms: C_17  and  C_18
REMARK    5  A    between atoms: C_18  and  O_19
REMARK    6  A    between atoms: O_19  and  C_23
REMARK                            x       y       z     vdW  Elec       q    Type
REMARK                         _______ _______ _______ _____ _____    ______ ____
ROOT
ATOM      1  O   UNL     1      35.330 -24.810 -13.867  0.00  0.00    -0.252 OA
ENDROOT
BRANCH   1   2
ATOM      2  N   UNL     1      36.657 -25.192 -13.878  0.00  0.00    -0.181 N 
ATOM      3  N   UNL     1      38.999 -24.903 -13.226  0.00  0.00    -0.178 NA
ATOM      4  N   UNL     1      38.302 -26.634 -14.704  0.00  0.00    -0.304 NA
ATOM      5  N   UNL     1      36.064 -26.906 -15.341  0.00  0.00    -0.317 N 
ATOM      6  N   UNL     1      40.550 -26.399 -14.056  0.00  0.00    -0.293 N 
ATOM      7  C   UNL     1      37.616 -24.407 -13.135  0.00  0.00    +0.188 C 
ATOM      8  C   UNL     1      37.242 -24.419 -11.648  0.00  0.00    +0.051 C 
ATOM      9  C   UNL     1      37.628 -22.968 -13.667  0.00  0.00    +0.051 C 
ATOM     10  C   UNL     1      37.050 -26.256 -14.644  0.00  0.00    +0.280 C 
ATOM     11  C   UNL     1      39.257 -25.941 -13.972  0.00  0.00    +0.142 C 
ATOM     12  H   UNL     1      35.131 -26.598 -15.276  0.00  0.00    +0.146 HD
ATOM     13  H   UNL     1      36.289 -27.680 -15.906  0.00  0.00    +0.146 HD
ATOM     14  H   UNL     1      41.267 -25.944 -13.557  0.00  0.00    +0.155 HD
ATOM     15  H   UNL     1      40.760 -27.181 -14.615  0.00  0.00    +0.155 HD
ENDBRANCH   1   2
BRANCH   1  16
ATOM     16  C   UNL     1      34.986 -24.524 -15.219  0.00  0.00    +0.178 C 
BRANCH  16  17
ATOM     17  C   UNL     1      34.704 -23.038 -15.375  0.00  0.00    +0.082 C 
BRANCH  17  18
ATOM     18  C   UNL     1      35.748 -22.347 -16.235  0.00  0.00    +0.208 C 
BRANCH  18  19
ATOM     19  O   UNL     1      35.674 -22.865 -17.556  0.00  0.00    -0.474 OA
BRANCH  19  23
ATOM     20 CL   UNL     1      32.720 -22.752 -18.098  0.00  0.00    -0.079 Cl
ATOM     21 CL   UNL     1      37.184 -19.467 -20.970  0.00  0.00    -0.081 Cl
ATOM     22 CL   UNL     1      34.073 -19.114 -21.792  0.00  0.00    -0.081 Cl
ATOM     23  C   UNL     1      35.294 -21.994 -18.542  0.00  0.00    +0.150 C 
ATOM     24  C   UNL     1      33.956 -21.846 -18.891  0.00  0.00    +0.092 C 
ATOM     25  C   UNL     1      36.279 -21.255 -19.191  0.00  0.00    +0.050 C 
ATOM     26  C   UNL     1      35.921 -20.359 -20.199  0.00  0.00    +0.071 C 
ATOM     27  C   UNL     1      33.597 -20.951 -19.899  0.00  0.00    +0.027 C 
ATOM     28  C   UNL     1      34.580 -20.207 -20.553  0.00  0.00    +0.069 C 
ENDBRANCH  19  23
ENDBRANCH  18  19
ENDBRANCH  17  18
ENDBRANCH  16  17
ENDBRANCH   1  16
TORSDOF 6
ENDMDL
MODEL 5
REMARK VINA RESULT:      -8.9     10.156     12.731
REMARK  Name = 121750
REMARK  6 active torsions:
REMARK  status: ('A' for Active; 'I' for Inactive)
REMARK    1  A    between atoms: O_1  and  N_2
REMARK    2  A    between atoms: O_1  and  C_16
REMARK    3  A    between atoms: C_16  and  C_17
REMARK    4  A    between atoms: C_17  and  C_18
REMARK    5  A    between atoms: C_18  and  O_19
REMARK    6  A    between atoms: O_19  and  C_23
REMARK                            x       y       z     vdW  Elec       q    Type
REMARK                         _______ _______ _______ _____ _____    ______ ____
ROOT
ATOM      1  O   UNL     1      33.415 -15.345 -23.434  0.00  0.00    -0.252 OA
ENDROOT
BRANCH   1   2
ATOM      2  N   UNL     1      34.164 -16.257 -22.717  0.00  0.00    -0.181 N 
ATOM      3  N   UNL     1      34.922 -17.263 -20.617  0.00  0.00    -0.178 NA
ATOM      4  N   UNL     1      35.775 -17.952 -22.730  0.00  0.00    -0.304 NA
ATOM      5  N   UNL     1      35.063 -16.982 -24.740  0.00  0.00    -0.317 N 
ATOM      6  N   UNL     1      36.484 -18.959 -20.726  0.00  0.00    -0.293 N 
ATOM      7  C   UNL     1      34.074 -16.255 -21.275  0.00  0.00    +0.188 C 
ATOM      8  C   UNL     1      32.629 -16.553 -20.854  0.00  0.00    +0.051 C 
ATOM      9  C   UNL     1      34.512 -14.889 -20.732  0.00  0.00    +0.051 C 
ATOM     10  C   UNL     1      35.027 -17.092 -23.373  0.00  0.00    +0.280 C 
ATOM     11  C   UNL     1      35.692 -18.022 -21.345  0.00  0.00    +0.142 C 
ATOM     12  H   UNL     1      34.488 -16.326 -25.196  0.00  0.00    +0.146 HD
ATOM     13  H   UNL     1      35.664 -17.560 -25.265  0.00  0.00    +0.146 HD
ATOM     14  H   UNL     1      36.465 -19.051 -19.746  0.00  0.00    +0.155 HD
ATOM     15  H   UNL     1      37.071 -19.539 -21.263  0.00  0.00    +0.155 HD
ENDBRANCH   1   2
BRANCH   1  16
ATOM     16  C   UNL     1      34.214 -14.173 -23.546  0.00  0.00    +0.178 C 
BRANCH  16  17
ATOM     17  C   UNL     1      33.622 -13.244 -24.594  0.00  0.00    +0.082 C 
BRANCH  17  18
ATOM     18  C   UNL     1      33.736 -11.784 -24.192  0.00  0.00    +0.208 C 
BRANCH  18  19
ATOM     19  O   UNL     1      32.759 -11.502 -23.199  0.00  0.00    -0.474 OA
BRANCH  19  23
ATOM     20 CL   UNL     1      31.295 -11.066 -20.611  0.00  0.00    -0.079 Cl
ATOM     21 CL   UNL     1      33.719  -6.676 -24.329  0.00  0.00    -0.081 Cl
ATOM     22 CL   UNL     1      32.191  -5.874 -21.590  0.00  0.00    -0.081 Cl
ATOM     23  C   UNL     1      32.623 -10.193 -22.818  0.00  0.00    +0.150 C 
ATOM     24  C   UNL     1      31.965  -9.854 -21.640  0.00  0.00    +0.092 C 
ATOM     25  C   UNL     1      33.158  -9.204 -23.638  0.00  0.00    +0.050 C 
ATOM     26  C   UNL     1      33.035  -7.863 -23.275  0.00  0.00    +0.071 C 
ATOM     27  C   UNL     1      31.841  -8.514 -21.277  0.00  0.00    +0.027 C 
ATOM     28  C   UNL     1      32.376  -7.517 -22.094  0.00  0.00    +0.069 C 
ENDBRANCH  19  23
ENDBRANCH  18  19
ENDBRANCH  17  18
ENDBRANCH  16  17
ENDBRANCH   1  16
TORSDOF 6
ENDMDL
MODEL 6
REMARK VINA RESULT:      -8.9      2.125      3.318
REMARK  Name = 121750
REMARK  6 active torsions:
REMARK  status: ('A' for Active; 'I' for Inactive)
REMARK    1  A    between atoms: O_1  and  N_2
REMARK    2  A    between atoms: O_1  and  C_16
REMARK    3  A    between atoms: C_16  and  C_17
REMARK    4  A    between atoms: C_17  and  C_18
REMARK    5  A    between atoms: C_18  and  O_19
REMARK    6  A    between atoms: O_19  and  C_23
REMARK                            x       y       z     vdW  Elec       q    Type
REMARK                         _______ _______ _______ _____ _____    ______ ____
ROOT
ATOM      1  O   UNL     1      36.045 -24.527 -15.399  0.00  0.00    -0.252 OA
ENDROOT
BRANCH   1   2
ATOM      2  N   UNL     1      35.926 -24.580 -14.025  0.00  0.00    -0.181 N 
ATOM      3  N   UNL     1      36.699 -25.278 -11.809  0.00  0.00    -0.178 NA
ATOM      4  N   UNL     1      34.661 -24.087 -12.120  0.00  0.00    -0.304 NA
ATOM      5  N   UNL     1      33.911 -23.429 -14.240  0.00  0.00    -0.317 N 
ATOM      6  N   UNL     1      35.408 -24.713  -9.980  0.00  0.00    -0.293 N 
ATOM      7  C   UNL     1      36.933 -25.281 -13.262  0.00  0.00    +0.188 C 
ATOM      8  C   UNL     1      38.297 -24.616 -13.488  0.00  0.00    +0.051 C 
ATOM      9  C   UNL     1      36.982 -26.750 -13.699  0.00  0.00    +0.051 C 
ATOM     10  C   UNL     1      34.827 -24.035 -13.418  0.00  0.00    +0.280 C 
ATOM     11  C   UNL     1      35.625 -24.709 -11.337  0.00  0.00    +0.142 C 
ATOM     12  H   UNL     1      34.063 -23.405 -15.212  0.00  0.00    +0.146 HD
ATOM     13  H   UNL     1      33.102 -23.017 -13.857  0.00  0.00    +0.146 HD
ATOM     14  H   UNL     1      36.060 -25.141  -9.378  0.00  0.00    +0.155 HD
ATOM     15  H   UNL     1      34.602 -24.287  -9.609  0.00  0.00    +0.155 HD
ENDBRANCH   1   2
BRANCH   1  16
ATOM     16  C   UNL     1      35.809 -23.173 -15.768  0.00  0.00    +0.178 C 
BRANCH  16  17
ATOM     17  C   UNL     1      37.134 -22.468 -16.016  0.00  0.00    +0.082 C 
BRANCH  17  18
ATOM     18  C   UNL     1      37.099 -21.615 -17.272  0.00  0.00    +0.208 C 
BRANCH  18  19
ATOM     19  O   UNL     1      36.239 -22.229 -18.223  0.00  0.00    -0.474 OA
BRANCH  19  23
ATOM     20 CL   UNL     1      33.253 -22.442 -18.486  0.00  0.00    -0.079 Cl
ATOM     21 CL   UNL     1      37.047 -18.717 -21.758  0.00  0.00    -0.081 Cl
ATOM     22 CL   UNL     1      33.853 -18.709 -22.285  0.00  0.00    -0.081 Cl
ATOM     23  C   UNL     1      35.677 -21.412 -19.168  0.00  0.00    +0.150 C 
ATOM     24  C   UNL     1      34.304 -21.413 -19.390  0.00  0.00    +0.092 C 
ATOM     25  C   UNL     1      36.511 -20.577 -19.905  0.00  0.00    +0.050 C 
ATOM     26  C   UNL     1      35.966 -19.734 -20.873  0.00  0.00    +0.071 C 
ATOM     27  C   UNL     1      33.758 -20.571 -20.358  0.00  0.00    +0.027 C 
ATOM     28  C   UNL     1      34.589 -19.731 -21.100  0.00  0.00    +0.069 C 
ENDBRANCH  19  23
ENDBRANCH  18  19
ENDBRANCH  17  18
ENDBRANCH  16  17
ENDBRANCH   1  16
TORSDOF 6
ENDMDL
MODEL 7
REMARK VINA RESULT:      -8.9      6.962      9.795
REMARK  Name = 121750
REMARK  6 active torsions:
REMARK  status: ('A' for Active; 'I' for Inactive)
REMARK    1  A    between atoms: O_1  and  N_2
REMARK    2  A    between atoms: O_1  and  C_16
REMARK    3  A    between atoms: C_16  and  C_17
REMARK    4  A    between atoms: C_17  and  C_18
REMARK    5  A    between atoms: C_18  and  O_19
REMARK    6  A    between atoms: O_19  and  C_23
REMARK                            x       y       z     vdW  Elec       q    Type
REMARK                         _______ _______ _______ _____ _____    ______ ____
ROOT
ATOM      1  O   UNL     1      35.034 -17.780 -21.091  0.00  0.00    -0.252 OA
ENDROOT
BRANCH   1   2
ATOM      2  N   UNL     1      34.599 -16.864 -22.028  0.00  0.00    -0.181 N 
ATOM      3  N   UNL     1      33.368 -14.849 -22.677  0.00  0.00    -0.178 NA
ATOM      4  N   UNL     1      34.473 -16.226 -24.274  0.00  0.00    -0.304 NA
ATOM      5  N   UNL     1      35.641 -18.161 -23.658  0.00  0.00    -0.317 N 
ATOM      6  N   UNL     1      33.331 -14.272 -24.912  0.00  0.00    -0.293 N 
ATOM      7  C   UNL     1      33.779 -15.757 -21.593  0.00  0.00    +0.188 C 
ATOM      8  C   UNL     1      34.561 -14.908 -20.582  0.00  0.00    +0.051 C 
ATOM      9  C   UNL     1      32.491 -16.289 -20.952  0.00  0.00    +0.051 C 
ATOM     10  C   UNL     1      34.889 -17.056 -23.351  0.00  0.00    +0.280 C 
ATOM     11  C   UNL     1      33.719 -15.120 -23.903  0.00  0.00    +0.142 C 
ATOM     12  H   UNL     1      35.940 -18.767 -22.942  0.00  0.00    +0.146 HD
ATOM     13  H   UNL     1      35.882 -18.348 -24.595  0.00  0.00    +0.146 HD
ATOM     14  H   UNL     1      32.794 -13.472 -24.705  0.00  0.00    +0.155 HD
ATOM     15  H   UNL     1      33.588 -14.463 -25.843  0.00  0.00    +0.155 HD
ENDBRANCH   1   2
BRANCH   1  16
ATOM     16  C   UNL     1      34.140 -18.885 -21.170  0.00  0.00    +0.178 C 
BRANCH  16  17
ATOM     17  C   UNL     1      34.811 -20.131 -20.611  0.00  0.00    +0.082 C 
BRANCH  17  18
ATOM     18  C   UNL     1      33.845 -20.988 -19.812  0.00  0.00    +0.208 C 
BRANCH  18  19
ATOM     19  O   UNL     1      34.520 -22.161 -19.378  0.00  0.00    -0.474 OA
BRANCH  19  23
ATOM     20 CL   UNL     1      36.915 -21.994 -17.571  0.00  0.00    -0.079 Cl
ATOM     21 CL   UNL     1      31.184 -23.925 -16.025  0.00  0.00    -0.081 Cl
ATOM     22 CL   UNL     1      33.563 -23.864 -13.831  0.00  0.00    -0.081 Cl
ATOM     23  C   UNL     1      34.304 -22.557 -18.085  0.00  0.00    +0.150 C 
ATOM     24  C   UNL     1      35.331 -22.528 -17.146  0.00  0.00    +0.092 C 
ATOM     25  C   UNL     1      33.032 -22.990 -17.726  0.00  0.00    +0.050 C 
ATOM     26  C   UNL     1      32.783 -23.398 -16.416  0.00  0.00    +0.071 C 
ATOM     27  C   UNL     1      35.083 -22.937 -15.836  0.00  0.00    +0.027 C 
ATOM     28  C   UNL     1      33.808 -23.371 -15.470  0.00  0.00    +0.069 C 
ENDBRANCH  19  23
ENDBRANCH  18  19
ENDBRANCH  17  18
ENDBRANCH  16  17
ENDBRANCH   1  16
TORSDOF 6
ENDMDL
MODEL 8
REMARK VINA RESULT:      -8.9     10.162     12.802
REMARK  Name = 121750
REMARK  6 active torsions:
REMARK  status: ('A' for Active; 'I' for Inactive)
REMARK    1  A    between atoms: O_1  and  N_2
REMARK    2  A    between atoms: O_1  and  C_16
REMARK    3  A    between atoms: C_16  and  C_17
REMARK    4  A    between atoms: C_17  and  C_18
REMARK    5  A    between atoms: C_18  and  O_19
REMARK    6  A    between atoms: O_19  and  C_23
REMARK                            x       y       z     vdW  Elec       q    Type
REMARK                         _______ _______ _______ _____ _____    ______ ____
ROOT
ATOM      1  O   UNL     1      33.253 -14.902 -23.361  0.00  0.00    -0.252 OA
ENDROOT
BRANCH   1   2
ATOM      2  N   UNL     1      33.973 -15.873 -22.694  0.00  0.00    -0.181 N 
ATOM      3  N   UNL     1      34.752 -16.972 -20.649  0.00  0.00    -0.178 NA
ATOM      4  N   UNL     1      35.475 -17.662 -22.809  0.00  0.00    -0.304 NA
ATOM      5  N   UNL     1      34.743 -16.605 -24.768  0.00  0.00    -0.317 N 
ATOM      6  N   UNL     1      36.201 -18.757 -20.858  0.00  0.00    -0.293 N 
ATOM      7  C   UNL     1      33.942 -15.899 -21.250  0.00  0.00    +0.188 C 
ATOM      8  C   UNL     1      32.500 -16.119 -20.775  0.00  0.00    +0.051 C 
ATOM      9  C   UNL     1      34.485 -14.575 -20.699  0.00  0.00    +0.051 C 
ATOM     10  C   UNL     1      34.756 -16.744 -23.403  0.00  0.00    +0.280 C 
ATOM     11  C   UNL     1      35.444 -17.759 -21.424  0.00  0.00    +0.142 C 
ATOM     12  H   UNL     1      34.192 -15.906 -25.186  0.00  0.00    +0.146 HD
ATOM     13  H   UNL     1      35.286 -17.207 -25.329  0.00  0.00    +0.146 HD
ATOM     14  H   UNL     1      36.216 -18.869 -19.880  0.00  0.00    +0.155 HD
ATOM     15  H   UNL     1      36.730 -19.358 -21.431  0.00  0.00    +0.155 HD
ENDBRANCH   1   2
BRANCH   1  16
ATOM     16  C   UNL     1      34.146 -13.812 -23.562  0.00  0.00    +0.178 C 
BRANCH  16  17
ATOM     17  C   UNL     1      33.553 -12.840 -24.571  0.00  0.00    +0.082 C 
BRANCH  17  18
ATOM     18  C   UNL     1      34.242 -11.487 -24.532  0.00  0.00    +0.208 C 
BRANCH  18  19
ATOM     19  O   UNL     1      33.255 -10.466 -24.589  0.00  0.00    -0.474 OA
BRANCH  19  23
ATOM     20 CL   UNL     1      34.468  -7.731 -24.311  0.00  0.00    -0.079 Cl
ATOM     21 CL   UNL     1      30.850 -10.663 -20.154  0.00  0.00    -0.081 Cl
ATOM     22 CL   UNL     1      32.008  -7.700 -19.551  0.00  0.00    -0.081 Cl
ATOM     23  C   UNL     1      32.969  -9.817 -23.417  0.00  0.00    +0.150 C 
ATOM     24  C   UNL     1      33.469  -8.544 -23.163  0.00  0.00    +0.092 C 
ATOM     25  C   UNL     1      32.164 -10.459 -22.482  0.00  0.00    +0.050 C 
ATOM     26  C   UNL     1      31.855  -9.820 -21.280  0.00  0.00    +0.071 C 
ATOM     27  C   UNL     1      33.161  -7.905 -21.962  0.00  0.00    +0.027 C 
ATOM     28  C   UNL     1      32.354  -8.543 -21.020  0.00  0.00    +0.069 C 
ENDBRANCH  19  23
ENDBRANCH  18  19
ENDBRANCH  17  18
ENDBRANCH  16  17
ENDBRANCH   1  16
TORSDOF 6
ENDMDL
MODEL 9
REMARK VINA RESULT:      -8.9     13.109     16.244
REMARK  Name = 121750
REMARK  6 active torsions:
REMARK  status: ('A' for Active; 'I' for Inactive)
REMARK    1  A    between atoms: O_1  and  N_2
REMARK    2  A    between atoms: O_1  and  C_16
REMARK    3  A    between atoms: C_16  and  C_17
REMARK    4  A    between atoms: C_17  and  C_18
REMARK    5  A    between atoms: C_18  and  O_19
REMARK    6  A    between atoms: O_19  and  C_23
REMARK                            x       y       z     vdW  Elec       q    Type
REMARK                         _______ _______ _______ _____ _____    ______ ____
ROOT
ATOM      1  O   UNL     1      33.392  -8.750 -22.561  0.00  0.00    -0.252 OA
ENDROOT
BRANCH   1   2
ATOM      2  N   UNL     1      32.597  -7.632 -22.402  0.00  0.00    -0.181 N 
ATOM      3  N   UNL     1      31.263  -5.779 -23.287  0.00  0.00    -0.178 NA
ATOM      4  N   UNL     1      31.637  -6.067 -20.954  0.00  0.00    -0.304 NA
ATOM      5  N   UNL     1      32.924  -7.830 -20.104  0.00  0.00    -0.317 N 
ATOM      6  N   UNL     1      30.318  -4.305 -21.782  0.00  0.00    -0.293 N 
ATOM      7  C   UNL     1      32.091  -6.962 -23.578  0.00  0.00    +0.188 C 
ATOM      8  C   UNL     1      31.210  -7.930 -24.377  0.00  0.00    +0.051 C 
ATOM      9  C   UNL     1      33.263  -6.478 -24.440  0.00  0.00    +0.051 C 
ATOM     10  C   UNL     1      32.362  -7.140 -21.147  0.00  0.00    +0.280 C 
ATOM     11  C   UNL     1      31.089  -5.412 -22.048  0.00  0.00    +0.142 C 
ATOM     12  H   UNL     1      33.465  -8.634 -20.280  0.00  0.00    +0.146 HD
ATOM     13  H   UNL     1      32.786  -7.523 -19.178  0.00  0.00    +0.146 HD
ATOM     14  H   UNL     1      29.906  -3.803 -22.522  0.00  0.00    +0.155 HD
ATOM     15  H   UNL     1      30.178  -4.015 -20.852  0.00  0.00    +0.155 HD
ENDBRANCH   1   2
BRANCH   1  16
ATOM     16  C   UNL     1      32.517  -9.872 -22.512  0.00  0.00    +0.178 C 
BRANCH  16  17
ATOM     17  C   UNL     1      33.033 -10.968 -23.431  0.00  0.00    +0.082 C 
BRANCH  17  18
ATOM     18  C   UNL     1      32.606 -12.349 -22.966  0.00  0.00    +0.208 C 
BRANCH  18  19
ATOM     19  O   UNL     1      32.685 -13.250 -24.063  0.00  0.00    -0.474 OA
BRANCH  19  23
ATOM     20 CL   UNL     1      33.169 -14.907 -26.523  0.00  0.00    -0.079 Cl
ATOM     21 CL   UNL     1      34.919 -16.267 -20.687  0.00  0.00    -0.081 Cl
ATOM     22 CL   UNL     1      35.596 -18.275 -23.134  0.00  0.00    -0.081 Cl
ATOM     23  C   UNL     1      33.362 -14.422 -23.854  0.00  0.00    +0.150 C 
ATOM     24  C   UNL     1      33.651 -15.281 -24.909  0.00  0.00    +0.092 C 
ATOM     25  C   UNL     1      33.758 -14.738 -22.558  0.00  0.00    +0.050 C 
ATOM     26  C   UNL     1      34.450 -15.925 -22.315  0.00  0.00    +0.071 C 
ATOM     27  C   UNL     1      34.342 -16.468 -24.667  0.00  0.00    +0.027 C 
ATOM     28  C   UNL     1      34.742 -16.790 -23.370  0.00  0.00    +0.069 C 
ENDBRANCH  19  23
ENDBRANCH  18  19
ENDBRANCH  17  18
ENDBRANCH  16  17
ENDBRANCH   1  16
TORSDOF 6
ENDMDL
