MODEL 1
REMARK VINA RESULT:      -7.1      0.000      0.000
REMARK  Name = 59509752
REMARK  6 active torsions:
REMARK  status: ('A' for Active; 'I' for Inactive)
REMARK    1  A    between atoms: C_1  and  C_10
REMARK    2  A    between atoms: C_1  and  C_15
REMARK    3  A    between atoms: C_7  and  C_8
REMARK    4  A    between atoms: C_10  and  C_12
REMARK    5  A    between atoms: C_12  and  O_13
REMARK    6  A    between atoms: C_15  and  N_16
REMARK                            x       y       z     vdW  Elec       q    Type
REMARK                         _______ _______ _______ _____ _____    ______ ____
ROOT
ATOM      1  C   UNL     1      34.666 -17.756 -21.823  0.00  0.00    -0.009 C 
ATOM      2  C   UNL     1      34.294 -19.236 -22.008  0.00  0.00    -0.001 C 
ATOM      3  C   UNL     1      35.642 -19.634 -21.352  0.00  0.00    -0.000 C 
ATOM      4  C   UNL     1      35.791 -18.171 -20.859  0.00  0.00    -0.002 C 
ATOM      5  C   UNL     1      35.276 -20.688 -20.304  0.00  0.00    -0.000 C 
ATOM      6  C   UNL     1      33.238 -19.792 -21.136  0.00  0.00    -0.000 C 
ATOM      7  C   UNL     1      33.776 -20.599 -20.212  0.00  0.00    -0.000 C 
ENDROOT
BRANCH   7   8
ATOM      8  C   UNL     1      33.038 -21.359 -19.169  0.00  0.00    -0.000 C 
ATOM      9  C   UNL     1      33.788 -22.607 -18.731  0.00  0.00    +0.000 C 
ENDBRANCH   7   8
BRANCH   1  10
ATOM     10  C   UNL     1      33.628 -16.851 -21.198  0.00  0.00    +0.107 C 
BRANCH  10  12
ATOM     11  O   UNL     1      34.971 -15.085 -20.203  0.00  0.00    -0.250 OA
ATOM     12  C   UNL     1      34.097 -15.433 -20.983  0.00  0.00    +0.314 C 
BRANCH  12  13
ATOM     13  O   UNL     1      33.412 -14.575 -21.782  0.00  0.00    -0.480 OA
ATOM     14  H   UNL     1      33.771 -13.732 -21.980  0.00  0.00    +0.295 HD
ENDBRANCH  12  13
ENDBRANCH  10  12
ENDBRANCH   1  10
BRANCH   1  15
ATOM     15  C   UNL     1      35.199 -17.137 -23.101  0.00  0.00    -0.085 C 
BRANCH  15  16
ATOM     16  N   UNL     1      34.673 -17.824 -24.276  0.00  0.00    +0.380 N 
ATOM     17  H   UNL     1      34.131 -17.168 -24.840  0.00  0.00    -0.089 HD
ATOM     18  H   UNL     1      34.072 -18.595 -23.980  0.00  0.00    -0.089 HD
ATOM     19  H   UNL     1      35.446 -18.191 -24.831  0.00  0.00    -0.089 HD
ENDBRANCH  15  16
ENDBRANCH   1  15
TORSDOF 6
ENDMDL
MODEL 2
REMARK VINA RESULT:      -7.1      7.253      9.620
REMARK  Name = 59509752
REMARK  6 active torsions:
REMARK  status: ('A' for Active; 'I' for Inactive)
REMARK    1  A    between atoms: C_1  and  C_10
REMARK    2  A    between atoms: C_1  and  C_15
REMARK    3  A    between atoms: C_7  and  C_8
REMARK    4  A    between atoms: C_10  and  C_12
REMARK    5  A    between atoms: C_12  and  O_13
REMARK    6  A    between atoms: C_15  and  N_16
REMARK                            x       y       z     vdW  Elec       q    Type
REMARK                         _______ _______ _______ _____ _____    ______ ____
ROOT
ATOM      1  C   UNL     1      36.686 -24.332 -14.535  0.00  0.00    -0.009 C 
ATOM      2  C   UNL     1      35.974 -23.029 -14.932  0.00  0.00    -0.001 C 
ATOM      3  C   UNL     1      37.320 -22.485 -15.478  0.00  0.00    -0.000 C 
ATOM      4  C   UNL     1      37.889 -23.927 -15.404  0.00  0.00    -0.002 C 
ATOM      5  C   UNL     1      36.991 -21.937 -16.868  0.00  0.00    -0.000 C 
ATOM      6  C   UNL     1      35.056 -23.074 -16.090  0.00  0.00    -0.000 C 
ATOM      7  C   UNL     1      35.608 -22.463 -17.145  0.00  0.00    -0.000 C 
ENDROOT
BRANCH   7   8
ATOM      8  C   UNL     1      34.988 -22.285 -18.485  0.00  0.00    -0.000 C 
ATOM      9  C   UNL     1      35.894 -21.521 -19.439  0.00  0.00    +0.000 C 
ENDBRANCH   7   8
BRANCH   1  10
ATOM     10  C   UNL     1      36.039 -25.633 -14.954  0.00  0.00    +0.107 C 
BRANCH  10  12
ATOM     11  O   UNL     1      37.949 -27.084 -14.556  0.00  0.00    -0.250 OA
ATOM     12  C   UNL     1      37.021 -26.735 -15.270  0.00  0.00    +0.314 C 
BRANCH  12  13
ATOM     13  O   UNL     1      36.736 -27.301 -16.471  0.00  0.00    -0.480 OA
ATOM     14  H   UNL     1      36.091 -26.913 -17.030  0.00  0.00    +0.295 HD
ENDBRANCH  12  13
ENDBRANCH  10  12
ENDBRANCH   1  10
BRANCH   1  15
ATOM     15  C   UNL     1      37.027 -24.369 -13.058  0.00  0.00    -0.085 C 
BRANCH  15  16
ATOM     16  N   UNL     1      38.449 -24.626 -12.854  0.00  0.00    +0.380 N 
ATOM     17  H   UNL     1      38.944 -23.739 -12.754  0.00  0.00    -0.089 HD
ATOM     18  H   UNL     1      38.822 -25.135 -13.656  0.00  0.00    -0.089 HD
ATOM     19  H   UNL     1      38.577 -25.183 -12.009  0.00  0.00    -0.089 HD
ENDBRANCH  15  16
ENDBRANCH   1  15
TORSDOF 6
ENDMDL
MODEL 3
REMARK VINA RESULT:      -6.9      3.158      6.024
REMARK  Name = 59509752
REMARK  6 active torsions:
REMARK  status: ('A' for Active; 'I' for Inactive)
REMARK    1  A    between atoms: C_1  and  C_10
REMARK    2  A    between atoms: C_1  and  C_15
REMARK    3  A    between atoms: C_7  and  C_8
REMARK    4  A    between atoms: C_10  and  C_12
REMARK    5  A    between atoms: C_12  and  O_13
REMARK    6  A    between atoms: C_15  and  N_16
REMARK                            x       y       z     vdW  Elec       q    Type
REMARK                         _______ _______ _______ _____ _____    ______ ____
ROOT
ATOM      1  C   UNL     1      34.133 -16.024 -21.714  0.00  0.00    -0.009 C 
ATOM      2  C   UNL     1      32.703 -15.461 -21.714  0.00  0.00    -0.001 C 
ATOM      3  C   UNL     1      32.945 -14.904 -20.287  0.00  0.00    -0.000 C 
ATOM      4  C   UNL     1      34.463 -15.156 -20.487  0.00  0.00    -0.002 C 
ATOM      5  C   UNL     1      32.467 -13.451 -20.342  0.00  0.00    -0.000 C 
ATOM      6  C   UNL     1      32.429 -14.284 -22.567  0.00  0.00    -0.000 C 
ATOM      7  C   UNL     1      32.286 -13.187 -21.813  0.00  0.00    -0.000 C 
ENDROOT
BRANCH   7   8
ATOM      8  C   UNL     1      31.983 -11.815 -22.301  0.00  0.00    -0.000 C 
ATOM      9  C   UNL     1      30.859 -11.161 -21.512  0.00  0.00    +0.000 C 
ENDBRANCH   7   8
BRANCH   1  10
ATOM     10  C   UNL     1      34.996 -15.729 -22.921  0.00  0.00    +0.107 C 
BRANCH  10  12
ATOM     11  O   UNL     1      33.934 -16.526 -24.957  0.00  0.00    -0.250 OA
ATOM     12  C   UNL     1      34.774 -16.668 -24.081  0.00  0.00    +0.314 C 
BRANCH  12  13
ATOM     13  O   UNL     1      35.642 -17.710 -24.029  0.00  0.00    -0.480 OA
ATOM     14  H   UNL     1      35.327 -18.574 -23.849  0.00  0.00    +0.295 HD
ENDBRANCH  12  13
ENDBRANCH  10  12
ENDBRANCH   1  10
BRANCH   1  15
ATOM     15  C   UNL     1      34.163 -17.507 -21.399  0.00  0.00    -0.085 C 
BRANCH  15  16
ATOM     16  N   UNL     1      35.435 -17.888 -20.792  0.00  0.00    +0.380 N 
ATOM     17  H   UNL     1      35.392 -17.731 -19.785  0.00  0.00    -0.089 HD
ATOM     18  H   UNL     1      36.186 -17.326 -21.192  0.00  0.00    -0.089 HD
ATOM     19  H   UNL     1      35.616 -18.876 -20.974  0.00  0.00    -0.089 HD
ENDBRANCH  15  16
ENDBRANCH   1  15
TORSDOF 6
ENDMDL
MODEL 4
REMARK VINA RESULT:      -6.7      3.000      5.023
REMARK  Name = 59509752
REMARK  6 active torsions:
REMARK  status: ('A' for Active; 'I' for Inactive)
REMARK    1  A    between atoms: C_1  and  C_10
REMARK    2  A    between atoms: C_1  and  C_15
REMARK    3  A    between atoms: C_7  and  C_8
REMARK    4  A    between atoms: C_10  and  C_12
REMARK    5  A    between atoms: C_12  and  O_13
REMARK    6  A    between atoms: C_15  and  N_16
REMARK                            x       y       z     vdW  Elec       q    Type
REMARK                         _______ _______ _______ _____ _____    ______ ____
ROOT
ATOM      1  C   UNL     1      34.863 -19.349 -21.298  0.00  0.00    -0.009 C 
ATOM      2  C   UNL     1      35.434 -17.923 -21.243  0.00  0.00    -0.001 C 
ATOM      3  C   UNL     1      35.630 -17.966 -22.781  0.00  0.00    -0.000 C 
ATOM      4  C   UNL     1      34.719 -19.221 -22.824  0.00  0.00    -0.002 C 
ATOM      5  C   UNL     1      35.032 -16.653 -23.292  0.00  0.00    -0.000 C 
ATOM      6  C   UNL     1      34.489 -16.815 -20.985  0.00  0.00    -0.000 C 
ATOM      7  C   UNL     1      34.282 -16.112 -22.105  0.00  0.00    -0.000 C 
ENDROOT
BRANCH   7   8
ATOM      8  C   UNL     1      33.413 -14.913 -22.244  0.00  0.00    -0.000 C 
ATOM      9  C   UNL     1      32.816 -14.481 -20.913  0.00  0.00    +0.000 C 
ENDBRANCH   7   8
BRANCH   1  10
ATOM     10  C   UNL     1      33.556 -19.603 -20.580  0.00  0.00    +0.107 C 
BRANCH  10  12
ATOM     11  O   UNL     1      34.167 -21.336 -18.989  0.00  0.00    -0.250 OA
ATOM     12  C   UNL     1      33.470 -20.956 -19.918  0.00  0.00    +0.314 C 
BRANCH  12  13
ATOM     13  O   UNL     1      32.500 -21.711 -20.494  0.00  0.00    -0.480 OA
ATOM     14  H   UNL     1      32.659 -22.129 -21.318  0.00  0.00    +0.295 HD
ENDBRANCH  12  13
ENDBRANCH  10  12
ENDBRANCH   1  10
BRANCH   1  15
ATOM     15  C   UNL     1      35.889 -20.392 -20.899  0.00  0.00    -0.085 C 
BRANCH  15  16
ATOM     16  N   UNL     1      36.799 -19.870 -19.884  0.00  0.00    +0.380 N 
ATOM     17  H   UNL     1      37.752 -20.171 -20.094  0.00  0.00    -0.089 HD
ATOM     18  H   UNL     1      36.525 -20.224 -18.967  0.00  0.00    -0.089 HD
ATOM     19  H   UNL     1      36.759 -18.851 -19.881  0.00  0.00    -0.089 HD
ENDBRANCH  15  16
ENDBRANCH   1  15
TORSDOF 6
ENDMDL
MODEL 5
REMARK VINA RESULT:      -6.7      7.727     10.272
REMARK  Name = 59509752
REMARK  6 active torsions:
REMARK  status: ('A' for Active; 'I' for Inactive)
REMARK    1  A    between atoms: C_1  and  C_10
REMARK    2  A    between atoms: C_1  and  C_15
REMARK    3  A    between atoms: C_7  and  C_8
REMARK    4  A    between atoms: C_10  and  C_12
REMARK    5  A    between atoms: C_12  and  O_13
REMARK    6  A    between atoms: C_15  and  N_16
REMARK                            x       y       z     vdW  Elec       q    Type
REMARK                         _______ _______ _______ _____ _____    ______ ____
ROOT
ATOM      1  C   UNL     1      37.031 -24.903 -13.496  0.00  0.00    -0.009 C 
ATOM      2  C   UNL     1      37.143 -24.769 -15.023  0.00  0.00    -0.001 C 
ATOM      3  C   UNL     1      35.611 -24.537 -15.093  0.00  0.00    -0.000 C 
ATOM      4  C   UNL     1      35.614 -24.308 -13.558  0.00  0.00    -0.002 C 
ATOM      5  C   UNL     1      35.437 -23.302 -15.980  0.00  0.00    -0.000 C 
ATOM      6  C   UNL     1      37.764 -23.539 -15.560  0.00  0.00    -0.000 C 
ATOM      7  C   UNL     1      36.830 -22.743 -16.097  0.00  0.00    -0.000 C 
ENDROOT
BRANCH   7   8
ATOM      8  C   UNL     1      37.064 -21.429 -16.753  0.00  0.00    -0.000 C 
ATOM      9  C   UNL     1      36.695 -21.453 -18.229  0.00  0.00    +0.000 C 
ENDBRANCH   7   8
BRANCH   1  10
ATOM     10  C   UNL     1      37.996 -24.097 -12.655  0.00  0.00    +0.107 C 
BRANCH  10  12
ATOM     11  O   UNL     1      36.870 -24.105 -10.500  0.00  0.00    -0.250 OA
ATOM     12  C   UNL     1      37.375 -23.484 -11.424  0.00  0.00    +0.314 C 
BRANCH  12  13
ATOM     13  O   UNL     1      37.452 -22.130 -11.472  0.00  0.00    -0.480 OA
ATOM     14  H   UNL     1      38.277 -21.713 -11.625  0.00  0.00    +0.295 HD
ENDBRANCH  12  13
ENDBRANCH  10  12
ENDBRANCH   1  10
BRANCH   1  15
ATOM     15  C   UNL     1      37.031 -26.352 -13.049  0.00  0.00    -0.085 C 
BRANCH  15  16
ATOM     16  N   UNL     1      37.624 -27.215 -14.067  0.00  0.00    +0.380 N 
ATOM     17  H   UNL     1      38.164 -26.648 -14.721  0.00  0.00    -0.089 HD
ATOM     18  H   UNL     1      36.885 -27.705 -14.571  0.00  0.00    -0.089 HD
ATOM     19  H   UNL     1      38.239 -27.896 -13.620  0.00  0.00    -0.089 HD
ENDBRANCH  15  16
ENDBRANCH   1  15
TORSDOF 6
ENDMDL
MODEL 6
REMARK VINA RESULT:      -6.5      8.628     10.764
REMARK  Name = 59509752
REMARK  6 active torsions:
REMARK  status: ('A' for Active; 'I' for Inactive)
REMARK    1  A    between atoms: C_1  and  C_10
REMARK    2  A    between atoms: C_1  and  C_15
REMARK    3  A    between atoms: C_7  and  C_8
REMARK    4  A    between atoms: C_10  and  C_12
REMARK    5  A    between atoms: C_12  and  O_13
REMARK    6  A    between atoms: C_15  and  N_16
REMARK                            x       y       z     vdW  Elec       q    Type
REMARK                         _______ _______ _______ _____ _____    ______ ____
ROOT
ATOM      1  C   UNL     1      32.573  -7.240 -22.441  0.00  0.00    -0.009 C 
ATOM      2  C   UNL     1      32.611  -8.006 -23.773  0.00  0.00    -0.001 C 
ATOM      3  C   UNL     1      34.151  -7.829 -23.807  0.00  0.00    -0.000 C 
ATOM      4  C   UNL     1      34.097  -7.407 -22.314  0.00  0.00    -0.002 C 
ATOM      5  C   UNL     1      34.703  -9.222 -24.117  0.00  0.00    -0.000 C 
ATOM      6  C   UNL     1      32.371  -9.465 -23.733  0.00  0.00    -0.000 C 
ATOM      7  C   UNL     1      33.516 -10.129 -23.935  0.00  0.00    -0.000 C 
ENDROOT
BRANCH   7   8
ATOM      8  C   UNL     1      33.680 -11.606 -23.986  0.00  0.00    -0.000 C 
ATOM      9  C   UNL     1      33.841 -12.117 -25.410  0.00  0.00    +0.000 C 
ENDBRANCH   7   8
BRANCH   1  10
ATOM     10  C   UNL     1      31.794  -7.861 -21.304  0.00  0.00    +0.107 C 
BRANCH  10  12
ATOM     11  O   UNL     1      32.916  -6.874 -19.386  0.00  0.00    -0.250 OA
ATOM     12  C   UNL     1      32.527  -7.866 -19.985  0.00  0.00    +0.314 C 
BRANCH  12  13
ATOM     13  O   UNL     1      32.702  -9.136 -19.538  0.00  0.00    -0.480 OA
ATOM     14  H   UNL     1      32.402  -9.859 -20.053  0.00  0.00    +0.295 HD
ENDBRANCH  12  13
ENDBRANCH  10  12
ENDBRANCH   1  10
BRANCH   1  15
ATOM     15  C   UNL     1      32.164  -5.792 -22.627  0.00  0.00    -0.085 C 
BRANCH  15  16
ATOM     16  N   UNL     1      31.214  -5.379 -21.599  0.00  0.00    +0.380 N 
ATOM     17  H   UNL     1      31.649  -5.463 -20.680  0.00  0.00    -0.089 HD
ATOM     18  H   UNL     1      30.387  -5.976 -21.640  0.00  0.00    -0.089 HD
ATOM     19  H   UNL     1      30.940  -4.409 -21.758  0.00  0.00    -0.089 HD
ENDBRANCH  15  16
ENDBRANCH   1  15
TORSDOF 6
ENDMDL
MODEL 7
REMARK VINA RESULT:      -6.5      3.817      5.318
REMARK  Name = 59509752
REMARK  6 active torsions:
REMARK  status: ('A' for Active; 'I' for Inactive)
REMARK    1  A    between atoms: C_1  and  C_10
REMARK    2  A    between atoms: C_1  and  C_15
REMARK    3  A    between atoms: C_7  and  C_8
REMARK    4  A    between atoms: C_10  and  C_12
REMARK    5  A    between atoms: C_12  and  O_13
REMARK    6  A    between atoms: C_15  and  N_16
REMARK                            x       y       z     vdW  Elec       q    Type
REMARK                         _______ _______ _______ _____ _____    ______ ____
ROOT
ATOM      1  C   UNL     1      33.137 -13.853 -23.489  0.00  0.00    -0.009 C 
ATOM      2  C   UNL     1      34.522 -14.389 -23.093  0.00  0.00    -0.001 C 
ATOM      3  C   UNL     1      34.012 -14.571 -21.640  0.00  0.00    -0.000 C 
ATOM      4  C   UNL     1      32.563 -14.387 -22.165  0.00  0.00    -0.002 C 
ATOM      5  C   UNL     1      34.434 -15.989 -21.247  0.00  0.00    -0.000 C 
ATOM      6  C   UNL     1      34.894 -15.740 -23.565  0.00  0.00    -0.000 C 
ATOM      7  C   UNL     1      34.860 -16.612 -22.549  0.00  0.00    -0.000 C 
ENDROOT
BRANCH   7   8
ATOM      8  C   UNL     1      35.189 -18.061 -22.620  0.00  0.00    -0.000 C 
ATOM      9  C   UNL     1      34.872 -18.655 -23.985  0.00  0.00    +0.000 C 
ENDBRANCH   7   8
BRANCH   1  10
ATOM     10  C   UNL     1      32.487 -14.445 -24.719  0.00  0.00    +0.107 C 
BRANCH  10  12
ATOM     11  O   UNL     1      33.389 -12.981 -26.438  0.00  0.00    -0.250 OA
ATOM     12  C   UNL     1      33.192 -14.108 -26.011  0.00  0.00    +0.314 C 
BRANCH  12  13
ATOM     13  O   UNL     1      33.590 -15.239 -26.648  0.00  0.00    -0.480 OA
ATOM     14  H   UNL     1      33.947 -15.188 -27.514  0.00  0.00    +0.295 HD
ENDBRANCH  12  13
ENDBRANCH  10  12
ENDBRANCH   1  10
BRANCH   1  15
ATOM     15  C   UNL     1      33.111 -12.338 -23.561  0.00  0.00    -0.085 C 
BRANCH  15  16
ATOM     16  N   UNL     1      34.411 -11.809 -23.962  0.00  0.00    +0.380 N 
ATOM     17  H   UNL     1      34.280 -10.934 -24.470  0.00  0.00    -0.089 HD
ATOM     18  H   UNL     1      34.883 -12.485 -24.563  0.00  0.00    -0.089 HD
ATOM     19  H   UNL     1      34.979 -11.638 -23.132  0.00  0.00    -0.089 HD
ENDBRANCH  15  16
ENDBRANCH   1  15
TORSDOF 6
ENDMDL
MODEL 8
REMARK VINA RESULT:      -6.5      2.492      4.779
REMARK  Name = 59509752
REMARK  6 active torsions:
REMARK  status: ('A' for Active; 'I' for Inactive)
REMARK    1  A    between atoms: C_1  and  C_10
REMARK    2  A    between atoms: C_1  and  C_15
REMARK    3  A    between atoms: C_7  and  C_8
REMARK    4  A    between atoms: C_10  and  C_12
REMARK    5  A    between atoms: C_12  and  O_13
REMARK    6  A    between atoms: C_15  and  N_16
REMARK                            x       y       z     vdW  Elec       q    Type
REMARK                         _______ _______ _______ _____ _____    ______ ____
ROOT
ATOM      1  C   UNL     1      34.782 -17.756 -21.950  0.00  0.00    -0.009 C 
ATOM      2  C   UNL     1      35.408 -16.986 -23.124  0.00  0.00    -0.001 C 
ATOM      3  C   UNL     1      35.250 -18.250 -24.009  0.00  0.00    -0.000 C 
ATOM      4  C   UNL     1      34.304 -18.840 -22.931  0.00  0.00    -0.002 C 
ATOM      5  C   UNL     1      34.605 -17.749 -25.303  0.00  0.00    -0.000 C 
ATOM      6  C   UNL     1      34.590 -15.935 -23.769  0.00  0.00    -0.000 C 
ATOM      7  C   UNL     1      34.164 -16.350 -24.968  0.00  0.00    -0.000 C 
ENDROOT
BRANCH   7   8
ATOM      8  C   UNL     1      33.335 -15.570 -25.926  0.00  0.00    -0.000 C 
ATOM      9  C   UNL     1      32.971 -14.197 -25.383  0.00  0.00    +0.000 C 
ENDBRANCH   7   8
BRANCH   1  10
ATOM     10  C   UNL     1      33.661 -17.079 -21.193  0.00  0.00    +0.107 C 
BRANCH  10  12
ATOM     11  O   UNL     1      35.036 -15.415 -20.074  0.00  0.00    -0.250 OA
ATOM     12  C   UNL     1      34.011 -15.707 -20.672  0.00  0.00    +0.314 C 
BRANCH  12  13
ATOM     13  O   UNL     1      33.025 -14.819 -20.960  0.00  0.00    -0.480 OA
ATOM     14  H   UNL     1      33.188 -14.115 -21.556  0.00  0.00    +0.295 HD
ENDBRANCH  12  13
ENDBRANCH  10  12
ENDBRANCH   1  10
BRANCH   1  15
ATOM     15  C   UNL     1      35.830 -18.272 -20.983  0.00  0.00    -0.085 C 
BRANCH  15  16
ATOM     16  N   UNL     1      35.499 -19.617 -20.520  0.00  0.00    +0.380 N 
ATOM     17  H   UNL     1      34.525 -19.642 -20.217  0.00  0.00    -0.089 HD
ATOM     18  H   UNL     1      36.105 -19.866 -19.738  0.00  0.00    -0.089 HD
ATOM     19  H   UNL     1      35.635 -20.282 -21.281  0.00  0.00    -0.089 HD
ENDBRANCH  15  16
ENDBRANCH   1  15
TORSDOF 6
ENDMDL
MODEL 9
REMARK VINA RESULT:      -6.5      8.560      9.726
REMARK  Name = 59509752
REMARK  6 active torsions:
REMARK  status: ('A' for Active; 'I' for Inactive)
REMARK    1  A    between atoms: C_1  and  C_10
REMARK    2  A    between atoms: C_1  and  C_15
REMARK    3  A    between atoms: C_7  and  C_8
REMARK    4  A    between atoms: C_10  and  C_12
REMARK    5  A    between atoms: C_12  and  O_13
REMARK    6  A    between atoms: C_15  and  N_16
REMARK                            x       y       z     vdW  Elec       q    Type
REMARK                         _______ _______ _______ _____ _____    ______ ____
ROOT
ATOM      1  C   UNL     1      36.076 -24.089 -14.620  0.00  0.00    -0.009 C 
ATOM      2  C   UNL     1      34.878 -23.418 -13.929  0.00  0.00    -0.001 C 
ATOM      3  C   UNL     1      34.293 -23.076 -15.325  0.00  0.00    -0.000 C 
ATOM      4  C   UNL     1      35.304 -24.072 -15.951  0.00  0.00    -0.002 C 
ATOM      5  C   UNL     1      32.830 -23.519 -15.259  0.00  0.00    -0.000 C 
ATOM      6  C   UNL     1      33.883 -24.295 -13.276  0.00  0.00    -0.000 C 
ATOM      7  C   UNL     1      32.756 -24.338 -13.999  0.00  0.00    -0.000 C 
ENDROOT
BRANCH   7   8
ATOM      8  C   UNL     1      31.521 -25.094 -13.661  0.00  0.00    -0.000 C 
ATOM      9  C   UNL     1      30.472 -24.997 -14.758  0.00  0.00    +0.000 C 
ENDBRANCH   7   8
BRANCH   1  10
ATOM     10  C   UNL     1      36.460 -25.475 -14.154  0.00  0.00    +0.107 C 
BRANCH  10  12
ATOM     11  O   UNL     1      36.284 -27.153 -15.904  0.00  0.00    -0.250 OA
ATOM     12  C   UNL     1      36.967 -26.376 -15.253  0.00  0.00    +0.314 C 
BRANCH  12  13
ATOM     13  O   UNL     1      38.303 -26.210 -15.432  0.00  0.00    -0.480 OA
ATOM     14  H   UNL     1      38.626 -25.853 -16.236  0.00  0.00    +0.295 HD
ENDBRANCH  12  13
ENDBRANCH  10  12
ENDBRANCH   1  10
BRANCH   1  15
ATOM     15  C   UNL     1      37.297 -23.189 -14.648  0.00  0.00    -0.085 C 
BRANCH  15  16
ATOM     16  N   UNL     1      37.881 -23.139 -15.985  0.00  0.00    +0.380 N 
ATOM     17  H   UNL     1      37.857 -24.070 -16.402  0.00  0.00    -0.089 HD
ATOM     18  H   UNL     1      38.847 -22.818 -15.922  0.00  0.00    -0.089 HD
ATOM     19  H   UNL     1      37.346 -22.493 -16.566  0.00  0.00    -0.089 HD
ENDBRANCH  15  16
ENDBRANCH   1  15
TORSDOF 6
ENDMDL
