MODEL 1
REMARK VINA RESULT:     -10.1      0.000      0.000
REMARK  Name = 54575171
REMARK  9 active torsions:
REMARK  status: ('A' for Active; 'I' for Inactive)
REMARK    1  A    between atoms: N_2  and  C_17
REMARK    2  A    between atoms: C_3  and  C_6
REMARK    3  A    between atoms: C_7  and  O_15
REMARK    4  A    between atoms: C_11  and  N_12
REMARK    5  A    between atoms: C_17  and  C_19
REMARK    6  A    between atoms: N_18  and  C_25
REMARK    7  A    between atoms: C_25  and  C_26
REMARK    8  A    between atoms: C_26  and  C_27
REMARK    9  A    between atoms: C_27  and  N_28
REMARK                            x       y       z     vdW  Elec       q    Type
REMARK                         _______ _______ _______ _____ _____    ______ ____
ROOT
ATOM      1  O   UNL     1      33.936 -23.876 -19.491  0.00  0.00    -0.270 OA
ATOM      2  N   UNL     1      35.136 -22.044 -18.722  0.00  0.00    -0.301 N 
ATOM      3  C   UNL     1      34.193 -23.063 -18.606  0.00  0.00    +0.249 C 
ATOM      4  H   UNL     1      35.273 -21.441 -17.957  0.00  0.00    +0.150 HD
ENDROOT
BRANCH   3   6
ATOM      5 CL   UNL     1      29.652 -22.670 -16.171  0.00  0.00    -0.081 Cl
ATOM      6  C   UNL     1      33.448 -23.128 -17.322  0.00  0.00    +0.088 C 
ATOM      7  C   UNL     1      34.108 -23.416 -16.127  0.00  0.00    +0.144 C 
ATOM      8  C   UNL     1      32.072 -22.899 -17.323  0.00  0.00    +0.020 C 
ATOM      9  C   UNL     1      33.390 -23.475 -14.932  0.00  0.00    +0.052 C 
ATOM     10  C   UNL     1      31.355 -22.958 -16.127  0.00  0.00    +0.071 C 
ATOM     11  C   UNL     1      32.014 -23.246 -14.932  0.00  0.00    +0.055 C 
BRANCH  11  12
ATOM     12  N   UNL     1      31.316 -23.312 -13.706  0.00  0.00    -0.356 N 
ATOM     13  H   UNL     1      30.547 -22.718 -13.545  0.00  0.00    +0.142 HD
ATOM     14  H   UNL     1      31.597 -23.950 -13.011  0.00  0.00    +0.142 HD
ENDBRANCH  11  12
BRANCH   7  15
ATOM     15  O   UNL     1      35.451 -23.644 -16.106  0.00  0.00    -0.471 OA
ATOM     16  C   UNL     1      36.237 -22.803 -15.265  0.00  0.00    +0.252 C 
ENDBRANCH   7  15
ENDBRANCH   3   6
BRANCH   2  17
ATOM     17  C   UNL     1      35.915 -21.838 -19.905  0.00  0.00    +0.089 C 
BRANCH  17  19
ATOM     18  N   UNL     1      34.405 -17.902 -20.848  0.00  0.00    +0.387 N 
ATOM     19  C   UNL     1      35.375 -20.666 -20.720  0.00  0.00    +0.015 C 
ATOM     20  C   UNL     1      36.317 -19.460 -20.642  0.00  0.00    -0.021 C 
ATOM     21  C   UNL     1      33.975 -20.263 -20.243  0.00  0.00    -0.021 C 
ATOM     22  C   UNL     1      35.733 -18.249 -21.373  0.00  0.00    -0.077 C 
ATOM     23  C   UNL     1      33.470 -19.025 -20.989  0.00  0.00    -0.077 C 
ATOM     24  H   UNL     1      34.505 -17.698 -19.853  0.00  0.00    -0.080 HD
BRANCH  18  25
ATOM     25  C   UNL     1      33.884 -16.713 -21.522  0.00  0.00    -0.076 C 
BRANCH  25  26
ATOM     26  C   UNL     1      34.936 -16.136 -22.468  0.00  0.00    +0.001 C 
BRANCH  26  27
ATOM     27  C   UNL     1      34.472 -14.803 -23.061  0.00  0.00    +0.116 C 
BRANCH  27  28
ATOM     28  N   UNL     1      33.868 -14.983 -24.431  0.00  0.00    -0.191 N 
ATOM     29  N   UNL     1      34.071 -16.114 -25.126  0.00  0.00    -0.073 NA
ATOM     30  N   UNL     1      33.427 -15.988 -26.281  0.00  0.00    -0.129 NA
ATOM     31  C   UNL     1      33.091 -14.103 -25.120  0.00  0.00    +0.108 C 
ATOM     32  C   UNL     1      32.821 -14.762 -26.292  0.00  0.00    +0.141 C 
ENDBRANCH  27  28
ENDBRANCH  26  27
ENDBRANCH  25  26
ENDBRANCH  18  25
ENDBRANCH  17  19
ENDBRANCH   2  17
TORSDOF 9
ENDMDL
MODEL 2
REMARK VINA RESULT:      -9.9      2.622      3.650
REMARK  Name = 54575171
REMARK  9 active torsions:
REMARK  status: ('A' for Active; 'I' for Inactive)
REMARK    1  A    between atoms: N_2  and  C_17
REMARK    2  A    between atoms: C_3  and  C_6
REMARK    3  A    between atoms: C_7  and  O_15
REMARK    4  A    between atoms: C_11  and  N_12
REMARK    5  A    between atoms: C_17  and  C_19
REMARK    6  A    between atoms: N_18  and  C_25
REMARK    7  A    between atoms: C_25  and  C_26
REMARK    8  A    between atoms: C_26  and  C_27
REMARK    9  A    between atoms: C_27  and  N_28
REMARK                            x       y       z     vdW  Elec       q    Type
REMARK                         _______ _______ _______ _____ _____    ______ ____
ROOT
ATOM      1  O   UNL     1      32.742 -23.953 -15.272  0.00  0.00    -0.270 OA
ATOM      2  N   UNL     1      34.197 -23.112 -16.874  0.00  0.00    -0.301 N 
ATOM      3  C   UNL     1      33.871 -23.605 -15.612  0.00  0.00    +0.249 C 
ATOM      4  H   UNL     1      35.130 -22.859 -17.052  0.00  0.00    +0.150 HD
ENDROOT
BRANCH   3   6
ATOM      5 CL   UNL     1      35.319 -24.492 -10.732  0.00  0.00    -0.081 Cl
ATOM      6  C   UNL     1      34.980 -23.680 -14.627  0.00  0.00    +0.088 C 
ATOM      7  C   UNL     1      36.297 -23.430 -15.013  0.00  0.00    +0.144 C 
ATOM      8  C   UNL     1      34.691 -24.006 -13.302  0.00  0.00    +0.020 C 
ATOM      9  C   UNL     1      37.325 -23.508 -14.073  0.00  0.00    +0.052 C 
ATOM     10  C   UNL     1      35.719 -24.083 -12.362  0.00  0.00    +0.071 C 
ATOM     11  C   UNL     1      37.037 -23.834 -12.748  0.00  0.00    +0.055 C 
BRANCH  11  12
ATOM     12  N   UNL     1      38.099 -23.903 -11.819  0.00  0.00    -0.356 N 
ATOM     13  H   UNL     1      38.610 -23.092 -11.595  0.00  0.00    +0.142 HD
ATOM     14  H   UNL     1      38.329 -24.762 -11.396  0.00  0.00    +0.142 HD
ENDBRANCH  11  12
BRANCH   7  15
ATOM     15  O   UNL     1      36.600 -23.112 -16.302  0.00  0.00    -0.471 OA
ATOM     16  C   UNL     1      37.674 -22.196 -16.507  0.00  0.00    +0.252 C 
ENDBRANCH   7  15
ENDBRANCH   3   6
BRANCH   2  17
ATOM     17  C   UNL     1      33.233 -22.959 -17.921  0.00  0.00    +0.089 C 
BRANCH  17  19
ATOM     18  N   UNL     1      35.085 -19.870 -20.306  0.00  0.00    +0.387 N 
ATOM     19  C   UNL     1      33.842 -22.249 -19.127  0.00  0.00    +0.015 C 
ATOM     20  C   UNL     1      35.302 -21.868 -18.863  0.00  0.00    -0.021 C 
ATOM     21  C   UNL     1      33.038 -20.997 -19.493  0.00  0.00    -0.021 C 
ATOM     22  C   UNL     1      35.889 -21.068 -20.028  0.00  0.00    -0.077 C 
ATOM     23  C   UNL     1      33.700 -20.227 -20.638  0.00  0.00    -0.077 C 
ATOM     24  H   UNL     1      35.069 -19.299 -19.460  0.00  0.00    -0.080 HD
BRANCH  18  25
ATOM     25  C   UNL     1      35.687 -19.090 -21.387  0.00  0.00    -0.076 C 
BRANCH  25  26
ATOM     26  C   UNL     1      34.670 -18.861 -22.505  0.00  0.00    +0.001 C 
BRANCH  26  27
ATOM     27  C   UNL     1      35.364 -18.454 -23.807  0.00  0.00    +0.116 C 
BRANCH  27  28
ATOM     28  N   UNL     1      34.700 -17.259 -24.443  0.00  0.00    -0.191 N 
ATOM     29  N   UNL     1      34.511 -17.207 -25.771  0.00  0.00    -0.073 NA
ATOM     30  N   UNL     1      33.913 -16.052 -26.040  0.00  0.00    -0.129 NA
ATOM     31  C   UNL     1      34.229 -16.142 -23.825  0.00  0.00    +0.108 C 
ATOM     32  C   UNL     1      33.732 -15.388 -24.858  0.00  0.00    +0.141 C 
ENDBRANCH  27  28
ENDBRANCH  26  27
ENDBRANCH  25  26
ENDBRANCH  18  25
ENDBRANCH  17  19
ENDBRANCH   2  17
TORSDOF 9
ENDMDL
MODEL 3
REMARK VINA RESULT:      -9.9      3.551      9.495
REMARK  Name = 54575171
REMARK  9 active torsions:
REMARK  status: ('A' for Active; 'I' for Inactive)
REMARK    1  A    between atoms: N_2  and  C_17
REMARK    2  A    between atoms: C_3  and  C_6
REMARK    3  A    between atoms: C_7  and  O_15
REMARK    4  A    between atoms: C_11  and  N_12
REMARK    5  A    between atoms: C_17  and  C_19
REMARK    6  A    between atoms: N_18  and  C_25
REMARK    7  A    between atoms: C_25  and  C_26
REMARK    8  A    between atoms: C_26  and  C_27
REMARK    9  A    between atoms: C_27  and  N_28
REMARK                            x       y       z     vdW  Elec       q    Type
REMARK                         _______ _______ _______ _____ _____    ______ ____
ROOT
ATOM      1  O   UNL     1      35.658 -17.297 -20.400  0.00  0.00    -0.270 OA
ATOM      2  N   UNL     1      34.747 -18.386 -22.236  0.00  0.00    -0.301 N 
ATOM      3  C   UNL     1      34.974 -17.280 -21.421  0.00  0.00    +0.249 C 
ATOM      4  H   UNL     1      34.184 -18.273 -23.035  0.00  0.00    +0.150 HD
ENDROOT
BRANCH   3   6
ATOM      5 CL   UNL     1      32.172 -13.175 -20.006  0.00  0.00    -0.081 Cl
ATOM      6  C   UNL     1      34.309 -16.014 -21.826  0.00  0.00    +0.088 C 
ATOM      7  C   UNL     1      34.360 -15.572 -23.148  0.00  0.00    +0.144 C 
ATOM      8  C   UNL     1      33.630 -15.265 -20.865  0.00  0.00    +0.020 C 
ATOM      9  C   UNL     1      33.731 -14.380 -23.509  0.00  0.00    +0.052 C 
ATOM     10  C   UNL     1      33.001 -14.073 -21.226  0.00  0.00    +0.071 C 
ATOM     11  C   UNL     1      33.052 -13.630 -22.549  0.00  0.00    +0.055 C 
BRANCH  11  12
ATOM     12  N   UNL     1      32.424 -12.429 -22.945  0.00  0.00    -0.356 N 
ATOM     13  H   UNL     1      31.968 -11.868 -22.277  0.00  0.00    +0.142 HD
ATOM     14  H   UNL     1      32.442 -12.151 -23.889  0.00  0.00    +0.142 HD
ENDBRANCH  11  12
BRANCH   7  15
ATOM     15  O   UNL     1      35.020 -16.288 -24.101  0.00  0.00    -0.471 OA
ATOM     16  C   UNL     1      34.275 -16.670 -25.255  0.00  0.00    +0.252 C 
ENDBRANCH   7  15
ENDBRANCH   3   6
BRANCH   2  17
ATOM     17  C   UNL     1      35.299 -19.678 -21.964  0.00  0.00    +0.089 C 
BRANCH  17  19
ATOM     18  N   UNL     1      33.855 -22.368 -18.907  0.00  0.00    +0.387 N 
ATOM     19  C   UNL     1      34.851 -20.188 -20.597  0.00  0.00    +0.015 C 
ATOM     20  C   UNL     1      35.751 -21.330 -20.113  0.00  0.00    -0.021 C 
ATOM     21  C   UNL     1      33.392 -20.658 -20.636  0.00  0.00    -0.021 C 
ATOM     22  C   UNL     1      35.248 -21.913 -18.791  0.00  0.00    -0.077 C 
ATOM     23  C   UNL     1      32.968 -21.263 -19.295  0.00  0.00    -0.077 C 
ATOM     24  H   UNL     1      33.816 -23.075 -19.642  0.00  0.00    -0.080 HD
BRANCH  18  25
ATOM     25  C   UNL     1      33.406 -22.968 -17.651  0.00  0.00    -0.076 C 
BRANCH  25  26
ATOM     26  C   UNL     1      32.023 -22.440 -17.276  0.00  0.00    +0.001 C 
BRANCH  26  27
ATOM     27  C   UNL     1      31.262 -23.451 -16.415  0.00  0.00    +0.116 C 
BRANCH  27  28
ATOM     28  N   UNL     1      29.799 -23.104 -16.308  0.00  0.00    -0.191 N 
ATOM     29  N   UNL     1      29.299 -22.037 -16.953  0.00  0.00    -0.073 NA
ATOM     30  N   UNL     1      28.001 -21.981 -16.676  0.00  0.00    -0.129 NA
ATOM     31  C   UNL     1      28.837 -23.759 -15.602  0.00  0.00    +0.108 C 
ATOM     32  C   UNL     1      27.702 -23.030 -15.850  0.00  0.00    +0.141 C 
ENDBRANCH  27  28
ENDBRANCH  26  27
ENDBRANCH  25  26
ENDBRANCH  18  25
ENDBRANCH  17  19
ENDBRANCH   2  17
TORSDOF 9
ENDMDL
MODEL 4
REMARK VINA RESULT:      -9.9      1.197      1.687
REMARK  Name = 54575171
REMARK  9 active torsions:
REMARK  status: ('A' for Active; 'I' for Inactive)
REMARK    1  A    between atoms: N_2  and  C_17
REMARK    2  A    between atoms: C_3  and  C_6
REMARK    3  A    between atoms: C_7  and  O_15
REMARK    4  A    between atoms: C_11  and  N_12
REMARK    5  A    between atoms: C_17  and  C_19
REMARK    6  A    between atoms: N_18  and  C_25
REMARK    7  A    between atoms: C_25  and  C_26
REMARK    8  A    between atoms: C_26  and  C_27
REMARK    9  A    between atoms: C_27  and  N_28
REMARK                            x       y       z     vdW  Elec       q    Type
REMARK                         _______ _______ _______ _____ _____    ______ ____
ROOT
ATOM      1  O   UNL     1      35.184 -23.006 -16.864  0.00  0.00    -0.270 OA
ATOM      2  N   UNL     1      33.444 -23.007 -18.399  0.00  0.00    -0.301 N 
ATOM      3  C   UNL     1      33.990 -23.136 -17.125  0.00  0.00    +0.249 C 
ATOM      4  H   UNL     1      32.474 -23.128 -18.509  0.00  0.00    +0.150 HD
ENDROOT
BRANCH   3   6
ATOM      5 CL   UNL     1      29.168 -22.861 -15.287  0.00  0.00    -0.081 Cl
ATOM      6  C   UNL     1      33.042 -23.477 -16.032  0.00  0.00    +0.088 C 
ATOM      7  C   UNL     1      33.468 -24.196 -14.915  0.00  0.00    +0.144 C 
ATOM      8  C   UNL     1      31.712 -23.070 -16.135  0.00  0.00    +0.020 C 
ATOM      9  C   UNL     1      32.562 -24.509 -13.902  0.00  0.00    +0.052 C 
ATOM     10  C   UNL     1      30.807 -23.382 -15.121  0.00  0.00    +0.071 C 
ATOM     11  C   UNL     1      31.232 -24.102 -14.003  0.00  0.00    +0.055 C 
BRANCH  11  12
ATOM     12  N   UNL     1      30.339 -24.433 -12.960  0.00  0.00    -0.356 N 
ATOM     13  H   UNL     1      30.651 -24.431 -12.026  0.00  0.00    +0.142 HD
ATOM     14  H   UNL     1      29.405 -24.666 -13.166  0.00  0.00    +0.142 HD
ENDBRANCH  11  12
BRANCH   7  15
ATOM     15  O   UNL     1      34.762 -24.605 -14.798  0.00  0.00    -0.471 OA
ATOM     16  C   UNL     1      35.423 -24.314 -13.568  0.00  0.00    +0.252 C 
ENDBRANCH   7  15
ENDBRANCH   3   6
BRANCH   2  17
ATOM     17  C   UNL     1      34.232 -22.705 -19.555  0.00  0.00    +0.089 C 
BRANCH  17  19
ATOM     18  N   UNL     1      34.843 -18.857 -21.423  0.00  0.00    +0.387 N 
ATOM     19  C   UNL     1      34.428 -21.199 -19.707  0.00  0.00    +0.015 C 
ATOM     20  C   UNL     1      33.300 -20.577 -20.536  0.00  0.00    -0.021 C 
ATOM     21  C   UNL     1      35.781 -20.883 -20.354  0.00  0.00    -0.021 C 
ATOM     22  C   UNL     1      33.543 -19.085 -20.777  0.00  0.00    -0.077 C 
ATOM     23  C   UNL     1      35.941 -19.380 -20.600  0.00  0.00    -0.077 C 
ATOM     24  H   UNL     1      34.846 -19.362 -22.309  0.00  0.00    -0.080 HD
BRANCH  18  25
ATOM     25  C   UNL     1      35.037 -17.433 -21.692  0.00  0.00    -0.076 C 
BRANCH  25  26
ATOM     26  C   UNL     1      34.842 -17.144 -23.180  0.00  0.00    +0.001 C 
BRANCH  26  27
ATOM     27  C   UNL     1      34.764 -15.638 -23.443  0.00  0.00    +0.116 C 
BRANCH  27  28
ATOM     28  N   UNL     1      33.972 -15.329 -24.688  0.00  0.00    -0.191 N 
ATOM     29  N   UNL     1      34.007 -16.156 -25.744  0.00  0.00    -0.073 NA
ATOM     30  N   UNL     1      33.223 -15.633 -26.681  0.00  0.00    -0.129 NA
ATOM     31  C   UNL     1      33.168 -14.255 -24.917  0.00  0.00    +0.108 C 
ATOM     32  C   UNL     1      32.702 -14.468 -26.189  0.00  0.00    +0.141 C 
ENDBRANCH  27  28
ENDBRANCH  26  27
ENDBRANCH  25  26
ENDBRANCH  18  25
ENDBRANCH  17  19
ENDBRANCH   2  17
TORSDOF 9
ENDMDL
MODEL 5
REMARK VINA RESULT:      -9.8      3.696     10.059
REMARK  Name = 54575171
REMARK  9 active torsions:
REMARK  status: ('A' for Active; 'I' for Inactive)
REMARK    1  A    between atoms: N_2  and  C_17
REMARK    2  A    between atoms: C_3  and  C_6
REMARK    3  A    between atoms: C_7  and  O_15
REMARK    4  A    between atoms: C_11  and  N_12
REMARK    5  A    between atoms: C_17  and  C_19
REMARK    6  A    between atoms: N_18  and  C_25
REMARK    7  A    between atoms: C_25  and  C_26
REMARK    8  A    between atoms: C_26  and  C_27
REMARK    9  A    between atoms: C_27  and  N_28
REMARK                            x       y       z     vdW  Elec       q    Type
REMARK                         _______ _______ _______ _____ _____    ______ ____
ROOT
ATOM      1  O   UNL     1      33.570 -20.138 -21.185  0.00  0.00    -0.270 OA
ATOM      2  N   UNL     1      35.840 -19.930 -20.747  0.00  0.00    -0.301 N 
ATOM      3  C   UNL     1      34.596 -19.462 -21.163  0.00  0.00    +0.249 C 
ATOM      4  H   UNL     1      36.605 -19.312 -20.765  0.00  0.00    +0.150 HD
ENDROOT
BRANCH   3   6
ATOM      5 CL   UNL     1      33.080 -14.611 -20.224  0.00  0.00    -0.081 Cl
ATOM      6  C   UNL     1      34.544 -18.051 -21.627  0.00  0.00    +0.088 C 
ATOM      7  C   UNL     1      35.112 -17.679 -22.846  0.00  0.00    +0.144 C 
ATOM      8  C   UNL     1      33.919 -17.095 -20.827  0.00  0.00    +0.020 C 
ATOM      9  C   UNL     1      35.055 -16.349 -23.263  0.00  0.00    +0.052 C 
ATOM     10  C   UNL     1      33.862 -15.765 -21.245  0.00  0.00    +0.071 C 
ATOM     11  C   UNL     1      34.430 -15.392 -22.464  0.00  0.00    +0.055 C 
BRANCH  11  12
ATOM     12  N   UNL     1      34.388 -14.054 -22.914  0.00  0.00    -0.356 N 
ATOM     13  H   UNL     1      34.024 -13.349 -22.331  0.00  0.00    +0.142 HD
ATOM     14  H   UNL     1      34.720 -13.825 -23.812  0.00  0.00    +0.142 HD
ENDBRANCH  11  12
BRANCH   7  15
ATOM     15  O   UNL     1      35.729 -18.597 -23.640  0.00  0.00    -0.471 OA
ATOM     16  C   UNL     1      34.942 -19.198 -24.666  0.00  0.00    +0.252 C 
ENDBRANCH   7  15
ENDBRANCH   3   6
BRANCH   2  17
ATOM     17  C   UNL     1      36.054 -21.271 -20.295  0.00  0.00    +0.089 C 
BRANCH  17  19
ATOM     18  N   UNL     1      35.045 -23.201 -16.564  0.00  0.00    +0.387 N 
ATOM     19  C   UNL     1      35.500 -21.471 -18.887  0.00  0.00    +0.015 C 
ATOM     20  C   UNL     1      36.616 -21.835 -17.903  0.00  0.00    -0.021 C 
ATOM     21  C   UNL     1      34.418 -22.556 -18.869  0.00  0.00    -0.021 C 
ATOM     22  C   UNL     1      36.055 -22.135 -16.511  0.00  0.00    -0.077 C 
ATOM     23  C   UNL     1      33.930 -22.830 -17.445  0.00  0.00    -0.077 C 
ATOM     24  H   UNL     1      35.488 -24.034 -16.952  0.00  0.00    -0.080 HD
BRANCH  18  25
ATOM     25  C   UNL     1      34.557 -23.510 -15.221  0.00  0.00    -0.076 C 
BRANCH  25  26
ATOM     26  C   UNL     1      35.673 -24.130 -14.381  0.00  0.00    +0.001 C 
BRANCH  26  27
ATOM     27  C   UNL     1      36.141 -25.458 -14.981  0.00  0.00    +0.116 C 
BRANCH  27  28
ATOM     28  N   UNL     1      37.633 -25.631 -14.856  0.00  0.00    -0.191 N 
ATOM     29  N   UNL     1      38.176 -26.857 -14.775  0.00  0.00    -0.073 NA
ATOM     30  N   UNL     1      39.492 -26.699 -14.674  0.00  0.00    -0.129 NA
ATOM     31  C   UNL     1      38.583 -24.657 -14.809  0.00  0.00    +0.108 C 
ATOM     32  C   UNL     1      39.757 -25.358 -14.694  0.00  0.00    +0.141 C 
ENDBRANCH  27  28
ENDBRANCH  26  27
ENDBRANCH  25  26
ENDBRANCH  18  25
ENDBRANCH  17  19
ENDBRANCH   2  17
TORSDOF 9
ENDMDL
MODEL 6
REMARK VINA RESULT:      -9.8      3.734     10.125
REMARK  Name = 54575171
REMARK  9 active torsions:
REMARK  status: ('A' for Active; 'I' for Inactive)
REMARK    1  A    between atoms: N_2  and  C_17
REMARK    2  A    between atoms: C_3  and  C_6
REMARK    3  A    between atoms: C_7  and  O_15
REMARK    4  A    between atoms: C_11  and  N_12
REMARK    5  A    between atoms: C_17  and  C_19
REMARK    6  A    between atoms: N_18  and  C_25
REMARK    7  A    between atoms: C_25  and  C_26
REMARK    8  A    between atoms: C_26  and  C_27
REMARK    9  A    between atoms: C_27  and  N_28
REMARK                            x       y       z     vdW  Elec       q    Type
REMARK                         _______ _______ _______ _____ _____    ______ ____
ROOT
ATOM      1  O   UNL     1      35.454 -16.814 -20.444  0.00  0.00    -0.270 OA
ATOM      2  N   UNL     1      34.593 -17.962 -22.268  0.00  0.00    -0.301 N 
ATOM      3  C   UNL     1      34.747 -16.846 -21.449  0.00  0.00    +0.249 C 
ATOM      4  H   UNL     1      34.004 -17.891 -23.053  0.00  0.00    +0.150 HD
ENDROOT
BRANCH   3   6
ATOM      5 CL   UNL     1      31.971 -12.775 -19.894  0.00  0.00    -0.081 Cl
ATOM      6  C   UNL     1      33.973 -15.636 -21.830  0.00  0.00    +0.088 C 
ATOM      7  C   UNL     1      33.821 -15.278 -23.169  0.00  0.00    +0.144 C 
ATOM      8  C   UNL     1      33.397 -14.856 -20.828  0.00  0.00    +0.020 C 
ATOM      9  C   UNL     1      33.092 -14.137 -23.506  0.00  0.00    +0.052 C 
ATOM     10  C   UNL     1      32.667 -13.715 -21.165  0.00  0.00    +0.071 C 
ATOM     11  C   UNL     1      32.515 -13.355 -22.505  0.00  0.00    +0.055 C 
BRANCH  11  12
ATOM     12  N   UNL     1      31.782 -12.207 -22.878  0.00  0.00    -0.356 N 
ATOM     13  H   UNL     1      32.031 -11.326 -22.517  0.00  0.00    +0.142 HD
ATOM     14  H   UNL     1      31.022 -12.287 -23.498  0.00  0.00    +0.142 HD
ENDBRANCH  11  12
BRANCH   7  15
ATOM     15  O   UNL     1      34.378 -16.026 -24.162  0.00  0.00    -0.471 OA
ATOM     16  C   UNL     1      33.741 -15.986 -25.437  0.00  0.00    +0.252 C 
ENDBRANCH   7  15
ENDBRANCH   3   6
BRANCH   2  17
ATOM     17  C   UNL     1      35.253 -19.207 -22.018  0.00  0.00    +0.089 C 
BRANCH  17  19
ATOM     18  N   UNL     1      33.724 -22.108 -19.206  0.00  0.00    +0.387 N 
ATOM     19  C   UNL     1      34.787 -19.820 -20.700  0.00  0.00    +0.015 C 
ATOM     20  C   UNL     1      35.652 -21.025 -20.317  0.00  0.00    -0.021 C 
ATOM     21  C   UNL     1      33.316 -20.243 -20.780  0.00  0.00    -0.021 C 
ATOM     22  C   UNL     1      35.129 -21.706 -19.050  0.00  0.00    -0.077 C 
ATOM     23  C   UNL     1      32.871 -20.949 -19.497  0.00  0.00    -0.077 C 
ATOM     24  H   UNL     1      33.667 -22.748 -19.998  0.00  0.00    -0.080 HD
BRANCH  18  25
ATOM     25  C   UNL     1      33.255 -22.802 -18.007  0.00  0.00    -0.076 C 
BRANCH  25  26
ATOM     26  C   UNL     1      34.414 -23.024 -17.036  0.00  0.00    +0.001 C 
BRANCH  26  27
ATOM     27  C   UNL     1      33.910 -23.537 -15.684  0.00  0.00    +0.116 C 
BRANCH  27  28
ATOM     28  N   UNL     1      34.974 -24.311 -14.949  0.00  0.00    -0.191 N 
ATOM     29  N   UNL     1      35.780 -25.161 -15.607  0.00  0.00    -0.073 NA
ATOM     30  N   UNL     1      36.606 -25.693 -14.712  0.00  0.00    -0.129 NA
ATOM     31  C   UNL     1      35.261 -24.275 -13.619  0.00  0.00    +0.108 C 
ATOM     32  C   UNL     1      36.300 -25.160 -13.490  0.00  0.00    +0.141 C 
ENDBRANCH  27  28
ENDBRANCH  26  27
ENDBRANCH  25  26
ENDBRANCH  18  25
ENDBRANCH  17  19
ENDBRANCH   2  17
TORSDOF 9
ENDMDL
MODEL 7
REMARK VINA RESULT:      -9.8      5.871     11.306
REMARK  Name = 54575171
REMARK  9 active torsions:
REMARK  status: ('A' for Active; 'I' for Inactive)
REMARK    1  A    between atoms: N_2  and  C_17
REMARK    2  A    between atoms: C_3  and  C_6
REMARK    3  A    between atoms: C_7  and  O_15
REMARK    4  A    between atoms: C_11  and  N_12
REMARK    5  A    between atoms: C_17  and  C_19
REMARK    6  A    between atoms: N_18  and  C_25
REMARK    7  A    between atoms: C_25  and  C_26
REMARK    8  A    between atoms: C_26  and  C_27
REMARK    9  A    between atoms: C_27  and  N_28
REMARK                            x       y       z     vdW  Elec       q    Type
REMARK                         _______ _______ _______ _____ _____    ______ ____
ROOT
ATOM      1  O   UNL     1      34.124 -11.730 -26.014  0.00  0.00    -0.270 OA
ATOM      2  N   UNL     1      33.466 -13.152 -24.302  0.00  0.00    -0.301 N 
ATOM      3  C   UNL     1      33.721 -11.904 -24.867  0.00  0.00    +0.249 C 
ATOM      4  H   UNL     1      33.145 -13.190 -23.373  0.00  0.00    +0.150 HD
ENDROOT
BRANCH   3   6
ATOM      5 CL   UNL     1      34.966  -7.019 -23.731  0.00  0.00    -0.081 Cl
ATOM      6  C   UNL     1      33.503 -10.726 -23.988  0.00  0.00    +0.088 C 
ATOM      7  C   UNL     1      32.581 -10.775 -22.942  0.00  0.00    +0.144 C 
ATOM      8  C   UNL     1      34.234  -9.561 -24.221  0.00  0.00    +0.020 C 
ATOM      9  C   UNL     1      32.390  -9.657 -22.130  0.00  0.00    +0.052 C 
ATOM     10  C   UNL     1      34.042  -8.443 -23.408  0.00  0.00    +0.071 C 
ATOM     11  C   UNL     1      33.120  -8.492 -22.361  0.00  0.00    +0.055 C 
BRANCH  11  12
ATOM     12  N   UNL     1      32.905  -7.377 -21.521  0.00  0.00    -0.356 N 
ATOM     13  H   UNL     1      32.867  -6.471 -21.904  0.00  0.00    +0.142 HD
ATOM     14  H   UNL     1      32.794  -7.505 -20.551  0.00  0.00    +0.142 HD
ENDBRANCH  11  12
BRANCH   7  15
ATOM     15  O   UNL     1      31.857 -11.903 -22.700  0.00  0.00    -0.471 OA
ATOM     16  C   UNL     1      31.666 -12.268 -21.335  0.00  0.00    +0.252 C 
ENDBRANCH   7  15
ENDBRANCH   3   6
BRANCH   2  17
ATOM     17  C   UNL     1      33.651 -14.379 -25.014  0.00  0.00    +0.089 C 
BRANCH  17  19
ATOM     18  N   UNL     1      35.564 -17.273 -22.439  0.00  0.00    +0.387 N 
ATOM     19  C   UNL     1      33.822 -15.551 -24.052  0.00  0.00    +0.015 C 
ATOM     20  C   UNL     1      34.433 -15.090 -22.725  0.00  0.00    -0.021 C 
ATOM     21  C   UNL     1      34.695 -16.649 -24.670  0.00  0.00    -0.021 C 
ATOM     22  C   UNL     1      34.701 -16.274 -21.793  0.00  0.00    -0.077 C 
ATOM     23  C   UNL     1      34.953 -17.781 -23.673  0.00  0.00    -0.077 C 
ATOM     24  H   UNL     1      36.441 -16.815 -22.687  0.00  0.00    -0.080 HD
BRANCH  18  25
ATOM     25  C   UNL     1      35.851 -18.372 -21.518  0.00  0.00    -0.076 C 
BRANCH  25  26
ATOM     26  C   UNL     1      34.990 -19.588 -21.859  0.00  0.00    +0.001 C 
BRANCH  26  27
ATOM     27  C   UNL     1      33.762 -19.666 -20.949  0.00  0.00    +0.116 C 
BRANCH  27  28
ATOM     28  N   UNL     1      33.841 -20.838 -20.005  0.00  0.00    -0.191 N 
ATOM     29  N   UNL     1      32.724 -21.404 -19.520  0.00  0.00    -0.073 NA
ATOM     30  N   UNL     1      33.099 -22.399 -18.724  0.00  0.00    -0.129 NA
ATOM     31  C   UNL     1      34.960 -21.454 -19.534  0.00  0.00    +0.108 C 
ATOM     32  C   UNL     1      34.466 -22.443 -18.723  0.00  0.00    +0.141 C 
ENDBRANCH  27  28
ENDBRANCH  26  27
ENDBRANCH  25  26
ENDBRANCH  18  25
ENDBRANCH  17  19
ENDBRANCH   2  17
TORSDOF 9
ENDMDL
MODEL 8
REMARK VINA RESULT:      -9.7      5.868     11.350
REMARK  Name = 54575171
REMARK  9 active torsions:
REMARK  status: ('A' for Active; 'I' for Inactive)
REMARK    1  A    between atoms: N_2  and  C_17
REMARK    2  A    between atoms: C_3  and  C_6
REMARK    3  A    between atoms: C_7  and  O_15
REMARK    4  A    between atoms: C_11  and  N_12
REMARK    5  A    between atoms: C_17  and  C_19
REMARK    6  A    between atoms: N_18  and  C_25
REMARK    7  A    between atoms: C_25  and  C_26
REMARK    8  A    between atoms: C_26  and  C_27
REMARK    9  A    between atoms: C_27  and  N_28
REMARK                            x       y       z     vdW  Elec       q    Type
REMARK                         _______ _______ _______ _____ _____    ______ ____
ROOT
ATOM      1  O   UNL     1      33.827 -12.052 -25.567  0.00  0.00    -0.270 OA
ATOM      2  N   UNL     1      33.288 -13.196 -23.621  0.00  0.00    -0.301 N 
ATOM      3  C   UNL     1      33.489 -12.050 -24.386  0.00  0.00    +0.249 C 
ATOM      4  H   UNL     1      33.018 -13.093 -22.681  0.00  0.00    +0.150 HD
ENDROOT
BRANCH   3   6
ATOM      5 CL   UNL     1      34.968  -7.127 -23.850  0.00  0.00    -0.081 Cl
ATOM      6  C   UNL     1      33.299 -10.751 -23.689  0.00  0.00    +0.088 C 
ATOM      7  C   UNL     1      32.323 -10.605 -22.703  0.00  0.00    +0.144 C 
ATOM      8  C   UNL     1      34.110  -9.670 -24.034  0.00  0.00    +0.020 C 
ATOM      9  C   UNL     1      32.158  -9.377 -22.063  0.00  0.00    +0.052 C 
ATOM     10  C   UNL     1      33.945  -8.442 -23.393  0.00  0.00    +0.071 C 
ATOM     11  C   UNL     1      32.968  -8.295 -22.406  0.00  0.00    +0.055 C 
BRANCH  11  12
ATOM     12  N   UNL     1      32.778  -7.065 -21.739  0.00  0.00    -0.356 N 
ATOM     13  H   UNL     1      32.035  -6.474 -21.998  0.00  0.00    +0.142 HD
ATOM     14  H   UNL     1      33.389  -6.797 -21.015  0.00  0.00    +0.142 HD
ENDBRANCH  11  12
BRANCH   7  15
ATOM     15  O   UNL     1      31.519 -11.648 -22.354  0.00  0.00    -0.471 OA
ATOM     16  C   UNL     1      31.468 -11.990 -20.970  0.00  0.00    +0.252 C 
ENDBRANCH   7  15
ENDBRANCH   3   6
BRANCH   2  17
ATOM     17  C   UNL     1      33.457 -14.518 -24.144  0.00  0.00    +0.089 C 
BRANCH  17  19
ATOM     18  N   UNL     1      35.077 -17.695 -21.705  0.00  0.00    +0.387 N 
ATOM     19  C   UNL     1      34.448 -15.318 -23.303  0.00  0.00    +0.015 C 
ATOM     20  C   UNL     1      34.733 -16.683 -23.937  0.00  0.00    -0.021 C 
ATOM     21  C   UNL     1      33.929 -15.509 -21.873  0.00  0.00    -0.021 C 
ATOM     22  C   UNL     1      35.647 -17.530 -23.050  0.00  0.00    -0.077 C 
ATOM     23  C   UNL     1      34.871 -16.394 -21.055  0.00  0.00    -0.077 C 
ATOM     24  H   UNL     1      34.167 -18.145 -21.804  0.00  0.00    -0.080 HD
BRANCH  18  25
ATOM     25  C   UNL     1      35.937 -18.548 -20.886  0.00  0.00    -0.076 C 
BRANCH  25  26
ATOM     26  C   UNL     1      35.476 -20.002 -20.971  0.00  0.00    +0.001 C 
BRANCH  26  27
ATOM     27  C   UNL     1      34.006 -20.139 -20.567  0.00  0.00    +0.116 C 
BRANCH  27  28
ATOM     28  N   UNL     1      33.802 -21.254 -19.574  0.00  0.00    -0.191 N 
ATOM     29  N   UNL     1      32.574 -21.543 -19.112  0.00  0.00    -0.073 NA
ATOM     30  N   UNL     1      32.702 -22.556 -18.262  0.00  0.00    -0.129 NA
ATOM     31  C   UNL     1      34.747 -22.071 -19.034  0.00  0.00    +0.108 C 
ATOM     32  C   UNL     1      34.026 -22.892 -18.204  0.00  0.00    +0.141 C 
ENDBRANCH  27  28
ENDBRANCH  26  27
ENDBRANCH  25  26
ENDBRANCH  18  25
ENDBRANCH  17  19
ENDBRANCH   2  17
TORSDOF 9
ENDMDL
MODEL 9
REMARK VINA RESULT:      -9.6      4.391     10.075
REMARK  Name = 54575171
REMARK  9 active torsions:
REMARK  status: ('A' for Active; 'I' for Inactive)
REMARK    1  A    between atoms: N_2  and  C_17
REMARK    2  A    between atoms: C_3  and  C_6
REMARK    3  A    between atoms: C_7  and  O_15
REMARK    4  A    between atoms: C_11  and  N_12
REMARK    5  A    between atoms: C_17  and  C_19
REMARK    6  A    between atoms: N_18  and  C_25
REMARK    7  A    between atoms: C_25  and  C_26
REMARK    8  A    between atoms: C_26  and  C_27
REMARK    9  A    between atoms: C_27  and  N_28
REMARK                            x       y       z     vdW  Elec       q    Type
REMARK                         _______ _______ _______ _____ _____    ______ ____
ROOT
ATOM      1  O   UNL     1      33.944 -16.001 -24.860  0.00  0.00    -0.270 OA
ATOM      2  N   UNL     1      34.777 -16.230 -22.706  0.00  0.00    -0.301 N 
ATOM      3  C   UNL     1      34.089 -15.567 -23.720  0.00  0.00    +0.249 C 
ATOM      4  H   UNL     1      34.840 -15.801 -21.823  0.00  0.00    +0.150 HD
ENDROOT
BRANCH   3   6
ATOM      5 CL   UNL     1      33.914 -10.504 -24.738  0.00  0.00    -0.081 Cl
ATOM      6  C   UNL     1      33.526 -14.236 -23.374  0.00  0.00    +0.088 C 
ATOM      7  C   UNL     1      32.612 -14.097 -22.329  0.00  0.00    +0.144 C 
ATOM      8  C   UNL     1      33.920 -13.119 -24.110  0.00  0.00    +0.020 C 
ATOM      9  C   UNL     1      32.093 -12.840 -22.021  0.00  0.00    +0.052 C 
ATOM     10  C   UNL     1      33.401 -11.862 -23.801  0.00  0.00    +0.071 C 
ATOM     11  C   UNL     1      32.487 -11.722 -22.756  0.00  0.00    +0.055 C 
BRANCH  11  12
ATOM     12  N   UNL     1      31.944 -10.462 -22.419  0.00  0.00    -0.356 N 
ATOM     13  H   UNL     1      31.073 -10.406 -21.964  0.00  0.00    +0.142 HD
ATOM     14  H   UNL     1      32.437  -9.638 -22.640  0.00  0.00    +0.142 HD
ENDBRANCH  11  12
BRANCH   7  15
ATOM     15  O   UNL     1      32.213 -15.176 -21.599  0.00  0.00    -0.471 OA
ATOM     16  C   UNL     1      32.303 -15.068 -20.181  0.00  0.00    +0.252 C 
ENDBRANCH   7  15
ENDBRANCH   3   6
BRANCH   2  17
ATOM     17  C   UNL     1      35.395 -17.507 -22.893  0.00  0.00    +0.089 C 
BRANCH  17  19
ATOM     18  N   UNL     1      35.427 -20.957 -20.293  0.00  0.00    +0.387 N 
ATOM     19  C   UNL     1      35.322 -18.344 -21.619  0.00  0.00    +0.015 C 
ATOM     20  C   UNL     1      36.638 -19.088 -21.372  0.00  0.00    -0.021 C 
ATOM     21  C   UNL     1      34.164 -19.346 -21.683  0.00  0.00    -0.021 C 
ATOM     22  C   UNL     1      36.539 -20.006 -20.152  0.00  0.00    -0.077 C 
ATOM     23  C   UNL     1      34.147 -20.255 -20.452  0.00  0.00    -0.077 C 
ATOM     24  H   UNL     1      35.590 -21.508 -21.136  0.00  0.00    -0.080 HD
BRANCH  18  25
ATOM     25  C   UNL     1      35.377 -21.860 -19.143  0.00  0.00    -0.076 C 
BRANCH  25  26
ATOM     26  C   UNL     1      33.936 -22.288 -18.867  0.00  0.00    +0.001 C 
BRANCH  26  27
ATOM     27  C   UNL     1      33.870 -23.290 -17.712  0.00  0.00    +0.116 C 
BRANCH  27  28
ATOM     28  N   UNL     1      32.593 -23.149 -16.924  0.00  0.00    -0.191 N 
ATOM     29  N   UNL     1      31.472 -22.701 -17.512  0.00  0.00    -0.073 NA
ATOM     30  N   UNL     1      30.521 -22.683 -16.584  0.00  0.00    -0.129 NA
ATOM     31  C   UNL     1      32.392 -23.429 -15.607  0.00  0.00    +0.108 C 
ATOM     32  C   UNL     1      31.069 -23.126 -15.412  0.00  0.00    +0.141 C 
ENDBRANCH  27  28
ENDBRANCH  26  27
ENDBRANCH  25  26
ENDBRANCH  18  25
ENDBRANCH  17  19
ENDBRANCH   2  17
TORSDOF 9
ENDMDL
