MODEL 1
REMARK VINA RESULT:      -5.8      0.000      0.000
REMARK  Name = 7045767
REMARK  6 active torsions:
REMARK  status: ('A' for Active; 'I' for Inactive)
REMARK    1  A    between atoms: C_1  and  O_2
REMARK    2  A    between atoms: C_1  and  C_6
REMARK    3  A    between atoms: C_1  and  C_11
REMARK    4  A    between atoms: O_2  and  C_4
REMARK    5  A    between atoms: C_6  and  N_7
REMARK    6  A    between atoms: C_11  and  C_14
REMARK                            x       y       z     vdW  Elec       q    Type
REMARK                         _______ _______ _______ _____ _____    ______ ____
ROOT
ATOM      1  C   UNL     1      36.404 -24.691 -14.361  0.00  0.00    +0.160 C 
ENDROOT
BRANCH   1   2
ATOM      2  O   UNL     1      36.343 -23.548 -15.215  0.00  0.00    -0.454 OA
BRANCH   2   4
ATOM      3  O   UNL     1      38.646 -23.558 -15.410  0.00  0.00    -0.250 OA
ATOM      4  C   UNL     1      37.546 -23.086 -15.667  0.00  0.00    +0.317 C 
ATOM      5  C   UNL     1      37.330 -21.891 -16.544  0.00  0.00    +0.121 C 
ENDBRANCH   2   4
ENDBRANCH   1   2
BRANCH   1   6
ATOM      6  C   UNL     1      35.630 -24.361 -13.086  0.00  0.00    -0.028 C 
BRANCH   6   7
ATOM      7  N   UNL     1      36.568 -24.224 -11.896  0.00  0.00    +0.388 N 
ATOM      8  C   UNL     1      37.176 -22.829 -11.886  0.00  0.00    -0.096 C 
ATOM      9  C   UNL     1      35.789 -24.447 -10.607  0.00  0.00    -0.096 C 
ATOM     10  C   UNL     1      37.678 -25.261 -12.003  0.00  0.00    -0.096 C 
ENDBRANCH   6   7
ENDBRANCH   1   6
BRANCH   1  11
ATOM     11  C   UNL     1      35.876 -25.920 -15.102  0.00  0.00    +0.155 C 
BRANCH  11  14
ATOM     12  O   UNL     1      37.937 -27.007 -14.771  0.00  0.00    -0.246 OA
ATOM     13  O   UNL     1      36.686 -27.603 -16.586  0.00  0.00    -0.246 OA
ATOM     14  C   UNL     1      36.931 -26.949 -15.536  0.00  0.00    +0.368 C 
ENDBRANCH  11  14
ENDBRANCH   1  11
TORSDOF 6
ENDMDL
MODEL 2
REMARK VINA RESULT:      -5.8      2.319      3.885
REMARK  Name = 7045767
REMARK  6 active torsions:
REMARK  status: ('A' for Active; 'I' for Inactive)
REMARK    1  A    between atoms: C_1  and  O_2
REMARK    2  A    between atoms: C_1  and  C_6
REMARK    3  A    between atoms: C_1  and  C_11
REMARK    4  A    between atoms: O_2  and  C_4
REMARK    5  A    between atoms: C_6  and  N_7
REMARK    6  A    between atoms: C_11  and  C_14
REMARK                            x       y       z     vdW  Elec       q    Type
REMARK                         _______ _______ _______ _____ _____    ______ ____
ROOT
ATOM      1  C   UNL     1      37.636 -24.047 -14.270  0.00  0.00    +0.160 C 
ENDROOT
BRANCH   1   2
ATOM      2  O   UNL     1      38.120 -23.307 -13.148  0.00  0.00    -0.454 OA
BRANCH   2   4
ATOM      3  O   UNL     1      37.352 -22.980 -10.993  0.00  0.00    -0.250 OA
ATOM      4  C   UNL     1      37.647 -23.708 -11.931  0.00  0.00    +0.317 C 
ATOM      5  C   UNL     1      37.534 -25.202 -11.901  0.00  0.00    +0.121 C 
ENDBRANCH   2   4
ENDBRANCH   1   2
BRANCH   1   6
ATOM      6  C   UNL     1      36.470 -23.265 -14.873  0.00  0.00    -0.028 C 
BRANCH   6   7
ATOM      7  N   UNL     1      35.210 -24.117 -14.926  0.00  0.00    +0.388 N 
ATOM      8  C   UNL     1      34.328 -23.649 -16.075  0.00  0.00    -0.096 C 
ATOM      9  C   UNL     1      35.591 -25.575 -15.140  0.00  0.00    -0.096 C 
ATOM     10  C   UNL     1      34.449 -23.980 -13.614  0.00  0.00    -0.096 C 
ENDBRANCH   6   7
ENDBRANCH   1   6
BRANCH   1  11
ATOM     11  C   UNL     1      38.779 -24.305 -15.252  0.00  0.00    +0.155 C 
BRANCH  11  14
ATOM     12  O   UNL     1      39.366 -26.517 -14.701  0.00  0.00    -0.246 OA
ATOM     13  O   UNL     1      40.993 -24.918 -14.610  0.00  0.00    -0.246 OA
ATOM     14  C   UNL     1      39.823 -25.342 -14.812  0.00  0.00    +0.368 C 
ENDBRANCH  11  14
ENDBRANCH   1  11
TORSDOF 6
ENDMDL
MODEL 3
REMARK VINA RESULT:      -5.7      1.813      2.615
REMARK  Name = 7045767
REMARK  6 active torsions:
REMARK  status: ('A' for Active; 'I' for Inactive)
REMARK    1  A    between atoms: C_1  and  O_2
REMARK    2  A    between atoms: C_1  and  C_6
REMARK    3  A    between atoms: C_1  and  C_11
REMARK    4  A    between atoms: O_2  and  C_4
REMARK    5  A    between atoms: C_6  and  N_7
REMARK    6  A    between atoms: C_11  and  C_14
REMARK                            x       y       z     vdW  Elec       q    Type
REMARK                         _______ _______ _______ _____ _____    ______ ____
ROOT
ATOM      1  C   UNL     1      37.681 -24.975 -14.133  0.00  0.00    +0.160 C 
ENDROOT
BRANCH   1   2
ATOM      2  O   UNL     1      36.999 -24.633 -15.340  0.00  0.00    -0.454 OA
BRANCH   2   4
ATOM      3  O   UNL     1      38.272 -22.772 -15.848  0.00  0.00    -0.250 OA
ATOM      4  C   UNL     1      37.200 -23.359 -15.788  0.00  0.00    +0.317 C 
ATOM      5  C   UNL     1      35.892 -22.761 -16.209  0.00  0.00    +0.121 C 
ENDBRANCH   2   4
ENDBRANCH   1   2
BRANCH   1   6
ATOM      6  C   UNL     1      36.629 -25.415 -13.115  0.00  0.00    -0.028 C 
BRANCH   6   7
ATOM      7  N   UNL     1      36.127 -24.232 -12.300  0.00  0.00    +0.388 N 
ATOM      8  C   UNL     1      35.850 -24.680 -10.872  0.00  0.00    -0.096 C 
ATOM      9  C   UNL     1      37.185 -23.136 -12.292  0.00  0.00    -0.096 C 
ATOM     10  C   UNL     1      34.846 -23.694 -12.921  0.00  0.00    -0.096 C 
ENDBRANCH   6   7
ENDBRANCH   1   6
BRANCH   1  11
ATOM     11  C   UNL     1      38.744 -26.036 -14.419  0.00  0.00    +0.155 C 
BRANCH  11  14
ATOM     12  O   UNL     1      40.595 -26.012 -15.872  0.00  0.00    -0.246 OA
ATOM     13  O   UNL     1      40.651 -24.656 -14.036  0.00  0.00    -0.246 OA
ATOM     14  C   UNL     1      40.133 -25.509 -14.807  0.00  0.00    +0.368 C 
ENDBRANCH  11  14
ENDBRANCH   1  11
TORSDOF 6
ENDMDL
MODEL 4
REMARK VINA RESULT:      -5.6      2.551      4.099
REMARK  Name = 7045767
REMARK  6 active torsions:
REMARK  status: ('A' for Active; 'I' for Inactive)
REMARK    1  A    between atoms: C_1  and  O_2
REMARK    2  A    between atoms: C_1  and  C_6
REMARK    3  A    between atoms: C_1  and  C_11
REMARK    4  A    between atoms: O_2  and  C_4
REMARK    5  A    between atoms: C_6  and  N_7
REMARK    6  A    between atoms: C_11  and  C_14
REMARK                            x       y       z     vdW  Elec       q    Type
REMARK                         _______ _______ _______ _____ _____    ______ ____
ROOT
ATOM      1  C   UNL     1      36.373 -23.828 -13.550  0.00  0.00    +0.160 C 
ENDROOT
BRANCH   1   2
ATOM      2  O   UNL     1      35.500 -23.014 -14.334  0.00  0.00    -0.454 OA
BRANCH   2   4
ATOM      3  O   UNL     1      34.818 -24.058 -16.280  0.00  0.00    -0.250 OA
ATOM      4  C   UNL     1      34.620 -23.691 -15.129  0.00  0.00    +0.317 C 
ATOM      5  C   UNL     1      33.344 -23.928 -14.380  0.00  0.00    +0.121 C 
ENDBRANCH   2   4
ENDBRANCH   1   2
BRANCH   1   6
ATOM      6  C   UNL     1      37.724 -23.879 -14.261  0.00  0.00    -0.028 C 
BRANCH   6   7
ATOM      7  N   UNL     1      38.283 -25.294 -14.274  0.00  0.00    +0.388 N 
ATOM      8  C   UNL     1      38.483 -25.774 -12.843  0.00  0.00    -0.096 C 
ATOM      9  C   UNL     1      37.306 -26.219 -14.987  0.00  0.00    -0.096 C 
ATOM     10  C   UNL     1      39.618 -25.307 -15.005  0.00  0.00    -0.096 C 
ENDBRANCH   6   7
ENDBRANCH   1   6
BRANCH   1  11
ATOM     11  C   UNL     1      36.447 -23.284 -12.123  0.00  0.00    +0.155 C 
BRANCH  11  14
ATOM     12  O   UNL     1      36.325 -23.994  -9.883  0.00  0.00    -0.246 OA
ATOM     13  O   UNL     1      34.912 -24.958 -11.395  0.00  0.00    -0.246 OA
ATOM     14  C   UNL     1      35.826 -24.169 -11.032  0.00  0.00    +0.368 C 
ENDBRANCH  11  14
ENDBRANCH   1  11
TORSDOF 6
ENDMDL
MODEL 5
REMARK VINA RESULT:      -5.5      9.930     12.054
REMARK  Name = 7045767
REMARK  6 active torsions:
REMARK  status: ('A' for Active; 'I' for Inactive)
REMARK    1  A    between atoms: C_1  and  O_2
REMARK    2  A    between atoms: C_1  and  C_6
REMARK    3  A    between atoms: C_1  and  C_11
REMARK    4  A    between atoms: O_2  and  C_4
REMARK    5  A    between atoms: C_6  and  N_7
REMARK    6  A    between atoms: C_11  and  C_14
REMARK                            x       y       z     vdW  Elec       q    Type
REMARK                         _______ _______ _______ _____ _____    ______ ____
ROOT
ATOM      1  C   UNL     1      34.586 -16.587 -21.796  0.00  0.00    +0.160 C 
ENDROOT
BRANCH   1   2
ATOM      2  O   UNL     1      35.214 -16.008 -22.941  0.00  0.00    -0.454 OA
BRANCH   2   4
ATOM      3  O   UNL     1      33.496 -15.001 -24.114  0.00  0.00    -0.250 OA
ATOM      4  C   UNL     1      34.403 -15.817 -24.023  0.00  0.00    +0.317 C 
ATOM      5  C   UNL     1      34.786 -16.770 -25.114  0.00  0.00    +0.121 C 
ENDBRANCH   2   4
ENDBRANCH   1   2
BRANCH   1   6
ATOM      6  C   UNL     1      35.502 -17.692 -21.274  0.00  0.00    -0.028 C 
BRANCH   6   7
ATOM      7  N   UNL     1      34.864 -19.062 -21.451  0.00  0.00    +0.388 N 
ATOM      8  C   UNL     1      33.435 -19.029 -20.925  0.00  0.00    -0.096 C 
ATOM      9  C   UNL     1      34.851 -19.428 -22.929  0.00  0.00    -0.096 C 
ATOM     10  C   UNL     1      35.665 -20.100 -20.678  0.00  0.00    -0.096 C 
ENDBRANCH   6   7
ENDBRANCH   1   6
BRANCH   1  11
ATOM     11  C   UNL     1      34.282 -15.499 -20.765  0.00  0.00    +0.155 C 
BRANCH  11  14
ATOM     12  O   UNL     1      31.965 -15.876 -20.935  0.00  0.00    -0.246 OA
ATOM     13  O   UNL     1      32.682 -13.744 -20.542  0.00  0.00    -0.246 OA
ATOM     14  C   UNL     1      32.837 -14.980 -20.742  0.00  0.00    +0.368 C 
ENDBRANCH  11  14
ENDBRANCH   1  11
TORSDOF 6
ENDMDL
MODEL 6
REMARK VINA RESULT:      -5.4     10.655     12.877
REMARK  Name = 7045767
REMARK  6 active torsions:
REMARK  status: ('A' for Active; 'I' for Inactive)
REMARK    1  A    between atoms: C_1  and  O_2
REMARK    2  A    between atoms: C_1  and  C_6
REMARK    3  A    between atoms: C_1  and  C_11
REMARK    4  A    between atoms: O_2  and  C_4
REMARK    5  A    between atoms: C_6  and  N_7
REMARK    6  A    between atoms: C_11  and  C_14
REMARK                            x       y       z     vdW  Elec       q    Type
REMARK                         _______ _______ _______ _____ _____    ______ ____
ROOT
ATOM      1  C   UNL     1      34.512 -16.239 -23.000  0.00  0.00    +0.160 C 
ENDROOT
BRANCH   1   2
ATOM      2  O   UNL     1      34.898 -15.952 -24.345  0.00  0.00    -0.454 OA
BRANCH   2   4
ATOM      3  O   UNL     1      33.808 -17.472 -25.703  0.00  0.00    -0.250 OA
ATOM      4  C   UNL     1      34.005 -16.331 -25.306  0.00  0.00    +0.317 C 
ATOM      5  C   UNL     1      33.280 -15.126 -25.824  0.00  0.00    +0.121 C 
ENDBRANCH   2   4
ENDBRANCH   1   2
BRANCH   1   6
ATOM      6  C   UNL     1      35.633 -17.057 -22.360  0.00  0.00    -0.028 C 
BRANCH   6   7
ATOM      7  N   UNL     1      35.132 -18.429 -21.932  0.00  0.00    +0.388 N 
ATOM      8  C   UNL     1      34.888 -19.288 -23.165  0.00  0.00    -0.096 C 
ATOM      9  C   UNL     1      36.175 -19.097 -21.047  0.00  0.00    -0.096 C 
ATOM     10  C   UNL     1      33.831 -18.276 -21.156  0.00  0.00    -0.096 C 
ENDBRANCH   6   7
ENDBRANCH   1   6
BRANCH   1  11
ATOM     11  C   UNL     1      34.201 -14.937 -22.261  0.00  0.00    +0.155 C 
BRANCH  11  14
ATOM     12  O   UNL     1      32.327 -13.605 -22.768  0.00  0.00    -0.246 OA
ATOM     13  O   UNL     1      32.053 -15.334 -21.302  0.00  0.00    -0.246 OA
ATOM     14  C   UNL     1      32.712 -14.601 -22.088  0.00  0.00    +0.368 C 
ENDBRANCH  11  14
ENDBRANCH   1  11
TORSDOF 6
ENDMDL
MODEL 7
REMARK VINA RESULT:      -5.2     10.918     13.542
REMARK  Name = 7045767
REMARK  6 active torsions:
REMARK  status: ('A' for Active; 'I' for Inactive)
REMARK    1  A    between atoms: C_1  and  O_2
REMARK    2  A    between atoms: C_1  and  C_6
REMARK    3  A    between atoms: C_1  and  C_11
REMARK    4  A    between atoms: O_2  and  C_4
REMARK    5  A    between atoms: C_6  and  N_7
REMARK    6  A    between atoms: C_11  and  C_14
REMARK                            x       y       z     vdW  Elec       q    Type
REMARK                         _______ _______ _______ _____ _____    ______ ____
ROOT
ATOM      1  C   UNL     1      33.925 -15.704 -23.073  0.00  0.00    +0.160 C 
ENDROOT
BRANCH   1   2
ATOM      2  O   UNL     1      33.450 -16.164 -21.807  0.00  0.00    -0.454 OA
BRANCH   2   4
ATOM      3  O   UNL     1      35.242 -16.377 -20.364  0.00  0.00    -0.250 OA
ATOM      4  C   UNL     1      34.354 -16.858 -21.056  0.00  0.00    +0.317 C 
ATOM      5  C   UNL     1      34.106 -18.328 -21.200  0.00  0.00    +0.121 C 
ENDBRANCH   2   4
ENDBRANCH   1   2
BRANCH   1   6
ATOM      6  C   UNL     1      34.308 -14.233 -22.919  0.00  0.00    -0.028 C 
BRANCH   6   7
ATOM      7  N   UNL     1      33.310 -13.330 -23.630  0.00  0.00    +0.388 N 
ATOM      8  C   UNL     1      32.152 -13.015 -22.693  0.00  0.00    -0.096 C 
ATOM      9  C   UNL     1      33.998 -12.035 -24.038  0.00  0.00    -0.096 C 
ATOM     10  C   UNL     1      32.781 -14.036 -24.871  0.00  0.00    -0.096 C 
ENDBRANCH   6   7
ENDBRANCH   1   6
BRANCH   1  11
ATOM     11  C   UNL     1      35.073 -16.593 -23.551  0.00  0.00    +0.155 C 
BRANCH  11  14
ATOM     12  O   UNL     1      34.656 -18.633 -24.647  0.00  0.00    -0.246 OA
ATOM     13  O   UNL     1      34.797 -16.740 -25.915  0.00  0.00    -0.246 OA
ATOM     14  C   UNL     1      34.816 -17.393 -24.836  0.00  0.00    +0.368 C 
ENDBRANCH  11  14
ENDBRANCH   1  11
TORSDOF 6
ENDMDL
MODEL 8
REMARK VINA RESULT:      -5.2     10.280     12.362
REMARK  Name = 7045767
REMARK  6 active torsions:
REMARK  status: ('A' for Active; 'I' for Inactive)
REMARK    1  A    between atoms: C_1  and  O_2
REMARK    2  A    between atoms: C_1  and  C_6
REMARK    3  A    between atoms: C_1  and  C_11
REMARK    4  A    between atoms: O_2  and  C_4
REMARK    5  A    between atoms: C_6  and  N_7
REMARK    6  A    between atoms: C_11  and  C_14
REMARK                            x       y       z     vdW  Elec       q    Type
REMARK                         _______ _______ _______ _____ _____    ______ ____
ROOT
ATOM      1  C   UNL     1      34.976 -16.264 -22.708  0.00  0.00    +0.160 C 
ENDROOT
BRANCH   1   2
ATOM      2  O   UNL     1      34.498 -15.016 -22.202  0.00  0.00    -0.454 OA
BRANCH   2   4
ATOM      3  O   UNL     1      34.977 -15.375 -19.970  0.00  0.00    -0.250 OA
ATOM      4  C   UNL     1      34.235 -14.988 -20.862  0.00  0.00    +0.317 C 
ATOM      5  C   UNL     1      32.876 -14.400 -20.628  0.00  0.00    +0.121 C 
ENDBRANCH   2   4
ENDBRANCH   1   2
BRANCH   1   6
ATOM      6  C   UNL     1      33.956 -17.338 -22.334  0.00  0.00    -0.028 C 
BRANCH   6   7
ATOM      7  N   UNL     1      34.644 -18.653 -22.000  0.00  0.00    +0.388 N 
ATOM      8  C   UNL     1      33.784 -19.444 -21.025  0.00  0.00    -0.096 C 
ATOM      9  C   UNL     1      34.839 -19.462 -23.275  0.00  0.00    -0.096 C 
ATOM     10  C   UNL     1      36.000 -18.371 -21.368  0.00  0.00    -0.096 C 
ENDBRANCH   6   7
ENDBRANCH   1   6
BRANCH   1  11
ATOM     11  C   UNL     1      35.228 -16.150 -24.212  0.00  0.00    +0.155 C 
BRANCH  11  14
ATOM     12  O   UNL     1      33.825 -17.224 -25.767  0.00  0.00    -0.246 OA
ATOM     13  O   UNL     1      33.263 -15.118 -25.088  0.00  0.00    -0.246 OA
ATOM     14  C   UNL     1      33.979 -16.157 -25.106  0.00  0.00    +0.368 C 
ENDBRANCH  11  14
ENDBRANCH   1  11
TORSDOF 6
ENDMDL
MODEL 9
REMARK VINA RESULT:      -5.2      9.106     11.563
REMARK  Name = 7045767
REMARK  6 active torsions:
REMARK  status: ('A' for Active; 'I' for Inactive)
REMARK    1  A    between atoms: C_1  and  O_2
REMARK    2  A    between atoms: C_1  and  C_6
REMARK    3  A    between atoms: C_1  and  C_11
REMARK    4  A    between atoms: O_2  and  C_4
REMARK    5  A    between atoms: C_6  and  N_7
REMARK    6  A    between atoms: C_11  and  C_14
REMARK                            x       y       z     vdW  Elec       q    Type
REMARK                         _______ _______ _______ _____ _____    ______ ____
ROOT
ATOM      1  C   UNL     1      34.711 -17.380 -21.712  0.00  0.00    +0.160 C 
ENDROOT
BRANCH   1   2
ATOM      2  O   UNL     1      35.126 -18.242 -20.651  0.00  0.00    -0.454 OA
BRANCH   2   4
ATOM      3  O   UNL     1      35.626 -20.484 -20.900  0.00  0.00    -0.250 OA
ATOM      4  C   UNL     1      34.825 -19.563 -20.815  0.00  0.00    +0.317 C 
ATOM      5  C   UNL     1      33.337 -19.736 -20.877  0.00  0.00    +0.121 C 
ENDBRANCH   2   4
ENDBRANCH   1   2
BRANCH   1   6
ATOM      6  C   UNL     1      34.685 -15.952 -21.167  0.00  0.00    -0.028 C 
BRANCH   6   7
ATOM      7  N   UNL     1      33.321 -15.312 -21.377  0.00  0.00    +0.388 N 
ATOM      8  C   UNL     1      32.232 -16.279 -20.932  0.00  0.00    -0.096 C 
ATOM      9  C   UNL     1      33.229 -14.032 -20.557  0.00  0.00    -0.096 C 
ATOM     10  C   UNL     1      33.135 -14.983 -22.852  0.00  0.00    -0.096 C 
ENDBRANCH   6   7
ENDBRANCH   1   6
BRANCH   1  11
ATOM     11  C   UNL     1      35.632 -17.562 -22.919  0.00  0.00    +0.155 C 
BRANCH  11  14
ATOM     12  O   UNL     1      34.498 -19.121 -24.269  0.00  0.00    -0.246 OA
ATOM     13  O   UNL     1      34.904 -17.046 -25.131  0.00  0.00    -0.246 OA
ATOM     14  C   UNL     1      34.944 -17.937 -24.239  0.00  0.00    +0.368 C 
ENDBRANCH  11  14
ENDBRANCH   1  11
TORSDOF 6
ENDMDL
