MODEL 1
REMARK VINA RESULT:     -10.1      0.000      0.000
REMARK  Name = 657061
REMARK  8 active torsions:
REMARK  status: ('A' for Active; 'I' for Inactive)
REMARK    1  A    between atoms: C_6  and  O_12
REMARK    2  A    between atoms: C_6  and  C_27
REMARK    3  A    between atoms: O_12  and  C_13
REMARK    4  A    between atoms: C_18  and  O_19
REMARK    5  A    between atoms: O_19  and  C_21
REMARK    6  A    between atoms: C_27  and  C_28
REMARK    7  A    between atoms: C_28  and  O_29
REMARK    8  A    between atoms: O_29  and  C_30
REMARK                            x       y       z     vdW  Elec       q    Type
REMARK                         _______ _______ _______ _____ _____    ______ ____
ROOT
ATOM      1  O   UNL     1      35.038 -25.228 -16.042  0.00  0.00    -0.270 OA
ATOM      2  O   UNL     1      37.707 -22.602 -13.258  0.00  0.00    -0.270 OA
ATOM      3  O   UNL     1      39.180 -26.706 -14.706  0.00  0.00    -0.252 OA
ATOM      4  N   UNL     1      37.062 -26.023 -15.289  0.00  0.00    -0.236 N 
ATOM      5  N   UNL     1      38.405 -24.702 -13.886  0.00  0.00    -0.236 N 
ATOM      6  C   UNL     1      36.055 -24.110 -14.163  0.00  0.00    +0.270 C 
ATOM      7  C   UNL     1      35.986 -25.149 -15.263  0.00  0.00    +0.274 C 
ATOM      8  C   UNL     1      37.451 -23.707 -13.734  0.00  0.00    +0.274 C 
ATOM      9  C   UNL     1      38.273 -25.877 -14.619  0.00  0.00    +0.312 C 
ATOM     10  H   UNL     1      36.959 -26.832 -15.842  0.00  0.00    +0.159 HD
ATOM     11  H   UNL     1      39.264 -24.562 -13.428  0.00  0.00    +0.159 HD
ENDROOT
BRANCH   6  12
ATOM     12  O   UNL     1      35.407 -22.937 -14.625  0.00  0.00    -0.465 OA
BRANCH  12  13
ATOM     13  C   UNL     1      35.554 -22.628 -15.954  0.00  0.00    +0.140 C 
ATOM     14  C   UNL     1      34.493 -22.829 -16.827  0.00  0.00    +0.040 C 
ATOM     15  C   UNL     1      36.763 -22.117 -16.410  0.00  0.00    +0.040 C 
ATOM     16  C   UNL     1      34.642 -22.515 -18.178  0.00  0.00    +0.041 C 
ATOM     17  C   UNL     1      36.912 -21.803 -17.761  0.00  0.00    +0.041 C 
ATOM     18  C   UNL     1      35.852 -22.002 -18.644  0.00  0.00    +0.145 C 
BRANCH  18  19
ATOM     19  O   UNL     1      35.998 -21.695 -19.963  0.00  0.00    -0.453 OA
BRANCH  19  21
ATOM     20  F   UNL     1      33.875 -16.946 -21.722  0.00  0.00    -0.204 F 
ATOM     21  C   UNL     1      35.463 -20.496 -20.406  0.00  0.00    +0.145 C 
ATOM     22  C   UNL     1      36.315 -19.453 -20.722  0.00  0.00    +0.040 C 
ATOM     23  C   UNL     1      34.090 -20.374 -20.524  0.00  0.00    +0.040 C 
ATOM     24  C   UNL     1      35.776 -18.247 -21.168  0.00  0.00    +0.033 C 
ATOM     25  C   UNL     1      33.551 -19.169 -20.971  0.00  0.00    +0.033 C 
ATOM     26  C   UNL     1      34.394 -18.105 -21.293  0.00  0.00    +0.140 C 
ENDBRANCH  19  21
ENDBRANCH  18  19
ENDBRANCH  12  13
ENDBRANCH   6  12
BRANCH   6  27
ATOM     27  C   UNL     1      35.319 -24.650 -12.933  0.00  0.00    +0.090 C 
BRANCH  27  28
ATOM     28  C   UNL     1      33.960 -23.997 -12.772  0.00  0.00    +0.147 C 
BRANCH  28  29
ATOM     29  O   UNL     1      32.961 -24.966 -13.057  0.00  0.00    -0.354 OA
BRANCH  29  30
ATOM     30  C   UNL     1      32.122 -24.552 -14.129  0.00  0.00    +0.142 C 
ATOM     31  C   UNL     1      31.927 -23.054 -14.051  0.00  0.00    +0.035 C 
ENDBRANCH  29  30
ENDBRANCH  28  29
ENDBRANCH  27  28
ENDBRANCH   6  27
TORSDOF 8
ENDMDL
MODEL 2
REMARK VINA RESULT:      -9.6      1.612      3.601
REMARK  Name = 657061
REMARK  8 active torsions:
REMARK  status: ('A' for Active; 'I' for Inactive)
REMARK    1  A    between atoms: C_6  and  O_12
REMARK    2  A    between atoms: C_6  and  C_27
REMARK    3  A    between atoms: O_12  and  C_13
REMARK    4  A    between atoms: C_18  and  O_19
REMARK    5  A    between atoms: O_19  and  C_21
REMARK    6  A    between atoms: C_27  and  C_28
REMARK    7  A    between atoms: C_28  and  O_29
REMARK    8  A    between atoms: O_29  and  C_30
REMARK                            x       y       z     vdW  Elec       q    Type
REMARK                         _______ _______ _______ _____ _____    ______ ____
ROOT
ATOM      1  O   UNL     1      36.818 -22.390 -12.550  0.00  0.00    -0.270 OA
ATOM      2  O   UNL     1      35.310 -25.555 -15.630  0.00  0.00    -0.270 OA
ATOM      3  O   UNL     1      37.474 -26.877 -11.798  0.00  0.00    -0.252 OA
ATOM      4  N   UNL     1      37.249 -24.627 -12.219  0.00  0.00    -0.236 N 
ATOM      5  N   UNL     1      36.491 -26.220 -13.771  0.00  0.00    -0.236 N 
ATOM      6  C   UNL     1      36.561 -23.875 -14.434  0.00  0.00    +0.270 C 
ATOM      7  C   UNL     1      36.869 -23.538 -12.989  0.00  0.00    +0.274 C 
ATOM      8  C   UNL     1      36.041 -25.276 -14.681  0.00  0.00    +0.274 C 
ATOM      9  C   UNL     1      37.112 -25.971 -12.551  0.00  0.00    +0.312 C 
ATOM     10  H   UNL     1      37.656 -24.428 -11.345  0.00  0.00    +0.159 HD
ATOM     11  H   UNL     1      36.357 -27.164 -14.013  0.00  0.00    +0.159 HD
ENDROOT
BRANCH   6  12
ATOM     12  O   UNL     1      35.567 -22.975 -14.893  0.00  0.00    -0.465 OA
BRANCH  12  13
ATOM     13  C   UNL     1      35.615 -22.617 -16.217  0.00  0.00    +0.140 C 
ATOM     14  C   UNL     1      36.717 -21.924 -16.700  0.00  0.00    +0.040 C 
ATOM     15  C   UNL     1      34.559 -22.950 -17.056  0.00  0.00    +0.040 C 
ATOM     16  C   UNL     1      36.765 -21.559 -18.047  0.00  0.00    +0.041 C 
ATOM     17  C   UNL     1      34.607 -22.585 -18.402  0.00  0.00    +0.041 C 
ATOM     18  C   UNL     1      35.709 -21.890 -18.896  0.00  0.00    +0.145 C 
BRANCH  18  19
ATOM     19  O   UNL     1      35.757 -21.534 -20.209  0.00  0.00    -0.453 OA
BRANCH  19  21
ATOM     20  F   UNL     1      33.713 -16.630 -21.597  0.00  0.00    -0.204 F 
ATOM     21  C   UNL     1      35.242 -20.296 -20.560  0.00  0.00    +0.145 C 
ATOM     22  C   UNL     1      36.112 -19.266 -20.867  0.00  0.00    +0.040 C 
ATOM     23  C   UNL     1      33.870 -20.123 -20.594  0.00  0.00    +0.040 C 
ATOM     24  C   UNL     1      35.593 -18.020 -21.218  0.00  0.00    +0.033 C 
ATOM     25  C   UNL     1      33.351 -18.878 -20.947  0.00  0.00    +0.033 C 
ATOM     26  C   UNL     1      34.212 -17.827 -21.258  0.00  0.00    +0.140 C 
ENDBRANCH  19  21
ENDBRANCH  18  19
ENDBRANCH  12  13
ENDBRANCH   6  12
BRANCH   6  27
ATOM     27  C   UNL     1      37.838 -23.691 -15.261  0.00  0.00    +0.090 C 
BRANCH  27  28
ATOM     28  C   UNL     1      38.670 -24.958 -15.282  0.00  0.00    +0.147 C 
BRANCH  28  29
ATOM     29  O   UNL     1      40.017 -24.615 -14.994  0.00  0.00    -0.354 OA
BRANCH  29  30
ATOM     30  C   UNL     1      40.487 -25.275 -13.825  0.00  0.00    +0.142 C 
ATOM     31  C   UNL     1      40.839 -26.705 -14.175  0.00  0.00    +0.035 C 
ENDBRANCH  29  30
ENDBRANCH  28  29
ENDBRANCH  27  28
ENDBRANCH   6  27
TORSDOF 8
ENDMDL
MODEL 3
REMARK VINA RESULT:      -9.4      7.117     12.010
REMARK  Name = 657061
REMARK  8 active torsions:
REMARK  status: ('A' for Active; 'I' for Inactive)
REMARK    1  A    between atoms: C_6  and  O_12
REMARK    2  A    between atoms: C_6  and  C_27
REMARK    3  A    between atoms: O_12  and  C_13
REMARK    4  A    between atoms: C_18  and  O_19
REMARK    5  A    between atoms: O_19  and  C_21
REMARK    6  A    between atoms: C_27  and  C_28
REMARK    7  A    between atoms: C_28  and  O_29
REMARK    8  A    between atoms: O_29  and  C_30
REMARK                            x       y       z     vdW  Elec       q    Type
REMARK                         _______ _______ _______ _____ _____    ______ ____
ROOT
ATOM      1  O   UNL     1      32.539 -14.019 -20.308  0.00  0.00    -0.270 OA
ATOM      2  O   UNL     1      34.456 -11.974 -24.039  0.00  0.00    -0.270 OA
ATOM      3  O   UNL     1      30.499 -10.413 -22.300  0.00  0.00    -0.252 OA
ATOM      4  N   UNL     1      31.455 -12.285 -21.365  0.00  0.00    -0.236 N 
ATOM      5  N   UNL     1      32.420 -11.257 -23.245  0.00  0.00    -0.236 N 
ATOM      6  C   UNL     1      33.262 -13.432 -22.534  0.00  0.00    +0.270 C 
ATOM      7  C   UNL     1      32.411 -13.286 -21.288  0.00  0.00    +0.274 C 
ATOM      8  C   UNL     1      33.464 -12.164 -23.337  0.00  0.00    +0.274 C 
ATOM      9  C   UNL     1      31.386 -11.268 -22.313  0.00  0.00    +0.312 C 
ATOM     10  H   UNL     1      30.752 -12.293 -20.675  0.00  0.00    +0.159 HD
ATOM     11  H   UNL     1      32.408 -10.529 -23.907  0.00  0.00    +0.159 HD
ENDROOT
BRANCH   6  12
ATOM     12  O   UNL     1      34.545 -13.884 -22.139  0.00  0.00    -0.465 OA
BRANCH  12  13
ATOM     13  C   UNL     1      34.759 -15.240 -22.150  0.00  0.00    +0.140 C 
ATOM     14  C   UNL     1      35.014 -15.883 -23.354  0.00  0.00    +0.040 C 
ATOM     15  C   UNL     1      34.716 -15.951 -20.958  0.00  0.00    +0.040 C 
ATOM     16  C   UNL     1      35.230 -17.262 -23.366  0.00  0.00    +0.041 C 
ATOM     17  C   UNL     1      34.933 -17.329 -20.970  0.00  0.00    +0.041 C 
ATOM     18  C   UNL     1      35.189 -17.984 -22.174  0.00  0.00    +0.145 C 
BRANCH  18  19
ATOM     19  O   UNL     1      35.401 -19.329 -22.186  0.00  0.00    -0.453 OA
BRANCH  19  21
ATOM     20  F   UNL     1      33.136 -22.303 -18.164  0.00  0.00    -0.204 F 
ATOM     21  C   UNL     1      34.829 -20.079 -21.171  0.00  0.00    +0.145 C 
ATOM     22  C   UNL     1      33.455 -20.061 -21.011  0.00  0.00    +0.040 C 
ATOM     23  C   UNL     1      35.647 -20.828 -20.345  0.00  0.00    +0.040 C 
ATOM     24  C   UNL     1      32.880 -20.816 -19.990  0.00  0.00    +0.033 C 
ATOM     25  C   UNL     1      35.072 -21.584 -19.324  0.00  0.00    +0.033 C 
ATOM     26  C   UNL     1      33.688 -21.577 -19.146  0.00  0.00    +0.140 C 
ENDBRANCH  19  21
ENDBRANCH  18  19
ENDBRANCH  12  13
ENDBRANCH   6  12
BRANCH   6  27
ATOM     27  C   UNL     1      32.612 -14.475 -23.450  0.00  0.00    +0.090 C 
BRANCH  27  28
ATOM     28  C   UNL     1      32.484 -13.959 -24.869  0.00  0.00    +0.147 C 
BRANCH  28  29
ATOM     29  O   UNL     1      32.974 -14.956 -25.754  0.00  0.00    -0.354 OA
BRANCH  29  30
ATOM     30  C   UNL     1      32.973 -14.505 -27.103  0.00  0.00    +0.142 C 
ATOM     31  C   UNL     1      33.327 -13.034 -27.131  0.00  0.00    +0.035 C 
ENDBRANCH  29  30
ENDBRANCH  28  29
ENDBRANCH  27  28
ENDBRANCH   6  27
TORSDOF 8
ENDMDL
MODEL 4
REMARK VINA RESULT:      -9.4      4.005      5.522
REMARK  Name = 657061
REMARK  8 active torsions:
REMARK  status: ('A' for Active; 'I' for Inactive)
REMARK    1  A    between atoms: C_6  and  O_12
REMARK    2  A    between atoms: C_6  and  C_27
REMARK    3  A    between atoms: O_12  and  C_13
REMARK    4  A    between atoms: C_18  and  O_19
REMARK    5  A    between atoms: O_19  and  C_21
REMARK    6  A    between atoms: C_27  and  C_28
REMARK    7  A    between atoms: C_28  and  O_29
REMARK    8  A    between atoms: O_29  and  C_30
REMARK                            x       y       z     vdW  Elec       q    Type
REMARK                         _______ _______ _______ _____ _____    ______ ____
ROOT
ATOM      1  O   UNL     1      36.559 -27.316 -15.216  0.00  0.00    -0.270 OA
ATOM      2  O   UNL     1      38.152 -22.951 -15.649  0.00  0.00    -0.270 OA
ATOM      3  O   UNL     1      40.931 -26.315 -14.211  0.00  0.00    -0.252 OA
ATOM      4  N   UNL     1      38.718 -26.803 -14.606  0.00  0.00    -0.236 N 
ATOM      5  N   UNL     1      39.519 -24.605 -14.822  0.00  0.00    -0.236 N 
ATOM      6  C   UNL     1      37.112 -24.991 -14.889  0.00  0.00    +0.270 C 
ATOM      7  C   UNL     1      37.413 -26.475 -14.938  0.00  0.00    +0.274 C 
ATOM      8  C   UNL     1      38.287 -24.078 -15.175  0.00  0.00    +0.274 C 
ATOM      9  C   UNL     1      39.798 -25.932 -14.508  0.00  0.00    +0.312 C 
ATOM     10  H   UNL     1      38.900 -27.753 -14.420  0.00  0.00    +0.159 HD
ATOM     11  H   UNL     1      40.275 -23.976 -14.789  0.00  0.00    +0.159 HD
ENDROOT
BRANCH   6  12
ATOM     12  O   UNL     1      36.121 -24.711 -15.861  0.00  0.00    -0.465 OA
BRANCH  12  13
ATOM     13  C   UNL     1      34.870 -24.384 -15.399  0.00  0.00    +0.140 C 
ATOM     14  C   UNL     1      34.208 -23.285 -15.931  0.00  0.00    +0.040 C 
ATOM     15  C   UNL     1      34.282 -25.157 -14.406  0.00  0.00    +0.040 C 
ATOM     16  C   UNL     1      32.937 -22.953 -15.460  0.00  0.00    +0.041 C 
ATOM     17  C   UNL     1      33.011 -24.825 -13.936  0.00  0.00    +0.041 C 
ATOM     18  C   UNL     1      32.339 -23.723 -14.463  0.00  0.00    +0.145 C 
BRANCH  18  19
ATOM     19  O   UNL     1      31.099 -23.399 -14.005  0.00  0.00    -0.453 OA
BRANCH  19  21
ATOM     20  F   UNL     1      26.998 -23.238 -17.653  0.00  0.00    -0.204 F 
ATOM     21  C   UNL     1      30.064 -23.358 -14.925  0.00  0.00    +0.145 C 
ATOM     22  C   UNL     1      29.357 -22.181 -15.093  0.00  0.00    +0.040 C 
ATOM     23  C   UNL     1      29.765 -24.495 -15.654  0.00  0.00    +0.040 C 
ATOM     24  C   UNL     1      28.315 -22.140 -16.019  0.00  0.00    +0.033 C 
ATOM     25  C   UNL     1      28.725 -24.454 -16.581  0.00  0.00    +0.033 C 
ATOM     26  C   UNL     1      27.999 -23.277 -16.763  0.00  0.00    +0.140 C 
ENDBRANCH  19  21
ENDBRANCH  18  19
ENDBRANCH  12  13
ENDBRANCH   6  12
BRANCH   6  27
ATOM     27  C   UNL     1      36.574 -24.647 -13.496  0.00  0.00    +0.090 C 
BRANCH  27  28
ATOM     28  C   UNL     1      37.233 -25.494 -12.425  0.00  0.00    +0.147 C 
BRANCH  28  29
ATOM     29  O   UNL     1      37.714 -24.630 -11.405  0.00  0.00    -0.354 OA
BRANCH  29  30
ATOM     30  C   UNL     1      36.785 -23.593 -11.116  0.00  0.00    +0.142 C 
ATOM     31  C   UNL     1      35.676 -24.152 -10.251  0.00  0.00    +0.035 C 
ENDBRANCH  29  30
ENDBRANCH  28  29
ENDBRANCH  27  28
ENDBRANCH   6  27
TORSDOF 8
ENDMDL
MODEL 5
REMARK VINA RESULT:      -9.0      1.408      1.612
REMARK  Name = 657061
REMARK  8 active torsions:
REMARK  status: ('A' for Active; 'I' for Inactive)
REMARK    1  A    between atoms: C_6  and  O_12
REMARK    2  A    between atoms: C_6  and  C_27
REMARK    3  A    between atoms: O_12  and  C_13
REMARK    4  A    between atoms: C_18  and  O_19
REMARK    5  A    between atoms: O_19  and  C_21
REMARK    6  A    between atoms: C_27  and  C_28
REMARK    7  A    between atoms: C_28  and  O_29
REMARK    8  A    between atoms: O_29  and  C_30
REMARK                            x       y       z     vdW  Elec       q    Type
REMARK                         _______ _______ _______ _____ _____    ______ ____
ROOT
ATOM      1  O   UNL     1      37.694 -24.361 -15.510  0.00  0.00    -0.270 OA
ATOM      2  O   UNL     1      34.664 -23.276 -12.131  0.00  0.00    -0.270 OA
ATOM      3  O   UNL     1      37.425 -26.924 -11.704  0.00  0.00    -0.252 OA
ATOM      4  N   UNL     1      37.489 -25.713 -13.658  0.00  0.00    -0.236 N 
ATOM      5  N   UNL     1      35.962 -25.168 -11.958  0.00  0.00    -0.236 N 
ATOM      6  C   UNL     1      35.731 -24.092 -14.135  0.00  0.00    +0.270 C 
ATOM      7  C   UNL     1      37.064 -24.706 -14.512  0.00  0.00    +0.274 C 
ATOM      8  C   UNL     1      35.399 -24.110 -12.657  0.00  0.00    +0.274 C 
ATOM      9  C   UNL     1      36.978 -26.010 -12.399  0.00  0.00    +0.312 C 
ATOM     10  H   UNL     1      38.232 -26.275 -13.977  0.00  0.00    +0.159 HD
ATOM     11  H   UNL     1      35.606 -25.340 -11.058  0.00  0.00    +0.159 HD
ENDROOT
BRANCH   6  12
ATOM     12  O   UNL     1      35.741 -22.735 -14.543  0.00  0.00    -0.465 OA
BRANCH  12  13
ATOM     13  C   UNL     1      35.738 -22.491 -15.893  0.00  0.00    +0.140 C 
ATOM     14  C   UNL     1      34.658 -22.904 -16.663  0.00  0.00    +0.040 C 
ATOM     15  C   UNL     1      36.816 -21.835 -16.474  0.00  0.00    +0.040 C 
ATOM     16  C   UNL     1      34.656 -22.657 -18.036  0.00  0.00    +0.041 C 
ATOM     17  C   UNL     1      36.813 -21.587 -17.847  0.00  0.00    +0.041 C 
ATOM     18  C   UNL     1      35.734 -21.998 -18.627  0.00  0.00    +0.145 C 
BRANCH  18  19
ATOM     19  O   UNL     1      35.731 -21.756 -19.967  0.00  0.00    -0.453 OA
BRANCH  19  21
ATOM     20  F   UNL     1      33.883 -16.875 -21.671  0.00  0.00    -0.204 F 
ATOM     21  C   UNL     1      35.265 -20.524 -20.397  0.00  0.00    +0.145 C 
ATOM     22  C   UNL     1      36.176 -19.533 -20.715  0.00  0.00    +0.040 C 
ATOM     23  C   UNL     1      33.902 -20.318 -20.497  0.00  0.00    +0.040 C 
ATOM     24  C   UNL     1      35.706 -18.293 -21.148  0.00  0.00    +0.033 C 
ATOM     25  C   UNL     1      33.432 -19.079 -20.931  0.00  0.00    +0.033 C 
ATOM     26  C   UNL     1      34.334 -18.066 -21.255  0.00  0.00    +0.140 C 
ENDBRANCH  19  21
ENDBRANCH  18  19
ENDBRANCH  12  13
ENDBRANCH   6  12
BRANCH   6  27
ATOM     27  C   UNL     1      34.620 -24.842 -14.878  0.00  0.00    +0.090 C 
BRANCH  27  28
ATOM     28  C   UNL     1      33.328 -24.843 -14.085  0.00  0.00    +0.147 C 
BRANCH  28  29
ATOM     29  O   UNL     1      32.357 -24.102 -14.810  0.00  0.00    -0.354 OA
BRANCH  29  30
ATOM     30  C   UNL     1      31.519 -23.349 -13.943  0.00  0.00    +0.142 C 
ATOM     31  C   UNL     1      30.248 -22.986 -14.678  0.00  0.00    +0.035 C 
ENDBRANCH  29  30
ENDBRANCH  28  29
ENDBRANCH  27  28
ENDBRANCH   6  27
TORSDOF 8
ENDMDL
MODEL 6
REMARK VINA RESULT:      -8.7      1.807      3.505
REMARK  Name = 657061
REMARK  8 active torsions:
REMARK  status: ('A' for Active; 'I' for Inactive)
REMARK    1  A    between atoms: C_6  and  O_12
REMARK    2  A    between atoms: C_6  and  C_27
REMARK    3  A    between atoms: O_12  and  C_13
REMARK    4  A    between atoms: C_18  and  O_19
REMARK    5  A    between atoms: O_19  and  C_21
REMARK    6  A    between atoms: C_27  and  C_28
REMARK    7  A    between atoms: C_28  and  O_29
REMARK    8  A    between atoms: O_29  and  C_30
REMARK                            x       y       z     vdW  Elec       q    Type
REMARK                         _______ _______ _______ _____ _____    ______ ____
ROOT
ATOM      1  O   UNL     1      33.890 -23.761 -12.338  0.00  0.00    -0.270 OA
ATOM      2  O   UNL     1      35.777 -26.401 -15.692  0.00  0.00    -0.270 OA
ATOM      3  O   UNL     1      37.876 -25.939 -11.631  0.00  0.00    -0.252 OA
ATOM      4  N   UNL     1      35.939 -24.758 -12.014  0.00  0.00    -0.236 N 
ATOM      5  N   UNL     1      36.890 -26.086 -13.704  0.00  0.00    -0.236 N 
ATOM      6  C   UNL     1      35.061 -24.579 -14.282  0.00  0.00    +0.270 C 
ATOM      7  C   UNL     1      34.880 -24.328 -12.799  0.00  0.00    +0.274 C 
ATOM      8  C   UNL     1      35.915 -25.778 -14.641  0.00  0.00    +0.274 C 
ATOM      9  C   UNL     1      36.974 -25.604 -12.401  0.00  0.00    +0.312 C 
ATOM     10  H   UNL     1      35.961 -24.431 -11.085  0.00  0.00    +0.159 HD
ATOM     11  H   UNL     1      37.595 -26.709 -13.990  0.00  0.00    +0.159 HD
ENDROOT
BRANCH   6  12
ATOM     12  O   UNL     1      33.782 -24.794 -14.851  0.00  0.00    -0.465 OA
BRANCH  12  13
ATOM     13  C   UNL     1      33.447 -24.028 -15.939  0.00  0.00    +0.140 C 
ATOM     14  C   UNL     1      34.262 -24.040 -17.063  0.00  0.00    +0.040 C 
ATOM     15  C   UNL     1      32.298 -23.248 -15.902  0.00  0.00    +0.040 C 
ATOM     16  C   UNL     1      33.923 -23.260 -18.169  0.00  0.00    +0.041 C 
ATOM     17  C   UNL     1      31.959 -22.468 -17.008  0.00  0.00    +0.041 C 
ATOM     18  C   UNL     1      32.771 -22.474 -18.141  0.00  0.00    +0.145 C 
BRANCH  18  19
ATOM     19  O   UNL     1      32.439 -21.714 -19.220  0.00  0.00    -0.453 OA
BRANCH  19  21
ATOM     20  F   UNL     1      36.428 -18.772 -21.585  0.00  0.00    -0.204 F 
ATOM     21  C   UNL     1      33.445 -20.971 -19.817  0.00  0.00    +0.145 C 
ATOM     22  C   UNL     1      33.110 -19.841 -20.541  0.00  0.00    +0.040 C 
ATOM     23  C   UNL     1      34.759 -21.379 -19.673  0.00  0.00    +0.040 C 
ATOM     24  C   UNL     1      34.123 -19.095 -21.142  0.00  0.00    +0.033 C 
ATOM     25  C   UNL     1      35.772 -20.632 -20.272  0.00  0.00    +0.033 C 
ATOM     26  C   UNL     1      35.454 -19.490 -21.008  0.00  0.00    +0.140 C 
ENDBRANCH  19  21
ENDBRANCH  18  19
ENDBRANCH  12  13
ENDBRANCH   6  12
BRANCH   6  27
ATOM     27  C   UNL     1      35.699 -23.337 -14.913  0.00  0.00    +0.090 C 
BRANCH  27  28
ATOM     28  C   UNL     1      37.098 -23.102 -14.377  0.00  0.00    +0.147 C 
BRANCH  28  29
ATOM     29  O   UNL     1      37.869 -22.482 -15.396  0.00  0.00    -0.354 OA
BRANCH  29  30
ATOM     30  C   UNL     1      37.093 -22.233 -16.561  0.00  0.00    +0.142 C 
ATOM     31  C   UNL     1      37.451 -20.868 -17.109  0.00  0.00    +0.035 C 
ENDBRANCH  29  30
ENDBRANCH  28  29
ENDBRANCH  27  28
ENDBRANCH   6  27
TORSDOF 8
ENDMDL
MODEL 7
REMARK VINA RESULT:      -8.7      6.873     10.863
REMARK  Name = 657061
REMARK  8 active torsions:
REMARK  status: ('A' for Active; 'I' for Inactive)
REMARK    1  A    between atoms: C_6  and  O_12
REMARK    2  A    between atoms: C_6  and  C_27
REMARK    3  A    between atoms: O_12  and  C_13
REMARK    4  A    between atoms: C_18  and  O_19
REMARK    5  A    between atoms: O_19  and  C_21
REMARK    6  A    between atoms: C_27  and  C_28
REMARK    7  A    between atoms: C_28  and  O_29
REMARK    8  A    between atoms: O_29  and  C_30
REMARK                            x       y       z     vdW  Elec       q    Type
REMARK                         _______ _______ _______ _____ _____    ______ ____
ROOT
ATOM      1  O   UNL     1      33.558 -16.078 -25.015  0.00  0.00    -0.270 OA
ATOM      2  O   UNL     1      36.609 -17.645 -21.850  0.00  0.00    -0.270 OA
ATOM      3  O   UNL     1      35.067 -20.417 -25.174  0.00  0.00    -0.252 OA
ATOM      4  N   UNL     1      34.223 -18.281 -25.036  0.00  0.00    -0.236 N 
ATOM      5  N   UNL     1      35.757 -19.071 -23.441  0.00  0.00    -0.236 N 
ATOM      6  C   UNL     1      34.626 -16.949 -23.034  0.00  0.00    +0.270 C 
ATOM      7  C   UNL     1      34.092 -17.032 -24.450  0.00  0.00    +0.274 C 
ATOM      8  C   UNL     1      35.767 -17.892 -22.712  0.00  0.00    +0.274 C 
ATOM      9  C   UNL     1      35.007 -19.338 -24.582  0.00  0.00    +0.312 C 
ATOM     10  H   UNL     1      33.709 -18.437 -25.862  0.00  0.00    +0.159 HD
ATOM     11  H   UNL     1      36.342 -19.793 -23.119  0.00  0.00    +0.159 HD
ENDROOT
BRANCH   6  12
ATOM     12  O   UNL     1      35.101 -15.632 -22.821  0.00  0.00    -0.465 OA
BRANCH  12  13
ATOM     13  C   UNL     1      34.158 -14.647 -22.663  0.00  0.00    +0.140 C 
ATOM     14  C   UNL     1      33.321 -14.671 -21.555  0.00  0.00    +0.040 C 
ATOM     15  C   UNL     1      34.050 -13.641 -23.614  0.00  0.00    +0.040 C 
ATOM     16  C   UNL     1      32.361 -13.670 -21.395  0.00  0.00    +0.041 C 
ATOM     17  C   UNL     1      33.091 -12.641 -23.455  0.00  0.00    +0.041 C 
ATOM     18  C   UNL     1      32.247 -12.656 -22.345  0.00  0.00    +0.145 C 
BRANCH  18  19
ATOM     19  O   UNL     1      31.311 -11.680 -22.189  0.00  0.00    -0.453 OA
BRANCH  19  21
ATOM     20  F   UNL     1      32.869  -7.026 -19.727  0.00  0.00    -0.204 F 
ATOM     21  C   UNL     1      31.704 -10.506 -21.567  0.00  0.00    +0.145 C 
ATOM     22  C   UNL     1      31.600 -10.403 -20.192  0.00  0.00    +0.040 C 
ATOM     23  C   UNL     1      32.191  -9.466 -22.338  0.00  0.00    +0.040 C 
ATOM     24  C   UNL     1      31.995  -9.221 -19.567  0.00  0.00    +0.033 C 
ATOM     25  C   UNL     1      32.588  -8.284 -21.713  0.00  0.00    +0.033 C 
ATOM     26  C   UNL     1      32.489  -8.161 -20.327  0.00  0.00    +0.140 C 
ENDBRANCH  19  21
ENDBRANCH  18  19
ENDBRANCH  12  13
ENDBRANCH   6  12
BRANCH   6  27
ATOM     27  C   UNL     1      33.479 -17.243 -22.062  0.00  0.00    +0.090 C 
BRANCH  27  28
ATOM     28  C   UNL     1      33.883 -18.276 -21.028  0.00  0.00    +0.147 C 
BRANCH  28  29
ATOM     29  O   UNL     1      33.255 -19.507 -21.355  0.00  0.00    -0.354 OA
BRANCH  29  30
ATOM     30  C   UNL     1      33.518 -20.504 -20.376  0.00  0.00    +0.142 C 
ATOM     31  C   UNL     1      35.014 -20.617 -20.177  0.00  0.00    +0.035 C 
ENDBRANCH  29  30
ENDBRANCH  28  29
ENDBRANCH  27  28
ENDBRANCH   6  27
TORSDOF 8
ENDMDL
MODEL 8
REMARK VINA RESULT:      -8.6      5.067      9.610
REMARK  Name = 657061
REMARK  8 active torsions:
REMARK  status: ('A' for Active; 'I' for Inactive)
REMARK    1  A    between atoms: C_6  and  O_12
REMARK    2  A    between atoms: C_6  and  C_27
REMARK    3  A    between atoms: O_12  and  C_13
REMARK    4  A    between atoms: C_18  and  O_19
REMARK    5  A    between atoms: O_19  and  C_21
REMARK    6  A    between atoms: C_27  and  C_28
REMARK    7  A    between atoms: C_28  and  O_29
REMARK    8  A    between atoms: O_29  and  C_30
REMARK                            x       y       z     vdW  Elec       q    Type
REMARK                         _______ _______ _______ _____ _____    ______ ____
ROOT
ATOM      1  O   UNL     1      35.576 -15.614 -21.484  0.00  0.00    -0.270 OA
ATOM      2  O   UNL     1      34.811 -19.857 -23.270  0.00  0.00    -0.270 OA
ATOM      3  O   UNL     1      34.396 -16.111 -25.898  0.00  0.00    -0.252 OA
ATOM      4  N   UNL     1      34.878 -15.846 -23.665  0.00  0.00    -0.236 N 
ATOM      5  N   UNL     1      34.491 -17.982 -24.564  0.00  0.00    -0.236 N 
ATOM      6  C   UNL     1      34.628 -17.733 -22.142  0.00  0.00    +0.270 C 
ATOM      7  C   UNL     1      35.089 -16.309 -22.375  0.00  0.00    +0.274 C 
ATOM      8  C   UNL     1      34.668 -18.638 -23.355  0.00  0.00    +0.274 C 
ATOM      9  C   UNL     1      34.560 -16.610 -24.784  0.00  0.00    +0.312 C 
ATOM     10  H   UNL     1      34.965 -14.875 -23.805  0.00  0.00    +0.159 HD
ATOM     11  H   UNL     1      34.297 -18.545 -25.346  0.00  0.00    +0.159 HD
ENDROOT
BRANCH   6  12
ATOM     12  O   UNL     1      35.472 -18.312 -21.162  0.00  0.00    -0.465 OA
BRANCH  12  13
ATOM     13  C   UNL     1      35.070 -19.509 -20.623  0.00  0.00    +0.140 C 
ATOM     14  C   UNL     1      33.716 -19.758 -20.438  0.00  0.00    +0.040 C 
ATOM     15  C   UNL     1      36.022 -20.456 -20.268  0.00  0.00    +0.040 C 
ATOM     16  C   UNL     1      33.308 -20.974 -19.890  0.00  0.00    +0.041 C 
ATOM     17  C   UNL     1      35.614 -21.672 -19.720  0.00  0.00    +0.041 C 
ATOM     18  C   UNL     1      34.257 -21.931 -19.531  0.00  0.00    +0.145 C 
BRANCH  18  19
ATOM     19  O   UNL     1      33.858 -23.117 -18.996  0.00  0.00    -0.453 OA
BRANCH  19  21
ATOM     20  F   UNL     1      32.565 -23.204 -13.660  0.00  0.00    -0.204 F 
ATOM     21  C   UNL     1      33.532 -23.139 -17.650  0.00  0.00    +0.145 C 
ATOM     22  C   UNL     1      34.548 -23.176 -16.711  0.00  0.00    +0.040 C 
ATOM     23  C   UNL     1      32.200 -23.123 -17.279  0.00  0.00    +0.040 C 
ATOM     24  C   UNL     1      34.219 -23.199 -15.356  0.00  0.00    +0.033 C 
ATOM     25  C   UNL     1      31.871 -23.144 -15.924  0.00  0.00    +0.033 C 
ATOM     26  C   UNL     1      32.881 -23.183 -14.962  0.00  0.00    +0.140 C 
ENDBRANCH  19  21
ENDBRANCH  18  19
ENDBRANCH  12  13
ENDBRANCH   6  12
BRANCH   6  27
ATOM     27  C   UNL     1      33.187 -17.701 -21.622  0.00  0.00    +0.090 C 
BRANCH  27  28
ATOM     28  C   UNL     1      32.892 -16.406 -20.891  0.00  0.00    +0.147 C 
BRANCH  28  29
ATOM     29  O   UNL     1      32.252 -15.518 -21.796  0.00  0.00    -0.354 OA
BRANCH  29  30
ATOM     30  C   UNL     1      32.400 -14.162 -21.391  0.00  0.00    +0.142 C 
ATOM     31  C   UNL     1      32.394 -13.278 -22.619  0.00  0.00    +0.035 C 
ENDBRANCH  29  30
ENDBRANCH  28  29
ENDBRANCH  27  28
ENDBRANCH   6  27
TORSDOF 8
ENDMDL
MODEL 9
REMARK VINA RESULT:      -8.5      5.218      9.797
REMARK  Name = 657061
REMARK  8 active torsions:
REMARK  status: ('A' for Active; 'I' for Inactive)
REMARK    1  A    between atoms: C_6  and  O_12
REMARK    2  A    between atoms: C_6  and  C_27
REMARK    3  A    between atoms: O_12  and  C_13
REMARK    4  A    between atoms: C_18  and  O_19
REMARK    5  A    between atoms: O_19  and  C_21
REMARK    6  A    between atoms: C_27  and  C_28
REMARK    7  A    between atoms: C_28  and  O_29
REMARK    8  A    between atoms: O_29  and  C_30
REMARK                            x       y       z     vdW  Elec       q    Type
REMARK                         _______ _______ _______ _____ _____    ______ ____
ROOT
ATOM      1  O   UNL     1      35.462 -15.082 -22.056  0.00  0.00    -0.270 OA
ATOM      2  O   UNL     1      34.974 -19.469 -23.570  0.00  0.00    -0.270 OA
ATOM      3  O   UNL     1      33.842 -15.930 -26.273  0.00  0.00    -0.252 OA
ATOM      4  N   UNL     1      34.547 -15.499 -24.126  0.00  0.00    -0.236 N 
ATOM      5  N   UNL     1      34.300 -17.708 -24.888  0.00  0.00    -0.236 N 
ATOM      6  C   UNL     1      34.687 -17.320 -22.511  0.00  0.00    +0.270 C 
ATOM      7  C   UNL     1      34.955 -15.869 -22.854  0.00  0.00    +0.274 C 
ATOM      8  C   UNL     1      34.688 -18.278 -23.685  0.00  0.00    +0.274 C 
ATOM      9  C   UNL     1      34.189 -16.350 -25.168  0.00  0.00    +0.312 C 
ATOM     10  H   UNL     1      34.508 -14.533 -24.313  0.00  0.00    +0.159 HD
ATOM     11  H   UNL     1      34.081 -18.328 -25.619  0.00  0.00    +0.159 HD
ENDROOT
BRANCH   6  12
ATOM     12  O   UNL     1      35.697 -17.755 -21.618  0.00  0.00    -0.465 OA
BRANCH  12  13
ATOM     13  C   UNL     1      35.503 -18.964 -20.999  0.00  0.00    +0.140 C 
ATOM     14  C   UNL     1      34.211 -19.400 -20.735  0.00  0.00    +0.040 C 
ATOM     15  C   UNL     1      36.600 -19.737 -20.642  0.00  0.00    +0.040 C 
ATOM     16  C   UNL     1      34.013 -20.629 -20.105  0.00  0.00    +0.041 C 
ATOM     17  C   UNL     1      36.403 -20.966 -20.012  0.00  0.00    +0.041 C 
ATOM     18  C   UNL     1      35.109 -21.411 -19.744  0.00  0.00    +0.145 C 
BRANCH  18  19
ATOM     19  O   UNL     1      34.916 -22.611 -19.129  0.00  0.00    -0.453 OA
BRANCH  19  21
ATOM     20  F   UNL     1      35.709 -22.853 -13.701  0.00  0.00    -0.204 F 
ATOM     21  C   UNL     1      35.117 -22.672 -17.760  0.00  0.00    +0.145 C 
ATOM     22  C   UNL     1      36.328 -22.257 -17.237  0.00  0.00    +0.040 C 
ATOM     23  C   UNL     1      34.100 -23.145 -16.951  0.00  0.00    +0.040 C 
ATOM     24  C   UNL     1      36.530 -22.319 -15.858  0.00  0.00    +0.033 C 
ATOM     25  C   UNL     1      34.300 -23.206 -15.572  0.00  0.00    +0.033 C 
ATOM     26  C   UNL     1      35.516 -22.793 -15.026  0.00  0.00    +0.140 C 
ENDBRANCH  19  21
ENDBRANCH  18  19
ENDBRANCH  12  13
ENDBRANCH   6  12
BRANCH   6  27
ATOM     27  C   UNL     1      33.321 -17.415 -21.823  0.00  0.00    +0.090 C 
BRANCH  27  28
ATOM     28  C   UNL     1      33.092 -16.245 -20.887  0.00  0.00    +0.147 C 
BRANCH  28  29
ATOM     29  O   UNL     1      32.065 -15.429 -21.432  0.00  0.00    -0.354 OA
BRANCH  29  30
ATOM     30  C   UNL     1      32.288 -14.052 -21.154  0.00  0.00    +0.142 C 
ATOM     31  C   UNL     1      32.271 -13.279 -22.455  0.00  0.00    +0.035 C 
ENDBRANCH  29  30
ENDBRANCH  28  29
ENDBRANCH  27  28
ENDBRANCH   6  27
TORSDOF 8
ENDMDL
