MODEL 1
REMARK VINA RESULT:      -6.6      0.000      0.000
REMARK  Name = 65787
REMARK  12 active torsions:
REMARK  status: ('A' for Active; 'I' for Inactive)
REMARK    1  A    between atoms: C_1  and  S_2
REMARK    2  A    between atoms: C_1  and  S_8
REMARK    3  A    between atoms: C_1  and  S_14
REMARK    4  A    between atoms: S_2  and  C_3
REMARK    5  A    between atoms: C_3  and  C_5
REMARK    6  A    between atoms: C_5  and  O_6
REMARK    7  A    between atoms: S_8  and  C_9
REMARK    8  A    between atoms: C_9  and  C_11
REMARK    9  A    between atoms: C_11  and  O_12
REMARK   10  A    between atoms: S_14  and  C_15
REMARK   11  A    between atoms: C_15  and  C_17
REMARK   12  A    between atoms: C_17  and  O_18
REMARK                            x       y       z     vdW  Elec       q    Type
REMARK                         _______ _______ _______ _____ _____    ______ ____
ROOT
ATOM      1  C   UNL     1      36.498 -24.959 -15.028  0.00  0.00    +0.144 C 
ENDROOT
BRANCH   1   2
ATOM      2  S   UNL     1      37.415 -23.402 -15.341  0.00  0.00    -0.108 S 
BRANCH   2   3
ATOM      3  C   UNL     1      36.133 -22.473 -16.220  0.00  0.00    +0.168 C 
BRANCH   3   5
ATOM      4  O   UNL     1      36.650 -22.003 -18.526  0.00  0.00    -0.249 OA
ATOM      5  C   UNL     1      36.759 -21.700 -17.345  0.00  0.00    +0.325 C 
BRANCH   5   6
ATOM      6  O   UNL     1      37.448 -20.613 -16.915  0.00  0.00    -0.480 OA
ATOM      7  H   UNL     1      37.302 -19.778 -17.313  0.00  0.00    +0.295 HD
ENDBRANCH   5   6
ENDBRANCH   3   5
ENDBRANCH   2   3
ENDBRANCH   1   2
BRANCH   1   8
ATOM      8  S   UNL     1      35.134 -24.649 -13.843  0.00  0.00    -0.108 S 
BRANCH   8   9
ATOM      9  C   UNL     1      36.004 -23.597 -12.654  0.00  0.00    +0.168 C 
BRANCH   9  11
ATOM     10  O   UNL     1      35.376 -25.006 -10.803  0.00  0.00    -0.249 OA
ATOM     11  C   UNL     1      36.241 -24.365 -11.386  0.00  0.00    +0.325 C 
BRANCH  11  12
ATOM     12  O   UNL     1      37.526 -24.286 -10.958  0.00  0.00    -0.480 OA
ATOM     13  H   UNL     1      37.764 -23.659 -10.305  0.00  0.00    +0.295 HD
ENDBRANCH  11  12
ENDBRANCH   9  11
ENDBRANCH   8   9
ENDBRANCH   1   8
BRANCH   1  14
ATOM     14  S   UNL     1      37.637 -26.226 -14.349  0.00  0.00    -0.108 S 
BRANCH  14  15
ATOM     15  C   UNL     1      39.128 -25.214 -14.163  0.00  0.00    +0.168 C 
BRANCH  15  17
ATOM     16  O   UNL     1      41.142 -26.534 -14.061  0.00  0.00    -0.249 OA
ATOM     17  C   UNL     1      40.305 -25.950 -14.737  0.00  0.00    +0.325 C 
BRANCH  17  18
ATOM     18  O   UNL     1      40.337 -25.912 -16.093  0.00  0.00    -0.480 OA
ATOM     19  H   UNL     1      39.578 -26.156 -16.587  0.00  0.00    +0.295 HD
ENDBRANCH  17  18
ENDBRANCH  15  17
ENDBRANCH  14  15
ENDBRANCH   1  14
TORSDOF 12
ENDMDL
MODEL 2
REMARK VINA RESULT:      -6.6      1.853      4.815
REMARK  Name = 65787
REMARK  12 active torsions:
REMARK  status: ('A' for Active; 'I' for Inactive)
REMARK    1  A    between atoms: C_1  and  S_2
REMARK    2  A    between atoms: C_1  and  S_8
REMARK    3  A    between atoms: C_1  and  S_14
REMARK    4  A    between atoms: S_2  and  C_3
REMARK    5  A    between atoms: C_3  and  C_5
REMARK    6  A    between atoms: C_5  and  O_6
REMARK    7  A    between atoms: S_8  and  C_9
REMARK    8  A    between atoms: C_9  and  C_11
REMARK    9  A    between atoms: C_11  and  O_12
REMARK   10  A    between atoms: S_14  and  C_15
REMARK   11  A    between atoms: C_15  and  C_17
REMARK   12  A    between atoms: C_17  and  O_18
REMARK                            x       y       z     vdW  Elec       q    Type
REMARK                         _______ _______ _______ _____ _____    ______ ____
ROOT
ATOM      1  C   UNL     1      36.815 -24.284 -14.888  0.00  0.00    +0.144 C 
ENDROOT
BRANCH   1   2
ATOM      2  S   UNL     1      37.001 -23.270 -13.371  0.00  0.00    -0.108 S 
BRANCH   2   3
ATOM      3  C   UNL     1      35.558 -23.851 -12.446  0.00  0.00    +0.168 C 
BRANCH   3   5
ATOM      4  O   UNL     1      35.253 -25.006 -10.352  0.00  0.00    -0.249 OA
ATOM      5  C   UNL     1      36.010 -24.488 -11.163  0.00  0.00    +0.325 C 
BRANCH   5   6
ATOM      6  O   UNL     1      37.357 -24.444 -11.002  0.00  0.00    -0.480 OA
ATOM      7  H   UNL     1      37.906 -25.029 -11.487  0.00  0.00    +0.295 HD
ENDBRANCH   5   6
ENDBRANCH   3   5
ENDBRANCH   2   3
ENDBRANCH   1   2
BRANCH   1   8
ATOM      8  S   UNL     1      35.037 -24.549 -15.244  0.00  0.00    -0.108 S 
BRANCH   8   9
ATOM      9  C   UNL     1      34.745 -23.155 -16.362  0.00  0.00    +0.168 C 
BRANCH   9  11
ATOM     10  O   UNL     1      32.349 -23.284 -16.582  0.00  0.00    -0.249 OA
ATOM     11  C   UNL     1      33.455 -23.367 -17.100  0.00  0.00    +0.325 C 
BRANCH  11  12
ATOM     12  O   UNL     1      33.643 -23.649 -18.413  0.00  0.00    -0.480 OA
ATOM     13  H   UNL     1      34.483 -23.518 -18.805  0.00  0.00    +0.295 HD
ENDBRANCH  11  12
ENDBRANCH   9  11
ENDBRANCH   8   9
ENDBRANCH   1   8
BRANCH   1  14
ATOM     14  S   UNL     1      37.653 -25.900 -14.661  0.00  0.00    -0.108 S 
BRANCH  14  15
ATOM     15  C   UNL     1      39.225 -25.325 -13.972  0.00  0.00    +0.168 C 
BRANCH  15  17
ATOM     16  O   UNL     1      41.214 -26.681 -14.101  0.00  0.00    -0.249 OA
ATOM     17  C   UNL     1      40.360 -26.015 -14.673  0.00  0.00    +0.325 C 
BRANCH  17  18
ATOM     18  O   UNL     1      40.334 -25.834 -16.018  0.00  0.00    -0.480 OA
ATOM     19  H   UNL     1      41.065 -25.437 -16.451  0.00  0.00    +0.295 HD
ENDBRANCH  17  18
ENDBRANCH  15  17
ENDBRANCH  14  15
ENDBRANCH   1  14
TORSDOF 12
ENDMDL
MODEL 3
REMARK VINA RESULT:      -6.5      0.133      5.524
REMARK  Name = 65787
REMARK  12 active torsions:
REMARK  status: ('A' for Active; 'I' for Inactive)
REMARK    1  A    between atoms: C_1  and  S_2
REMARK    2  A    between atoms: C_1  and  S_8
REMARK    3  A    between atoms: C_1  and  S_14
REMARK    4  A    between atoms: S_2  and  C_3
REMARK    5  A    between atoms: C_3  and  C_5
REMARK    6  A    between atoms: C_5  and  O_6
REMARK    7  A    between atoms: S_8  and  C_9
REMARK    8  A    between atoms: C_9  and  C_11
REMARK    9  A    between atoms: C_11  and  O_12
REMARK   10  A    between atoms: S_14  and  C_15
REMARK   11  A    between atoms: C_15  and  C_17
REMARK   12  A    between atoms: C_17  and  O_18
REMARK                            x       y       z     vdW  Elec       q    Type
REMARK                         _______ _______ _______ _____ _____    ______ ____
ROOT
ATOM      1  C   UNL     1      36.423 -24.897 -14.979  0.00  0.00    +0.144 C 
ENDROOT
BRANCH   1   2
ATOM      2  S   UNL     1      35.064 -24.575 -13.790  0.00  0.00    -0.108 S 
BRANCH   2   3
ATOM      3  C   UNL     1      35.953 -23.547 -12.594  0.00  0.00    +0.168 C 
BRANCH   3   5
ATOM      4  O   UNL     1      35.377 -24.992 -10.752  0.00  0.00    -0.249 OA
ATOM      5  C   UNL     1      36.227 -24.349 -11.353  0.00  0.00    +0.325 C 
BRANCH   5   6
ATOM      6  O   UNL     1      37.529 -24.299 -10.974  0.00  0.00    -0.480 OA
ATOM      7  H   UNL     1      38.045 -23.540 -11.168  0.00  0.00    +0.295 HD
ENDBRANCH   5   6
ENDBRANCH   3   5
ENDBRANCH   2   3
ENDBRANCH   1   2
BRANCH   1   8
ATOM      8  S   UNL     1      37.593 -26.117 -14.271  0.00  0.00    -0.108 S 
BRANCH   8   9
ATOM      9  C   UNL     1      39.095 -25.108 -14.240  0.00  0.00    +0.168 C 
BRANCH   9  11
ATOM     10  O   UNL     1      41.012 -26.543 -13.972  0.00  0.00    -0.249 OA
ATOM     11  C   UNL     1      40.259 -25.928 -14.716  0.00  0.00    +0.325 C 
BRANCH  11  12
ATOM     12  O   UNL     1      40.382 -25.929 -16.067  0.00  0.00    -0.480 OA
ATOM     13  H   UNL     1      40.962 -25.324 -16.485  0.00  0.00    +0.295 HD
ENDBRANCH  11  12
ENDBRANCH   9  11
ENDBRANCH   8   9
ENDBRANCH   1   8
BRANCH   1  14
ATOM     14  S   UNL     1      37.305 -23.332 -15.353  0.00  0.00    -0.108 S 
BRANCH  14  15
ATOM     15  C   UNL     1      36.089 -22.561 -16.450  0.00  0.00    +0.168 C 
BRANCH  15  17
ATOM     16  O   UNL     1      36.739 -21.782 -18.636  0.00  0.00    -0.249 OA
ATOM     17  C   UNL     1      36.793 -21.656 -17.419  0.00  0.00    +0.325 C 
BRANCH  17  18
ATOM     18  O   UNL     1      37.490 -20.668 -16.804  0.00  0.00    -0.480 OA
ATOM     19  H   UNL     1      37.633 -19.852 -17.243  0.00  0.00    +0.295 HD
ENDBRANCH  17  18
ENDBRANCH  15  17
ENDBRANCH  14  15
ENDBRANCH   1  14
TORSDOF 12
ENDMDL
MODEL 4
REMARK VINA RESULT:      -6.5      0.715      5.571
REMARK  Name = 65787
REMARK  12 active torsions:
REMARK  status: ('A' for Active; 'I' for Inactive)
REMARK    1  A    between atoms: C_1  and  S_2
REMARK    2  A    between atoms: C_1  and  S_8
REMARK    3  A    between atoms: C_1  and  S_14
REMARK    4  A    between atoms: S_2  and  C_3
REMARK    5  A    between atoms: C_3  and  C_5
REMARK    6  A    between atoms: C_5  and  O_6
REMARK    7  A    between atoms: S_8  and  C_9
REMARK    8  A    between atoms: C_9  and  C_11
REMARK    9  A    between atoms: C_11  and  O_12
REMARK   10  A    between atoms: S_14  and  C_15
REMARK   11  A    between atoms: C_15  and  C_17
REMARK   12  A    between atoms: C_17  and  O_18
REMARK                            x       y       z     vdW  Elec       q    Type
REMARK                         _______ _______ _______ _____ _____    ______ ____
ROOT
ATOM      1  C   UNL     1      36.543 -24.805 -14.742  0.00  0.00    +0.144 C 
ENDROOT
BRANCH   1   2
ATOM      2  S   UNL     1      37.709 -26.099 -14.167  0.00  0.00    -0.108 S 
BRANCH   2   3
ATOM      3  C   UNL     1      39.237 -25.128 -14.133  0.00  0.00    +0.168 C 
BRANCH   3   5
ATOM      4  O   UNL     1      41.177 -26.557 -14.065  0.00  0.00    -0.249 OA
ATOM      5  C   UNL     1      40.356 -25.936 -14.727  0.00  0.00    +0.325 C 
BRANCH   5   6
ATOM      6  O   UNL     1      40.350 -25.921 -16.084  0.00  0.00    -0.480 OA
ATOM      7  H   UNL     1      40.958 -25.380 -16.548  0.00  0.00    +0.295 HD
ENDBRANCH   5   6
ENDBRANCH   3   5
ENDBRANCH   2   3
ENDBRANCH   1   2
BRANCH   1   8
ATOM      8  S   UNL     1      37.479 -23.350 -15.350  0.00  0.00    -0.108 S 
BRANCH   8   9
ATOM      9  C   UNL     1      36.148 -22.478 -16.212  0.00  0.00    +0.168 C 
BRANCH   9  11
ATOM     10  O   UNL     1      36.576 -22.018 -18.538  0.00  0.00    -0.249 OA
ATOM     11  C   UNL     1      36.721 -21.704 -17.364  0.00  0.00    +0.325 C 
BRANCH  11  12
ATOM     12  O   UNL     1      37.408 -20.605 -16.967  0.00  0.00    -0.480 OA
ATOM     13  H   UNL     1      38.257 -20.697 -16.582  0.00  0.00    +0.295 HD
ENDBRANCH  11  12
ENDBRANCH   9  11
ENDBRANCH   8   9
ENDBRANCH   1   8
BRANCH   1  14
ATOM     14  S   UNL     1      35.440 -24.305 -13.365  0.00  0.00    -0.108 S 
BRANCH  14  15
ATOM     15  C   UNL     1      36.351 -25.030 -11.978  0.00  0.00    +0.168 C 
BRANCH  15  17
ATOM     16  O   UNL     1      36.110 -24.052  -9.788  0.00  0.00    -0.249 OA
ATOM     17  C   UNL     1      36.568 -23.985 -10.922  0.00  0.00    +0.325 C 
BRANCH  17  18
ATOM     18  O   UNL     1      37.342 -22.956 -11.352  0.00  0.00    -0.480 OA
ATOM     19  H   UNL     1      37.557 -22.255 -10.767  0.00  0.00    +0.295 HD
ENDBRANCH  17  18
ENDBRANCH  15  17
ENDBRANCH  14  15
ENDBRANCH   1  14
TORSDOF 12
ENDMDL
MODEL 5
REMARK VINA RESULT:      -6.4      1.880      5.184
REMARK  Name = 65787
REMARK  12 active torsions:
REMARK  status: ('A' for Active; 'I' for Inactive)
REMARK    1  A    between atoms: C_1  and  S_2
REMARK    2  A    between atoms: C_1  and  S_8
REMARK    3  A    between atoms: C_1  and  S_14
REMARK    4  A    between atoms: S_2  and  C_3
REMARK    5  A    between atoms: C_3  and  C_5
REMARK    6  A    between atoms: C_5  and  O_6
REMARK    7  A    between atoms: S_8  and  C_9
REMARK    8  A    between atoms: C_9  and  C_11
REMARK    9  A    between atoms: C_11  and  O_12
REMARK   10  A    between atoms: S_14  and  C_15
REMARK   11  A    between atoms: C_15  and  C_17
REMARK   12  A    between atoms: C_17  and  O_18
REMARK                            x       y       z     vdW  Elec       q    Type
REMARK                         _______ _______ _______ _____ _____    ______ ____
ROOT
ATOM      1  C   UNL     1      36.852 -24.372 -14.957  0.00  0.00    +0.144 C 
ENDROOT
BRANCH   1   2
ATOM      2  S   UNL     1      37.642 -26.010 -14.720  0.00  0.00    -0.108 S 
BRANCH   2   3
ATOM      3  C   UNL     1      39.166 -25.488 -13.892  0.00  0.00    +0.168 C 
BRANCH   3   5
ATOM      4  O   UNL     1      41.255 -26.671 -14.105  0.00  0.00    -0.249 OA
ATOM      5  C   UNL     1      40.351 -26.038 -14.634  0.00  0.00    +0.325 C 
BRANCH   5   6
ATOM      6  O   UNL     1      40.305 -25.773 -15.964  0.00  0.00    -0.480 OA
ATOM      7  H   UNL     1      40.401 -26.470 -16.584  0.00  0.00    +0.295 HD
ENDBRANCH   5   6
ENDBRANCH   3   5
ENDBRANCH   2   3
ENDBRANCH   1   2
BRANCH   1   8
ATOM      8  S   UNL     1      37.151 -23.318 -13.487  0.00  0.00    -0.108 S 
BRANCH   8   9
ATOM      9  C   UNL     1      35.663 -23.708 -12.533  0.00  0.00    +0.168 C 
BRANCH   9  11
ATOM     10  O   UNL     1      35.260 -25.117 -10.620  0.00  0.00    -0.249 OA
ATOM     11  C   UNL     1      36.046 -24.463 -11.293  0.00  0.00    +0.325 C 
BRANCH  11  12
ATOM     12  O   UNL     1      37.367 -24.355 -11.001  0.00  0.00    -0.480 OA
ATOM     13  H   UNL     1      37.998 -24.820 -11.513  0.00  0.00    +0.295 HD
ENDBRANCH  11  12
ENDBRANCH   9  11
ENDBRANCH   8   9
ENDBRANCH   1   8
BRANCH   1  14
ATOM     14  S   UNL     1      35.049 -24.583 -15.216  0.00  0.00    -0.108 S 
BRANCH  14  15
ATOM     15  C   UNL     1      34.724 -23.128 -16.243  0.00  0.00    +0.168 C 
BRANCH  15  17
ATOM     16  O   UNL     1      33.344 -23.333 -18.208  0.00  0.00    -0.249 OA
ATOM     17  C   UNL     1      33.434 -23.319 -16.987  0.00  0.00    +0.325 C 
BRANCH  17  18
ATOM     18  O   UNL     1      32.372 -23.490 -16.161  0.00  0.00    -0.480 OA
ATOM     19  H   UNL     1      31.837 -24.257 -16.238  0.00  0.00    +0.295 HD
ENDBRANCH  17  18
ENDBRANCH  15  17
ENDBRANCH  14  15
ENDBRANCH   1  14
TORSDOF 12
ENDMDL
MODEL 6
REMARK VINA RESULT:      -6.3      1.917      5.705
REMARK  Name = 65787
REMARK  12 active torsions:
REMARK  status: ('A' for Active; 'I' for Inactive)
REMARK    1  A    between atoms: C_1  and  S_2
REMARK    2  A    between atoms: C_1  and  S_8
REMARK    3  A    between atoms: C_1  and  S_14
REMARK    4  A    between atoms: S_2  and  C_3
REMARK    5  A    between atoms: C_3  and  C_5
REMARK    6  A    between atoms: C_5  and  O_6
REMARK    7  A    between atoms: S_8  and  C_9
REMARK    8  A    between atoms: C_9  and  C_11
REMARK    9  A    between atoms: C_11  and  O_12
REMARK   10  A    between atoms: S_14  and  C_15
REMARK   11  A    between atoms: C_15  and  C_17
REMARK   12  A    between atoms: C_17  and  O_18
REMARK                            x       y       z     vdW  Elec       q    Type
REMARK                         _______ _______ _______ _____ _____    ______ ____
ROOT
ATOM      1  C   UNL     1      37.052 -24.447 -14.296  0.00  0.00    +0.144 C 
ENDROOT
BRANCH   1   2
ATOM      2  S   UNL     1      37.695 -24.013 -12.634  0.00  0.00    -0.108 S 
BRANCH   2   3
ATOM      3  C   UNL     1      36.177 -23.365 -11.888  0.00  0.00    +0.168 C 
BRANCH   3   5
ATOM      4  O   UNL     1      35.461 -25.021 -10.289  0.00  0.00    -0.249 OA
ATOM      5  C   UNL     1      35.336 -24.508 -11.394  0.00  0.00    +0.325 C 
BRANCH   5   6
ATOM      6  O   UNL     1      34.407 -24.905 -12.300  0.00  0.00    -0.480 OA
ATOM      7  H   UNL     1      34.568 -24.794 -13.216  0.00  0.00    +0.295 HD
ENDBRANCH   5   6
ENDBRANCH   3   5
ENDBRANCH   2   3
ENDBRANCH   1   2
BRANCH   1   8
ATOM      8  S   UNL     1      37.759 -26.050 -14.836  0.00  0.00    -0.108 S 
BRANCH   8   9
ATOM      9  C   UNL     1      39.342 -25.989 -13.961  0.00  0.00    +0.168 C 
BRANCH   9  11
ATOM     10  O   UNL     1      41.120 -24.462 -14.519  0.00  0.00    -0.249 OA
ATOM     11  C   UNL     1      40.384 -25.381 -14.854  0.00  0.00    +0.325 C 
BRANCH  11  12
ATOM     12  O   UNL     1      40.437 -25.969 -16.075  0.00  0.00    -0.480 OA
ATOM     13  H   UNL     1      40.831 -25.519 -16.795  0.00  0.00    +0.295 HD
ENDBRANCH  11  12
ENDBRANCH   9  11
ENDBRANCH   8   9
ENDBRANCH   1   8
BRANCH   1  14
ATOM     14  S   UNL     1      37.497 -23.134 -15.497  0.00  0.00    -0.108 S 
BRANCH  14  15
ATOM     15  C   UNL     1      35.930 -22.228 -15.540  0.00  0.00    +0.168 C 
BRANCH  15  17
ATOM     16  O   UNL     1      34.647 -24.010 -16.534  0.00  0.00    -0.249 OA
ATOM     17  C   UNL     1      34.792 -23.204 -15.624  0.00  0.00    +0.325 C 
BRANCH  17  18
ATOM     18  O   UNL     1      33.940 -23.109 -14.572  0.00  0.00    -0.480 OA
ATOM     19  H   UNL     1      33.241 -23.727 -14.478  0.00  0.00    +0.295 HD
ENDBRANCH  17  18
ENDBRANCH  15  17
ENDBRANCH  14  15
ENDBRANCH   1  14
TORSDOF 12
ENDMDL
MODEL 7
REMARK VINA RESULT:      -6.3      1.714      6.122
REMARK  Name = 65787
REMARK  12 active torsions:
REMARK  status: ('A' for Active; 'I' for Inactive)
REMARK    1  A    between atoms: C_1  and  S_2
REMARK    2  A    between atoms: C_1  and  S_8
REMARK    3  A    between atoms: C_1  and  S_14
REMARK    4  A    between atoms: S_2  and  C_3
REMARK    5  A    between atoms: C_3  and  C_5
REMARK    6  A    between atoms: C_5  and  O_6
REMARK    7  A    between atoms: S_8  and  C_9
REMARK    8  A    between atoms: C_9  and  C_11
REMARK    9  A    between atoms: C_11  and  O_12
REMARK   10  A    between atoms: S_14  and  C_15
REMARK   11  A    between atoms: C_15  and  C_17
REMARK   12  A    between atoms: C_17  and  O_18
REMARK                            x       y       z     vdW  Elec       q    Type
REMARK                         _______ _______ _______ _____ _____    ______ ____
ROOT
ATOM      1  C   UNL     1      36.168 -24.144 -15.223  0.00  0.00    +0.144 C 
ENDROOT
BRANCH   1   2
ATOM      2  S   UNL     1      35.068 -24.643 -13.843  0.00  0.00    -0.108 S 
BRANCH   2   3
ATOM      3  C   UNL     1      35.747 -23.598 -12.529  0.00  0.00    +0.168 C 
BRANCH   3   5
ATOM      4  O   UNL     1      35.246 -25.053 -10.674  0.00  0.00    -0.249 OA
ATOM      5  C   UNL     1      36.079 -24.449 -11.337  0.00  0.00    +0.325 C 
BRANCH   5   6
ATOM      6  O   UNL     1      37.411 -24.492 -11.079  0.00  0.00    -0.480 OA
ATOM      7  H   UNL     1      37.748 -25.108 -10.458  0.00  0.00    +0.295 HD
ENDBRANCH   5   6
ENDBRANCH   3   5
ENDBRANCH   2   3
ENDBRANCH   1   2
BRANCH   1   8
ATOM      8  S   UNL     1      37.850 -23.795 -14.583  0.00  0.00    -0.108 S 
BRANCH   8   9
ATOM      9  C   UNL     1      38.564 -25.454 -14.700  0.00  0.00    +0.168 C 
BRANCH   9  11
ATOM     10  O   UNL     1      40.819 -24.781 -14.183  0.00  0.00    -0.249 OA
ATOM     11  C   UNL     1      40.042 -25.346 -14.941  0.00  0.00    +0.325 C 
BRANCH  11  12
ATOM     12  O   UNL     1      40.432 -25.958 -16.088  0.00  0.00    -0.480 OA
ATOM     13  H   UNL     1      41.061 -26.651 -16.058  0.00  0.00    +0.295 HD
ENDBRANCH  11  12
ENDBRANCH   9  11
ENDBRANCH   8   9
ENDBRANCH   1   8
BRANCH   1  14
ATOM     14  S   UNL     1      35.493 -22.650 -16.047  0.00  0.00    -0.108 S 
BRANCH  14  15
ATOM     15  C   UNL     1      33.940 -23.336 -16.678  0.00  0.00    +0.168 C 
BRANCH  15  17
ATOM     16  O   UNL     1      32.586 -22.469 -18.473  0.00  0.00    -0.249 OA
ATOM     17  C   UNL     1      33.688 -22.811 -18.061  0.00  0.00    +0.325 C 
BRANCH  17  18
ATOM     18  O   UNL     1      34.817 -22.739 -18.810  0.00  0.00    -0.480 OA
ATOM     19  H   UNL     1      35.576 -23.230 -18.561  0.00  0.00    +0.295 HD
ENDBRANCH  17  18
ENDBRANCH  15  17
ENDBRANCH  14  15
ENDBRANCH   1  14
TORSDOF 12
ENDMDL
MODEL 8
REMARK VINA RESULT:      -6.0      2.739      4.881
REMARK  Name = 65787
REMARK  12 active torsions:
REMARK  status: ('A' for Active; 'I' for Inactive)
REMARK    1  A    between atoms: C_1  and  S_2
REMARK    2  A    between atoms: C_1  and  S_8
REMARK    3  A    between atoms: C_1  and  S_14
REMARK    4  A    between atoms: S_2  and  C_3
REMARK    5  A    between atoms: C_3  and  C_5
REMARK    6  A    between atoms: C_5  and  O_6
REMARK    7  A    between atoms: S_8  and  C_9
REMARK    8  A    between atoms: C_9  and  C_11
REMARK    9  A    between atoms: C_11  and  O_12
REMARK   10  A    between atoms: S_14  and  C_15
REMARK   11  A    between atoms: C_15  and  C_17
REMARK   12  A    between atoms: C_17  and  O_18
REMARK                            x       y       z     vdW  Elec       q    Type
REMARK                         _______ _______ _______ _____ _____    ______ ____
ROOT
ATOM      1  C   UNL     1      36.518 -23.499 -14.241  0.00  0.00    +0.144 C 
ENDROOT
BRANCH   1   2
ATOM      2  S   UNL     1      34.973 -23.117 -15.153  0.00  0.00    -0.108 S 
BRANCH   2   3
ATOM      3  C   UNL     1      33.833 -24.222 -14.283  0.00  0.00    +0.168 C 
BRANCH   3   5
ATOM      4  O   UNL     1      31.653 -23.540 -15.055  0.00  0.00    -0.249 OA
ATOM      5  C   UNL     1      32.490 -23.559 -14.162  0.00  0.00    +0.325 C 
BRANCH   5   6
ATOM      6  O   UNL     1      32.293 -22.994 -12.944  0.00  0.00    -0.480 OA
ATOM      7  H   UNL     1      31.969 -22.117 -12.882  0.00  0.00    +0.295 HD
ENDBRANCH   5   6
ENDBRANCH   3   5
ENDBRANCH   2   3
ENDBRANCH   1   2
BRANCH   1   8
ATOM      8  S   UNL     1      37.908 -23.680 -15.422  0.00  0.00    -0.108 S 
BRANCH   8   9
ATOM      9  C   UNL     1      38.560 -25.278 -14.874  0.00  0.00    +0.168 C 
BRANCH   9  11
ATOM     10  O   UNL     1      40.818 -24.750 -14.221  0.00  0.00    -0.249 OA
ATOM     11  C   UNL     1      40.054 -25.283 -15.015  0.00  0.00    +0.325 C 
BRANCH  11  12
ATOM     12  O   UNL     1      40.475 -25.958 -16.114  0.00  0.00    -0.480 OA
ATOM     13  H   UNL     1      39.896 -26.552 -16.549  0.00  0.00    +0.295 HD
ENDBRANCH  11  12
ENDBRANCH   9  11
ENDBRANCH   8   9
ENDBRANCH   1   8
BRANCH   1  14
ATOM     14  S   UNL     1      36.307 -25.050 -13.285  0.00  0.00    -0.108 S 
BRANCH  14  15
ATOM     15  C   UNL     1      36.449 -24.385 -11.607  0.00  0.00    +0.168 C 
BRANCH  15  17
ATOM     16  O   UNL     1      38.784 -23.816 -11.790  0.00  0.00    -0.249 OA
ATOM     17  C   UNL     1      37.637 -23.471 -11.530  0.00  0.00    +0.325 C 
BRANCH  17  18
ATOM     18  O   UNL     1      37.307 -22.210 -11.155  0.00  0.00    -0.480 OA
ATOM     19  H   UNL     1      37.894 -21.500 -11.331  0.00  0.00    +0.295 HD
ENDBRANCH  17  18
ENDBRANCH  15  17
ENDBRANCH  14  15
ENDBRANCH   1  14
TORSDOF 12
ENDMDL
MODEL 9
REMARK VINA RESULT:      -6.0      2.203      5.107
REMARK  Name = 65787
REMARK  12 active torsions:
REMARK  status: ('A' for Active; 'I' for Inactive)
REMARK    1  A    between atoms: C_1  and  S_2
REMARK    2  A    between atoms: C_1  and  S_8
REMARK    3  A    between atoms: C_1  and  S_14
REMARK    4  A    between atoms: S_2  and  C_3
REMARK    5  A    between atoms: C_3  and  C_5
REMARK    6  A    between atoms: C_5  and  O_6
REMARK    7  A    between atoms: S_8  and  C_9
REMARK    8  A    between atoms: C_9  and  C_11
REMARK    9  A    between atoms: C_11  and  O_12
REMARK   10  A    between atoms: S_14  and  C_15
REMARK   11  A    between atoms: C_15  and  C_17
REMARK   12  A    between atoms: C_17  and  O_18
REMARK                            x       y       z     vdW  Elec       q    Type
REMARK                         _______ _______ _______ _____ _____    ______ ____
ROOT
ATOM      1  C   UNL     1      35.392 -23.281 -14.371  0.00  0.00    +0.144 C 
ENDROOT
BRANCH   1   2
ATOM      2  S   UNL     1      36.894 -23.618 -15.368  0.00  0.00    -0.108 S 
BRANCH   2   3
ATOM      3  C   UNL     1      37.126 -25.370 -14.972  0.00  0.00    +0.168 C 
BRANCH   3   5
ATOM      4  O   UNL     1      39.120 -26.701 -14.718  0.00  0.00    -0.249 OA
ATOM      5  C   UNL     1      38.566 -25.614 -14.618  0.00  0.00    +0.325 C 
BRANCH   5   6
ATOM      6  O   UNL     1      39.198 -24.493 -14.188  0.00  0.00    -0.480 OA
ATOM      7  H   UNL     1      38.832 -23.988 -13.488  0.00  0.00    +0.295 HD
ENDBRANCH   5   6
ENDBRANCH   3   5
ENDBRANCH   2   3
ENDBRANCH   1   2
BRANCH   1   8
ATOM      8  S   UNL     1      35.285 -24.475 -12.984  0.00  0.00    -0.108 S 
BRANCH   8   9
ATOM      9  C   UNL     1      35.931 -23.440 -11.648  0.00  0.00    +0.168 C 
BRANCH   9  11
ATOM     10  O   UNL     1      38.139 -22.521 -11.941  0.00  0.00    -0.249 OA
ATOM     11  C   UNL     1      37.432 -23.481 -11.664  0.00  0.00    +0.325 C 
BRANCH  11  12
ATOM     12  O   UNL     1      37.927 -24.697 -11.325  0.00  0.00    -0.480 OA
ATOM     13  H   UNL     1      38.511 -25.144 -11.906  0.00  0.00    +0.295 HD
ENDBRANCH  11  12
ENDBRANCH   9  11
ENDBRANCH   8   9
ENDBRANCH   1   8
BRANCH   1  14
ATOM     14  S   UNL     1      33.899 -23.418 -15.428  0.00  0.00    -0.108 S 
BRANCH  14  15
ATOM     15  C   UNL     1      34.610 -22.904 -17.012  0.00  0.00    +0.168 C 
BRANCH  15  17
ATOM     16  O   UNL     1      33.817 -23.568 -19.189  0.00  0.00    -0.249 OA
ATOM     17  C   UNL     1      33.584 -23.067 -18.096  0.00  0.00    +0.325 C 
BRANCH  17  18
ATOM     18  O   UNL     1      32.359 -22.612 -17.733  0.00  0.00    -0.480 OA
ATOM     19  H   UNL     1      31.926 -22.977 -16.985  0.00  0.00    +0.295 HD
ENDBRANCH  17  18
ENDBRANCH  15  17
ENDBRANCH  14  15
ENDBRANCH   1  14
TORSDOF 12
ENDMDL
