MODEL 1
REMARK VINA RESULT:     -10.4      0.000      0.000
REMARK  Name = 447339
REMARK  6 active torsions:
REMARK  status: ('A' for Active; 'I' for Inactive)
REMARK    1  A    between atoms: C_2  and  C_19
REMARK    2  A    between atoms: C_3  and  C_8
REMARK    3  A    between atoms: C_10  and  N_11
REMARK    4  A    between atoms: N_11  and  C_14
REMARK    5  A    between atoms: C_19  and  N_20
REMARK    6  A    between atoms: N_20  and  C_23
REMARK                            x       y       z     vdW  Elec       q    Type
REMARK                         _______ _______ _______ _____ _____    ______ ____
ROOT
ATOM      1  S   UNL     1      34.298 -14.583 -22.994  0.00  0.00    -0.088 S 
ATOM      2  C   UNL     1      34.190 -15.781 -24.196  0.00  0.00    +0.023 C 
ATOM      3  C   UNL     1      33.487 -13.457 -23.997  0.00  0.00    +0.056 C 
ATOM      4  C   UNL     1      33.561 -15.360 -25.328  0.00  0.00    +0.004 C 
ATOM      5  C   UNL     1      33.149 -14.001 -25.216  0.00  0.00    +0.009 C 
ENDROOT
BRANCH   3   8
ATOM      6  S   UNL     1      33.191  -9.538 -23.478  0.00  0.00    -0.055 S 
ATOM      7  N   UNL     1      32.313 -11.790 -22.562  0.00  0.00    -0.380 NA
ATOM      8  C   UNL     1      33.190 -12.069 -23.591  0.00  0.00    +0.129 C 
ATOM      9  C   UNL     1      33.765 -10.980 -24.208  0.00  0.00    +0.125 C 
ATOM     10  C   UNL     1      32.235 -10.486 -22.414  0.00  0.00    +0.244 C 
BRANCH  10  11
ATOM     11  N   UNL     1      31.471  -9.835 -21.500  0.00  0.00    -0.178 NA
BRANCH  11  14
ATOM     12  N   UNL     1      32.511  -9.054 -19.462  0.00  0.00    -0.370 N 
ATOM     13  N   UNL     1      31.443 -11.069 -19.520  0.00  0.00    -0.370 N 
ATOM     14  C   UNL     1      31.803  -9.951 -20.236  0.00  0.00    +0.196 C 
ATOM     15  H   UNL     1      32.829  -8.209 -19.854  0.00  0.00    +0.159 HD
ATOM     16  H   UNL     1      32.697  -9.258 -18.517  0.00  0.00    +0.159 HD
ATOM     17  H   UNL     1      30.933 -11.789 -19.956  0.00  0.00    +0.159 HD
ATOM     18  H   UNL     1      31.696 -11.149 -18.572  0.00  0.00    +0.159 HD
ENDBRANCH  11  14
ENDBRANCH  10  11
ENDBRANCH   3   8
BRANCH   2  19
ATOM     19  C   UNL     1      34.768 -17.140 -23.917  0.00  0.00    +0.105 C 
BRANCH  19  20
ATOM     20  N   UNL     1      35.275 -17.208 -22.557  0.00  0.00    -0.262 NA
ATOM     21  H   UNL     1      35.695 -16.400 -22.184  0.00  0.00    +0.127 HD
BRANCH  20  24
ATOM     22  N   UNL     1      33.975 -18.812 -21.469  0.00  0.00    -0.305 N 
ATOM     23  N   UNL     1      36.176 -18.998 -21.212  0.00  0.00    -0.305 N 
ATOM     24  C   UNL     1      35.209 -18.303 -21.769  0.00  0.00    +0.208 C 
ATOM     25  C   UNL     1      34.159 -19.907 -20.666  0.00  0.00    +0.060 C 
ATOM     26  C   UNL     1      35.539 -20.002 -20.519  0.00  0.00    +0.060 C 
ATOM     27  C   UNL     1      33.262 -20.795 -20.070  0.00  0.00    +0.016 C 
ATOM     28  C   UNL     1      36.076 -21.040 -19.737  0.00  0.00    +0.016 C 
ATOM     29  C   UNL     1      33.812 -21.821 -19.297  0.00  0.00    +0.001 C 
ATOM     30  C   UNL     1      35.195 -21.943 -19.132  0.00  0.00    +0.001 C 
ATOM     31  H   UNL     1      33.111 -18.455 -21.776  0.00  0.00    +0.150 HD
ATOM     32  H   UNL     1      37.144 -18.835 -21.277  0.00  0.00    +0.150 HD
ENDBRANCH  20  24
ENDBRANCH  19  20
ENDBRANCH   2  19
TORSDOF 6
ENDMDL
MODEL 2
REMARK VINA RESULT:     -10.4      3.822      6.619
REMARK  Name = 447339
REMARK  6 active torsions:
REMARK  status: ('A' for Active; 'I' for Inactive)
REMARK    1  A    between atoms: C_2  and  C_19
REMARK    2  A    between atoms: C_3  and  C_8
REMARK    3  A    between atoms: C_10  and  N_11
REMARK    4  A    between atoms: N_11  and  C_14
REMARK    5  A    between atoms: C_19  and  N_20
REMARK    6  A    between atoms: N_20  and  C_23
REMARK                            x       y       z     vdW  Elec       q    Type
REMARK                         _______ _______ _______ _____ _____    ______ ____
ROOT
ATOM      1  S   UNL     1      35.715 -20.119 -20.721  0.00  0.00    -0.088 S 
ATOM      2  C   UNL     1      34.653 -21.039 -19.764  0.00  0.00    +0.023 C 
ATOM      3  C   UNL     1      34.399 -19.325 -21.476  0.00  0.00    +0.056 C 
ATOM      4  C   UNL     1      33.338 -20.766 -19.994  0.00  0.00    +0.004 C 
ATOM      5  C   UNL     1      33.186 -19.765 -20.995  0.00  0.00    +0.009 C 
ENDROOT
BRANCH   3   8
ATOM      6  S   UNL     1      34.775 -17.152 -24.770  0.00  0.00    -0.055 S 
ATOM      7  N   UNL     1      34.709 -16.957 -22.193  0.00  0.00    -0.380 NA
ATOM      8  C   UNL     1      34.559 -18.291 -22.517  0.00  0.00    +0.129 C 
ATOM      9  C   UNL     1      34.571 -18.592 -23.862  0.00  0.00    +0.125 C 
ATOM     10  C   UNL     1      34.830 -16.263 -23.303  0.00  0.00    +0.244 C 
BRANCH  10  11
ATOM     11  N   UNL     1      34.994 -14.918 -23.384  0.00  0.00    -0.178 NA
BRANCH  11  14
ATOM     12  N   UNL     1      32.761 -14.515 -22.550  0.00  0.00    -0.370 N 
ATOM     13  N   UNL     1      33.935 -12.848 -23.571  0.00  0.00    -0.370 N 
ATOM     14  C   UNL     1      33.943 -14.162 -23.167  0.00  0.00    +0.196 C 
ATOM     15  H   UNL     1      32.635 -15.431 -22.211  0.00  0.00    +0.159 HD
ATOM     16  H   UNL     1      32.042 -13.850 -22.446  0.00  0.00    +0.159 HD
ATOM     17  H   UNL     1      34.721 -12.468 -24.026  0.00  0.00    +0.159 HD
ATOM     18  H   UNL     1      33.144 -12.287 -23.405  0.00  0.00    +0.159 HD
ENDBRANCH  11  14
ENDBRANCH  10  11
ENDBRANCH   3   8
BRANCH   2  19
ATOM     19  C   UNL     1      35.229 -22.028 -18.789  0.00  0.00    +0.105 C 
BRANCH  19  20
ATOM     20  N   UNL     1      34.286 -23.105 -18.540  0.00  0.00    -0.262 NA
ATOM     21  H   UNL     1      34.219 -23.820 -19.213  0.00  0.00    +0.127 HD
BRANCH  20  24
ATOM     22  N   UNL     1      32.156 -22.960 -17.598  0.00  0.00    -0.305 N 
ATOM     23  N   UNL     1      33.809 -23.478 -16.204  0.00  0.00    -0.305 N 
ATOM     24  C   UNL     1      33.495 -23.193 -17.448  0.00  0.00    +0.208 C 
ATOM     25  C   UNL     1      31.567 -23.104 -16.368  0.00  0.00    +0.060 C 
ATOM     26  C   UNL     1      32.618 -23.427 -15.516  0.00  0.00    +0.060 C 
ATOM     27  C   UNL     1      30.244 -22.981 -15.941  0.00  0.00    +0.016 C 
ATOM     28  C   UNL     1      32.353 -23.646 -14.152  0.00  0.00    +0.016 C 
ATOM     29  C   UNL     1      29.998 -23.203 -14.583  0.00  0.00    +0.001 C 
ATOM     30  C   UNL     1      31.033 -23.529 -13.702  0.00  0.00    +0.001 C 
ATOM     31  H   UNL     1      31.697 -22.730 -18.438  0.00  0.00    +0.150 HD
ATOM     32  H   UNL     1      34.702 -23.684 -15.844  0.00  0.00    +0.150 HD
ENDBRANCH  20  24
ENDBRANCH  19  20
ENDBRANCH   2  19
TORSDOF 6
ENDMDL
MODEL 3
REMARK VINA RESULT:     -10.3      5.354     11.369
REMARK  Name = 447339
REMARK  6 active torsions:
REMARK  status: ('A' for Active; 'I' for Inactive)
REMARK    1  A    between atoms: C_2  and  C_19
REMARK    2  A    between atoms: C_3  and  C_8
REMARK    3  A    between atoms: C_10  and  N_11
REMARK    4  A    between atoms: N_11  and  C_14
REMARK    5  A    between atoms: C_19  and  N_20
REMARK    6  A    between atoms: N_20  and  C_23
REMARK                            x       y       z     vdW  Elec       q    Type
REMARK                         _______ _______ _______ _____ _____    ______ ____
ROOT
ATOM      1  S   UNL     1      36.148 -21.771 -18.285  0.00  0.00    -0.088 S 
ATOM      2  C   UNL     1      35.277 -21.272 -19.657  0.00  0.00    +0.023 C 
ATOM      3  C   UNL     1      34.759 -22.536 -17.640  0.00  0.00    +0.056 C 
ATOM      4  C   UNL     1      33.973 -21.665 -19.645  0.00  0.00    +0.004 C 
ATOM      5  C   UNL     1      33.665 -22.403 -18.467  0.00  0.00    +0.009 C 
ENDROOT
BRANCH   3   8
ATOM      6  S   UNL     1      33.977 -24.224 -14.139  0.00  0.00    -0.055 S 
ATOM      7  N   UNL     1      35.870 -23.894 -15.868  0.00  0.00    -0.380 NA
ATOM      8  C   UNL     1      34.746 -23.251 -16.349  0.00  0.00    +0.129 C 
ATOM      9  C   UNL     1      33.624 -23.318 -15.552  0.00  0.00    +0.125 C 
ATOM     10  C   UNL     1      35.580 -24.443 -14.710  0.00  0.00    +0.244 C 
BRANCH  10  11
ATOM     11  N   UNL     1      36.434 -25.161 -13.936  0.00  0.00    -0.178 NA
BRANCH  11  14
ATOM     12  N   UNL     1      38.217 -26.764 -14.247  0.00  0.00    -0.370 N 
ATOM     13  N   UNL     1      36.216 -27.035 -15.308  0.00  0.00    -0.370 N 
ATOM     14  C   UNL     1      36.953 -26.251 -14.451  0.00  0.00    +0.196 C 
ATOM     15  H   UNL     1      38.848 -26.298 -13.652  0.00  0.00    +0.159 HD
ATOM     16  H   UNL     1      38.488 -27.598 -14.694  0.00  0.00    +0.159 HD
ATOM     17  H   UNL     1      35.294 -26.779 -15.539  0.00  0.00    +0.159 HD
ATOM     18  H   UNL     1      36.611 -27.851 -15.690  0.00  0.00    +0.159 HD
ENDBRANCH  11  14
ENDBRANCH  10  11
ENDBRANCH   3   8
BRANCH   2  19
ATOM     19  C   UNL     1      35.989 -20.480 -20.717  0.00  0.00    +0.105 C 
BRANCH  19  20
ATOM     20  N   UNL     1      35.809 -19.055 -20.495  0.00  0.00    -0.262 NA
ATOM     21  H   UNL     1      36.031 -18.699 -19.604  0.00  0.00    +0.127 HD
BRANCH  20  24
ATOM     22  N   UNL     1      35.329 -18.592 -22.731  0.00  0.00    -0.305 N 
ATOM     23  N   UNL     1      34.924 -16.953 -21.284  0.00  0.00    -0.305 N 
ATOM     24  C   UNL     1      35.358 -18.186 -21.425  0.00  0.00    +0.208 C 
ATOM     25  C   UNL     1      34.843 -17.553 -23.481  0.00  0.00    +0.060 C 
ATOM     26  C   UNL     1      34.597 -16.543 -22.556  0.00  0.00    +0.060 C 
ATOM     27  C   UNL     1      34.605 -17.414 -24.849  0.00  0.00    +0.016 C 
ATOM     28  C   UNL     1      34.083 -15.313 -23.004  0.00  0.00    +0.016 C 
ATOM     29  C   UNL     1      34.093 -16.185 -25.277  0.00  0.00    +0.001 C 
ATOM     30  C   UNL     1      33.835 -15.152 -24.372  0.00  0.00    +0.001 C 
ATOM     31  H   UNL     1      35.607 -19.473 -23.071  0.00  0.00    +0.150 HD
ATOM     32  H   UNL     1      34.847 -16.437 -20.449  0.00  0.00    +0.150 HD
ENDBRANCH  20  24
ENDBRANCH  19  20
ENDBRANCH   2  19
TORSDOF 6
ENDMDL
MODEL 4
REMARK VINA RESULT:     -10.1      7.164     12.771
REMARK  Name = 447339
REMARK  6 active torsions:
REMARK  status: ('A' for Active; 'I' for Inactive)
REMARK    1  A    between atoms: C_2  and  C_19
REMARK    2  A    between atoms: C_3  and  C_8
REMARK    3  A    between atoms: C_10  and  N_11
REMARK    4  A    between atoms: N_11  and  C_14
REMARK    5  A    between atoms: C_19  and  N_20
REMARK    6  A    between atoms: N_20  and  C_23
REMARK                            x       y       z     vdW  Elec       q    Type
REMARK                         _______ _______ _______ _____ _____    ______ ____
ROOT
ATOM      1  S   UNL     1      34.319 -23.521 -16.096  0.00  0.00    -0.088 S 
ATOM      2  C   UNL     1      32.649 -23.202 -16.056  0.00  0.00    +0.023 C 
ATOM      3  C   UNL     1      34.284 -24.083 -14.479  0.00  0.00    +0.056 C 
ATOM      4  C   UNL     1      32.066 -23.507 -14.864  0.00  0.00    +0.004 C 
ATOM      5  C   UNL     1      33.019 -24.022 -13.939  0.00  0.00    +0.009 C 
ENDROOT
BRANCH   3   8
ATOM      6  S   UNL     1      37.195 -24.992 -11.947  0.00  0.00    -0.055 S 
ATOM      7  N   UNL     1      36.403 -25.393 -14.374  0.00  0.00    -0.380 NA
ATOM      8  C   UNL     1      35.476 -24.574 -13.761  0.00  0.00    +0.129 C 
ATOM      9  C   UNL     1      35.733 -24.248 -12.447  0.00  0.00    +0.125 C 
ATOM     10  C   UNL     1      37.353 -25.678 -13.512  0.00  0.00    +0.244 C 
BRANCH  10  11
ATOM     11  N   UNL     1      38.437 -26.458 -13.754  0.00  0.00    -0.178 NA
BRANCH  11  14
ATOM     12  N   UNL     1      39.371 -24.916 -15.365  0.00  0.00    -0.370 N 
ATOM     13  N   UNL     1      40.715 -26.382 -14.249  0.00  0.00    -0.370 N 
ATOM     14  C   UNL     1      39.429 -25.929 -14.431  0.00  0.00    +0.196 C 
ATOM     15  H   UNL     1      38.506 -24.501 -15.588  0.00  0.00    +0.159 HD
ATOM     16  H   UNL     1      40.194 -24.605 -15.806  0.00  0.00    +0.159 HD
ATOM     17  H   UNL     1      40.896 -27.107 -13.608  0.00  0.00    +0.159 HD
ATOM     18  H   UNL     1      41.455 -25.981 -14.761  0.00  0.00    +0.159 HD
ENDBRANCH  11  14
ENDBRANCH  10  11
ENDBRANCH   3   8
BRANCH   2  19
ATOM     19  C   UNL     1      31.990 -22.639 -17.284  0.00  0.00    +0.105 C 
BRANCH  19  20
ATOM     20  N   UNL     1      32.829 -22.848 -18.452  0.00  0.00    -0.262 NA
ATOM     21  H   UNL     1      32.985 -23.775 -18.744  0.00  0.00    +0.127 HD
BRANCH  20  24
ATOM     22  N   UNL     1      34.773 -21.789 -19.190  0.00  0.00    -0.305 N 
ATOM     23  N   UNL     1      32.854 -20.900 -19.876  0.00  0.00    -0.305 N 
ATOM     24  C   UNL     1      33.407 -21.858 -19.166  0.00  0.00    +0.208 C 
ATOM     25  C   UNL     1      35.124 -20.716 -19.967  0.00  0.00    +0.060 C 
ATOM     26  C   UNL     1      33.910 -20.178 -20.384  0.00  0.00    +0.060 C 
ATOM     27  C   UNL     1      36.363 -20.185 -20.330  0.00  0.00    +0.016 C 
ATOM     28  C   UNL     1      33.913 -19.042 -21.213  0.00  0.00    +0.016 C 
ATOM     29  C   UNL     1      36.346 -19.056 -21.155  0.00  0.00    +0.001 C 
ATOM     30  C   UNL     1      35.143 -18.494 -21.590  0.00  0.00    +0.001 C 
ATOM     31  H   UNL     1      35.393 -22.402 -18.731  0.00  0.00    +0.150 HD
ATOM     32  H   UNL     1      31.894 -20.736 -20.016  0.00  0.00    +0.150 HD
ENDBRANCH  20  24
ENDBRANCH  19  20
ENDBRANCH   2  19
TORSDOF 6
ENDMDL
MODEL 5
REMARK VINA RESULT:     -10.1      1.649      2.346
REMARK  Name = 447339
REMARK  6 active torsions:
REMARK  status: ('A' for Active; 'I' for Inactive)
REMARK    1  A    between atoms: C_2  and  C_19
REMARK    2  A    between atoms: C_3  and  C_8
REMARK    3  A    between atoms: C_10  and  N_11
REMARK    4  A    between atoms: N_11  and  C_14
REMARK    5  A    between atoms: C_19  and  N_20
REMARK    6  A    between atoms: N_20  and  C_23
REMARK                            x       y       z     vdW  Elec       q    Type
REMARK                         _______ _______ _______ _____ _____    ______ ____
ROOT
ATOM      1  S   UNL     1      34.255 -15.129 -23.008  0.00  0.00    -0.088 S 
ATOM      2  C   UNL     1      34.332 -16.167 -24.352  0.00  0.00    +0.023 C 
ATOM      3  C   UNL     1      33.348 -13.984 -23.901  0.00  0.00    +0.056 C 
ATOM      4  C   UNL     1      33.694 -15.678 -25.453  0.00  0.00    +0.004 C 
ATOM      5  C   UNL     1      33.118 -14.402 -25.193  0.00  0.00    +0.009 C 
ENDROOT
BRANCH   3   8
ATOM      6  S   UNL     1      31.737 -10.998 -21.850  0.00  0.00    -0.055 S 
ATOM      7  N   UNL     1      33.177 -11.497 -23.938  0.00  0.00    -0.380 NA
ATOM      8  C   UNL     1      32.872 -12.704 -23.341  0.00  0.00    +0.129 C 
ATOM      9  C   UNL     1      32.101 -12.637 -22.201  0.00  0.00    +0.125 C 
ATOM     10  C   UNL     1      32.632 -10.528 -23.237  0.00  0.00    +0.244 C 
BRANCH  10  11
ATOM     11  N   UNL     1      32.715  -9.202 -23.516  0.00  0.00    -0.178 NA
BRANCH  11  14
ATOM     12  N   UNL     1      35.025  -9.008 -24.205  0.00  0.00    -0.370 N 
ATOM     13  N   UNL     1      34.149  -7.571 -22.665  0.00  0.00    -0.370 N 
ATOM     14  C   UNL     1      33.904  -8.647 -23.486  0.00  0.00    +0.196 C 
ATOM     15  H   UNL     1      34.985  -9.766 -24.832  0.00  0.00    +0.159 HD
ATOM     16  H   UNL     1      35.865  -8.507 -24.092  0.00  0.00    +0.159 HD
ATOM     17  H   UNL     1      33.431  -7.213 -22.096  0.00  0.00    +0.159 HD
ATOM     18  H   UNL     1      35.043  -7.160 -22.647  0.00  0.00    +0.159 HD
ENDBRANCH  11  14
ENDBRANCH  10  11
ENDBRANCH   3   8
BRANCH   2  19
ATOM     19  C   UNL     1      35.060 -17.474 -24.217  0.00  0.00    +0.105 C 
BRANCH  19  20
ATOM     20  N   UNL     1      35.606 -17.616 -22.878  0.00  0.00    -0.262 NA
ATOM     21  H   UNL     1      36.277 -16.958 -22.584  0.00  0.00    +0.127 HD
BRANCH  20  24
ATOM     22  N   UNL     1      36.247 -19.228 -21.317  0.00  0.00    -0.305 N 
ATOM     23  N   UNL     1      34.063 -19.046 -21.695  0.00  0.00    -0.305 N 
ATOM     24  C   UNL     1      35.255 -18.587 -22.007  0.00  0.00    +0.208 C 
ATOM     25  C   UNL     1      35.656 -20.162 -20.506  0.00  0.00    +0.060 C 
ATOM     26  C   UNL     1      34.294 -20.029 -20.760  0.00  0.00    +0.060 C 
ATOM     27  C   UNL     1      36.181 -21.085 -19.600  0.00  0.00    +0.016 C 
ATOM     28  C   UNL     1      33.386 -20.858 -20.077  0.00  0.00    +0.016 C 
ATOM     29  C   UNL     1      35.263 -21.900 -18.930  0.00  0.00    +0.001 C 
ATOM     30  C   UNL     1      33.890 -21.790 -19.163  0.00  0.00    +0.001 C 
ATOM     31  H   UNL     1      37.213 -19.050 -21.389  0.00  0.00    +0.150 HD
ATOM     32  H   UNL     1      33.195 -18.750 -22.052  0.00  0.00    +0.150 HD
ENDBRANCH  20  24
ENDBRANCH  19  20
ENDBRANCH   2  19
TORSDOF 6
ENDMDL
MODEL 6
REMARK VINA RESULT:     -10.0      2.229      9.227
REMARK  Name = 447339
REMARK  6 active torsions:
REMARK  status: ('A' for Active; 'I' for Inactive)
REMARK    1  A    between atoms: C_2  and  C_19
REMARK    2  A    between atoms: C_3  and  C_8
REMARK    3  A    between atoms: C_10  and  N_11
REMARK    4  A    between atoms: N_11  and  C_14
REMARK    5  A    between atoms: C_19  and  N_20
REMARK    6  A    between atoms: N_20  and  C_23
REMARK                            x       y       z     vdW  Elec       q    Type
REMARK                         _______ _______ _______ _____ _____    ______ ____
ROOT
ATOM      1  S   UNL     1      34.340 -15.909 -23.046  0.00  0.00    -0.088 S 
ATOM      2  C   UNL     1      33.904 -15.705 -24.677  0.00  0.00    +0.023 C 
ATOM      3  C   UNL     1      34.720 -17.556 -23.318  0.00  0.00    +0.056 C 
ATOM      4  C   UNL     1      34.037 -16.839 -25.420  0.00  0.00    +0.004 C 
ATOM      5  C   UNL     1      34.513 -17.924 -24.629  0.00  0.00    +0.009 C 
ENDROOT
BRANCH   3   8
ATOM      6  S   UNL     1      36.685 -19.553 -20.514  0.00  0.00    -0.055 S 
ATOM      7  N   UNL     1      34.439 -19.508 -21.792  0.00  0.00    -0.380 NA
ATOM      8  C   UNL     1      35.211 -18.464 -22.264  0.00  0.00    +0.129 C 
ATOM      9  C   UNL     1      36.458 -18.329 -21.693  0.00  0.00    +0.125 C 
ATOM     10  C   UNL     1      35.115 -20.150 -20.866  0.00  0.00    +0.244 C 
BRANCH  10  11
ATOM     11  N   UNL     1      34.681 -21.233 -20.173  0.00  0.00    -0.178 NA
BRANCH  11  14
ATOM     12  N   UNL     1      32.482 -20.252 -19.943  0.00  0.00    -0.370 N 
ATOM     13  N   UNL     1      32.976 -22.240 -18.939  0.00  0.00    -0.370 N 
ATOM     14  C   UNL     1      33.446 -21.215 -19.726  0.00  0.00    +0.196 C 
ATOM     15  H   UNL     1      32.689 -19.463 -20.493  0.00  0.00    +0.159 HD
ATOM     16  H   UNL     1      31.586 -20.356 -19.550  0.00  0.00    +0.159 HD
ATOM     17  H   UNL     1      33.566 -22.993 -18.707  0.00  0.00    +0.159 HD
ATOM     18  H   UNL     1      32.050 -22.220 -18.606  0.00  0.00    +0.159 HD
ENDBRANCH  11  14
ENDBRANCH  10  11
ENDBRANCH   3   8
BRANCH   2  19
ATOM     19  C   UNL     1      33.435 -14.354 -25.138  0.00  0.00    +0.105 C 
BRANCH  19  20
ATOM     20  N   UNL     1      33.109 -13.513 -23.998  0.00  0.00    -0.262 NA
ATOM     21  H   UNL     1      32.630 -13.928 -23.245  0.00  0.00    +0.127 HD
BRANCH  20  24
ATOM     22  N   UNL     1      32.638 -11.409 -23.106  0.00  0.00    -0.305 N 
ATOM     23  N   UNL     1      34.390 -11.523 -24.471  0.00  0.00    -0.305 N 
ATOM     24  C   UNL     1      33.419 -12.202 -23.901  0.00  0.00    +0.208 C 
ATOM     25  C   UNL     1      33.139 -10.135 -23.166  0.00  0.00    +0.060 C 
ATOM     26  C   UNL     1      34.231 -10.231 -24.023  0.00  0.00    +0.060 C 
ATOM     27  C   UNL     1      32.742  -8.940 -22.562  0.00  0.00    +0.016 C 
ATOM     28  C   UNL     1      34.984  -9.078 -24.307  0.00  0.00    +0.016 C 
ATOM     29  C   UNL     1      33.502  -7.804 -22.855  0.00  0.00    +0.001 C 
ATOM     30  C   UNL     1      34.604  -7.870 -23.712  0.00  0.00    +0.001 C 
ATOM     31  H   UNL     1      31.857 -11.702 -22.583  0.00  0.00    +0.150 HD
ATOM     32  H   UNL     1      35.080 -11.865 -25.083  0.00  0.00    +0.150 HD
ENDBRANCH  20  24
ENDBRANCH  19  20
ENDBRANCH   2  19
TORSDOF 6
ENDMDL
MODEL 7
REMARK VINA RESULT:      -9.9      5.950     11.486
REMARK  Name = 447339
REMARK  6 active torsions:
REMARK  status: ('A' for Active; 'I' for Inactive)
REMARK    1  A    between atoms: C_2  and  C_19
REMARK    2  A    between atoms: C_3  and  C_8
REMARK    3  A    between atoms: C_10  and  N_11
REMARK    4  A    between atoms: N_11  and  C_14
REMARK    5  A    between atoms: C_19  and  N_20
REMARK    6  A    between atoms: N_20  and  C_23
REMARK                            x       y       z     vdW  Elec       q    Type
REMARK                         _______ _______ _______ _____ _____    ______ ____
ROOT
ATOM      1  S   UNL     1      34.393 -22.482 -18.031  0.00  0.00    -0.088 S 
ATOM      2  C   UNL     1      35.796 -21.776 -18.681  0.00  0.00    +0.023 C 
ATOM      3  C   UNL     1      35.173 -22.728 -16.527  0.00  0.00    +0.056 C 
ATOM      4  C   UNL     1      36.834 -21.717 -17.800  0.00  0.00    +0.004 C 
ATOM      5  C   UNL     1      36.474 -22.274 -16.540  0.00  0.00    +0.009 C 
ENDROOT
BRANCH   3   8
ATOM      6  S   UNL     1      32.765 -24.350 -13.828  0.00  0.00    -0.055 S 
ATOM      7  N   UNL     1      35.231 -23.687 -14.226  0.00  0.00    -0.380 NA
ATOM      8  C   UNL     1      34.519 -23.352 -15.361  0.00  0.00    +0.129 C 
ATOM      9  C   UNL     1      33.170 -23.634 -15.333  0.00  0.00    +0.125 C 
ATOM     10  C   UNL     1      34.408 -24.222 -13.352  0.00  0.00    +0.244 C 
BRANCH  10  11
ATOM     11  N   UNL     1      34.746 -24.674 -12.118  0.00  0.00    -0.178 NA
BRANCH  11  14
ATOM     12  N   UNL     1      36.778 -23.857 -11.094  0.00  0.00    -0.370 N 
ATOM     13  N   UNL     1      36.776 -25.815 -12.263  0.00  0.00    -0.370 N 
ATOM     14  C   UNL     1      36.024 -24.750 -11.825  0.00  0.00    +0.196 C 
ATOM     15  H   UNL     1      36.359 -23.048 -10.721  0.00  0.00    +0.159 HD
ATOM     16  H   UNL     1      37.736 -24.029 -10.943  0.00  0.00    +0.159 HD
ATOM     17  H   UNL     1      36.357 -26.527 -12.798  0.00  0.00    +0.159 HD
ATOM     18  H   UNL     1      37.733 -25.866 -12.040  0.00  0.00    +0.159 HD
ENDBRANCH  11  14
ENDBRANCH  10  11
ENDBRANCH   3   8
BRANCH   2  19
ATOM     19  C   UNL     1      35.772 -21.296 -20.105  0.00  0.00    +0.105 C 
BRANCH  19  20
ATOM     20  N   UNL     1      36.059 -19.873 -20.167  0.00  0.00    -0.262 NA
ATOM     21  H   UNL     1      36.571 -19.476 -19.426  0.00  0.00    +0.127 HD
BRANCH  20  24
ATOM     22  N   UNL     1      35.441 -17.740 -20.885  0.00  0.00    -0.305 N 
ATOM     23  N   UNL     1      35.474 -19.325 -22.443  0.00  0.00    -0.305 N 
ATOM     24  C   UNL     1      35.674 -19.057 -21.172  0.00  0.00    +0.208 C 
ATOM     25  C   UNL     1      35.065 -17.119 -22.047  0.00  0.00    +0.060 C 
ATOM     26  C   UNL     1      35.093 -18.128 -23.005  0.00  0.00    +0.060 C 
ATOM     27  C   UNL     1      34.712 -15.799 -22.335  0.00  0.00    +0.016 C 
ATOM     28  C   UNL     1      34.753 -17.821 -24.334  0.00  0.00    +0.016 C 
ATOM     29  C   UNL     1      34.377 -15.512 -23.661  0.00  0.00    +0.001 C 
ATOM     30  C   UNL     1      34.397 -16.504 -24.645  0.00  0.00    +0.001 C 
ATOM     31  H   UNL     1      35.527 -17.315 -20.001  0.00  0.00    +0.150 HD
ATOM     32  H   UNL     1      35.575 -20.194 -22.895  0.00  0.00    +0.150 HD
ENDBRANCH  20  24
ENDBRANCH  19  20
ENDBRANCH   2  19
TORSDOF 6
ENDMDL
MODEL 8
REMARK VINA RESULT:      -9.9      4.420      9.730
REMARK  Name = 447339
REMARK  6 active torsions:
REMARK  status: ('A' for Active; 'I' for Inactive)
REMARK    1  A    between atoms: C_2  and  C_19
REMARK    2  A    between atoms: C_3  and  C_8
REMARK    3  A    between atoms: C_10  and  N_11
REMARK    4  A    between atoms: N_11  and  C_14
REMARK    5  A    between atoms: C_19  and  N_20
REMARK    6  A    between atoms: N_20  and  C_23
REMARK                            x       y       z     vdW  Elec       q    Type
REMARK                         _______ _______ _______ _____ _____    ______ ____
ROOT
ATOM      1  S   UNL     1      35.617 -20.677 -20.093  0.00  0.00    -0.088 S 
ATOM      2  C   UNL     1      34.962 -19.695 -21.316  0.00  0.00    +0.023 C 
ATOM      3  C   UNL     1      34.051 -21.124 -19.567  0.00  0.00    +0.056 C 
ATOM      4  C   UNL     1      33.600 -19.694 -21.342  0.00  0.00    +0.004 C 
ATOM      5  C   UNL     1      33.064 -20.529 -20.321  0.00  0.00    +0.009 C 
ENDROOT
BRANCH   3   8
ATOM      6  S   UNL     1      34.156 -23.575 -16.453  0.00  0.00    -0.055 S 
ATOM      7  N   UNL     1      32.522 -22.444 -18.105  0.00  0.00    -0.380 NA
ATOM      8  C   UNL     1      33.800 -22.042 -18.439  0.00  0.00    +0.129 C 
ATOM      9  C   UNL     1      34.816 -22.550 -17.659  0.00  0.00    +0.125 C 
ATOM     10  C   UNL     1      32.589 -23.254 -17.072  0.00  0.00    +0.244 C 
BRANCH  10  11
ATOM     11  N   UNL     1      31.533 -23.850 -16.461  0.00  0.00    -0.178 NA
BRANCH  11  14
ATOM     12  N   UNL     1      29.513 -22.596 -16.900  0.00  0.00    -0.370 N 
ATOM     13  N   UNL     1      30.390 -22.681 -14.796  0.00  0.00    -0.370 N 
ATOM     14  C   UNL     1      30.526 -23.087 -16.103  0.00  0.00    +0.196 C 
ATOM     15  H   UNL     1      29.491 -22.814 -17.860  0.00  0.00    +0.159 HD
ATOM     16  H   UNL     1      28.809 -22.030 -16.508  0.00  0.00    +0.159 HD
ATOM     17  H   UNL     1      31.050 -22.963 -14.123  0.00  0.00    +0.159 HD
ATOM     18  H   UNL     1      29.633 -22.109 -14.535  0.00  0.00    +0.159 HD
ENDBRANCH  11  14
ENDBRANCH  10  11
ENDBRANCH   3   8
BRANCH   2  19
ATOM     19  C   UNL     1      35.899 -18.947 -22.224  0.00  0.00    +0.105 C 
BRANCH  19  20
ATOM     20  N   UNL     1      35.313 -18.794 -23.545  0.00  0.00    -0.262 NA
ATOM     21  H   UNL     1      35.289 -19.585 -24.130  0.00  0.00    +0.127 HD
BRANCH  20  24
ATOM     22  N   UNL     1      34.814 -16.539 -23.216  0.00  0.00    -0.305 N 
ATOM     23  N   UNL     1      34.251 -17.387 -25.193  0.00  0.00    -0.305 N 
ATOM     24  C   UNL     1      34.796 -17.642 -24.024  0.00  0.00    +0.208 C 
ATOM     25  C   UNL     1      34.242 -15.504 -23.909  0.00  0.00    +0.060 C 
ATOM     26  C   UNL     1      33.899 -16.057 -25.139  0.00  0.00    +0.060 C 
ATOM     27  C   UNL     1      34.001 -14.170 -23.575  0.00  0.00    +0.016 C 
ATOM     28  C   UNL     1      33.280 -15.247 -26.106  0.00  0.00    +0.016 C 
ATOM     29  C   UNL     1      33.385 -13.379 -24.549  0.00  0.00    +0.001 C 
ATOM     30  C   UNL     1      33.029 -13.906 -25.794  0.00  0.00    +0.001 C 
ATOM     31  H   UNL     1      35.173 -16.496 -22.300  0.00  0.00    +0.150 HD
ATOM     32  H   UNL     1      34.123 -18.011 -25.943  0.00  0.00    +0.150 HD
ENDBRANCH  20  24
ENDBRANCH  19  20
ENDBRANCH   2  19
TORSDOF 6
ENDMDL
MODEL 9
REMARK VINA RESULT:      -9.9      5.527     10.909
REMARK  Name = 447339
REMARK  6 active torsions:
REMARK  status: ('A' for Active; 'I' for Inactive)
REMARK    1  A    between atoms: C_2  and  C_19
REMARK    2  A    between atoms: C_3  and  C_8
REMARK    3  A    between atoms: C_10  and  N_11
REMARK    4  A    between atoms: N_11  and  C_14
REMARK    5  A    between atoms: C_19  and  N_20
REMARK    6  A    between atoms: N_20  and  C_23
REMARK                            x       y       z     vdW  Elec       q    Type
REMARK                         _______ _______ _______ _____ _____    ______ ____
ROOT
ATOM      1  S   UNL     1      36.067 -22.025 -17.687  0.00  0.00    -0.088 S 
ATOM      2  C   UNL     1      35.410 -21.676 -19.216  0.00  0.00    +0.023 C 
ATOM      3  C   UNL     1      34.599 -22.748 -17.183  0.00  0.00    +0.056 C 
ATOM      4  C   UNL     1      34.119 -22.088 -19.359  0.00  0.00    +0.004 C 
ATOM      5  C   UNL     1      33.642 -22.714 -18.173  0.00  0.00    +0.009 C 
ENDROOT
BRANCH   3   8
ATOM      6  S   UNL     1      34.835 -24.287 -13.538  0.00  0.00    -0.055 S 
ATOM      7  N   UNL     1      33.134 -23.636 -15.372  0.00  0.00    -0.380 NA
ATOM      8  C   UNL     1      34.396 -23.335 -15.845  0.00  0.00    +0.129 C 
ATOM      9  C   UNL     1      35.443 -23.617 -14.995  0.00  0.00    +0.125 C 
ATOM     10  C   UNL     1      33.244 -24.142 -14.164  0.00  0.00    +0.244 C 
BRANCH  10  11
ATOM     11  N   UNL     1      32.216 -24.557 -13.381  0.00  0.00    -0.178 NA
BRANCH  11  14
ATOM     12  N   UNL     1      30.110 -25.476 -14.135  0.00  0.00    -0.370 N 
ATOM     13  N   UNL     1      30.474 -23.225 -14.177  0.00  0.00    -0.370 N 
ATOM     14  C   UNL     1      31.001 -24.457 -13.867  0.00  0.00    +0.196 C 
ATOM     15  H   UNL     1      30.363 -26.411 -13.957  0.00  0.00    +0.159 HD
ATOM     16  H   UNL     1      29.220 -25.269 -14.501  0.00  0.00    +0.159 HD
ATOM     17  H   UNL     1      31.009 -22.411 -14.034  0.00  0.00    +0.159 HD
ATOM     18  H   UNL     1      29.562 -23.157 -14.542  0.00  0.00    +0.159 HD
ENDBRANCH  11  14
ENDBRANCH  10  11
ENDBRANCH   3   8
BRANCH   2  19
ATOM     19  C   UNL     1      36.270 -20.977 -20.231  0.00  0.00    +0.105 C 
BRANCH  19  20
ATOM     20  N   UNL     1      35.975 -19.555 -20.255  0.00  0.00    -0.262 NA
ATOM     21  H   UNL     1      36.076 -19.052 -19.415  0.00  0.00    +0.127 HD
BRANCH  20  24
ATOM     22  N   UNL     1      35.359 -17.529 -21.235  0.00  0.00    -0.305 N 
ATOM     23  N   UNL     1      35.338 -19.307 -22.570  0.00  0.00    -0.305 N 
ATOM     24  C   UNL     1      35.573 -18.875 -21.351  0.00  0.00    +0.208 C 
ATOM     25  C   UNL     1      34.961 -17.062 -22.461  0.00  0.00    +0.060 C 
ATOM     26  C   UNL     1      34.955 -18.190 -23.276  0.00  0.00    +0.060 C 
ATOM     27  C   UNL     1      34.613 -15.788 -22.913  0.00  0.00    +0.016 C 
ATOM     28  C   UNL     1      34.584 -18.058 -24.626  0.00  0.00    +0.016 C 
ATOM     29  C   UNL     1      34.248 -15.675 -24.258  0.00  0.00    +0.001 C 
ATOM     30  C   UNL     1      34.233 -16.790 -25.101  0.00  0.00    +0.001 C 
ATOM     31  H   UNL     1      35.472 -16.991 -20.418  0.00  0.00    +0.150 HD
ATOM     32  H   UNL     1      35.419 -20.229 -22.904  0.00  0.00    +0.150 HD
ENDBRANCH  20  24
ENDBRANCH  19  20
ENDBRANCH   2  19
TORSDOF 6
ENDMDL
