MODEL 1
REMARK VINA RESULT:      -9.5      0.000      0.000
REMARK  Name = 19529
REMARK  5 active torsions:
REMARK  status: ('A' for Active; 'I' for Inactive)
REMARK    1  A    between atoms: C_1  and  N_8
REMARK    2  A    between atoms: C_4  and  O_14
REMARK    3  A    between atoms: C_10  and  C_13
REMARK    4  A    between atoms: O_14  and  C_16
REMARK    5  A    between atoms: C_16  and  C_18
REMARK                            x       y       z     vdW  Elec       q    Type
REMARK                         _______ _______ _______ _____ _____    ______ ____
ROOT
ATOM      1  C   UNL     1      34.514 -19.332 -20.984  0.00  0.00    +0.054 C 
ATOM      2  C   UNL     1      33.210 -19.713 -20.670  0.00  0.00    +0.018 C 
ATOM      3  C   UNL     1      35.585 -20.158 -20.641  0.00  0.00    +0.018 C 
ATOM      4  C   UNL     1      34.045 -21.747 -19.670  0.00  0.00    +0.149 C 
ATOM      5  C   UNL     1      32.976 -20.920 -20.013  0.00  0.00    +0.039 C 
ATOM      6  C   UNL     1      35.350 -21.366 -19.984  0.00  0.00    +0.039 C 
ENDROOT
BRANCH   1   8
ATOM      7  O   UNL     1      34.513 -19.019 -23.796  0.00  0.00    -0.272 OA
ATOM      8  N   UNL     1      34.750 -18.123 -21.641  0.00  0.00    -0.255 N 
ATOM      9  C   UNL     1      35.028 -16.867 -20.878  0.00  0.00    +0.120 C 
ATOM     10  C   UNL     1      34.733 -18.038 -23.077  0.00  0.00    +0.260 C 
BRANCH  10  13
ATOM     11 CL   UNL     1      33.651 -15.593 -23.209  0.00  0.00    -0.087 Cl
ATOM     12 CL   UNL     1      34.957 -16.887 -25.473  0.00  0.00    -0.087 Cl
ATOM     13  C   UNL     1      34.969 -16.679 -23.714  0.00  0.00    +0.234 C 
ENDBRANCH  10  13
ENDBRANCH   1   8
BRANCH   4  14
ATOM     14  O   UNL     1      33.817 -22.927 -19.031  0.00  0.00    -0.419 OA
BRANCH  14  16
ATOM     15  O   UNL     1      35.262 -22.837 -17.215  0.00  0.00    -0.241 OA
ATOM     16  C   UNL     1      34.120 -22.929 -17.652  0.00  0.00    +0.381 C 
BRANCH  16  18
ATOM     17  O   UNL     1      31.762 -22.687 -17.405  0.00  0.00    -0.444 OA
ATOM     18  C   UNL     1      32.915 -23.053 -16.830  0.00  0.00    +0.221 C 
ATOM     19  C   UNL     1      32.767 -23.484 -15.560  0.00  0.00    +0.047 C 
ATOM     20  C   UNL     1      31.379 -23.382 -15.302  0.00  0.00    +0.044 C 
ATOM     21  C   UNL     1      30.811 -22.891 -16.456  0.00  0.00    +0.180 C 
ENDBRANCH  16  18
ENDBRANCH  14  16
ENDBRANCH   4  14
TORSDOF 5
ENDMDL
MODEL 2
REMARK VINA RESULT:      -9.4      0.980      1.860
REMARK  Name = 19529
REMARK  5 active torsions:
REMARK  status: ('A' for Active; 'I' for Inactive)
REMARK    1  A    between atoms: C_1  and  N_8
REMARK    2  A    between atoms: C_4  and  O_14
REMARK    3  A    between atoms: C_10  and  C_13
REMARK    4  A    between atoms: O_14  and  C_16
REMARK    5  A    between atoms: C_16  and  C_18
REMARK                            x       y       z     vdW  Elec       q    Type
REMARK                         _______ _______ _______ _____ _____    ______ ____
ROOT
ATOM      1  C   UNL     1      34.671 -19.255 -20.955  0.00  0.00    +0.054 C 
ATOM      2  C   UNL     1      33.397 -19.741 -20.659  0.00  0.00    +0.018 C 
ATOM      3  C   UNL     1      35.799 -19.997 -20.608  0.00  0.00    +0.018 C 
ATOM      4  C   UNL     1      34.380 -21.713 -19.669  0.00  0.00    +0.149 C 
ATOM      5  C   UNL     1      33.252 -20.969 -20.016  0.00  0.00    +0.039 C 
ATOM      6  C   UNL     1      35.654 -21.227 -19.965  0.00  0.00    +0.039 C 
ENDROOT
BRANCH   1   8
ATOM      7  O   UNL     1      34.560 -18.898 -23.760  0.00  0.00    -0.272 OA
ATOM      8  N   UNL     1      34.817 -18.024 -21.598  0.00  0.00    -0.255 N 
ATOM      9  C   UNL     1      35.050 -16.767 -20.823  0.00  0.00    +0.120 C 
ATOM     10  C   UNL     1      34.749 -17.919 -23.031  0.00  0.00    +0.260 C 
BRANCH  10  13
ATOM     11 CL   UNL     1      33.485 -15.561 -23.153  0.00  0.00    -0.087 Cl
ATOM     12 CL   UNL     1      34.911 -16.728 -25.413  0.00  0.00    -0.087 Cl
ATOM     13  C   UNL     1      34.887 -16.539 -23.651  0.00  0.00    +0.234 C 
ENDBRANCH  10  13
ENDBRANCH   1   8
BRANCH   4  14
ATOM     14  O   UNL     1      34.239 -22.913 -19.043  0.00  0.00    -0.419 OA
BRANCH  14  16
ATOM     15  O   UNL     1      32.248 -22.706 -17.868  0.00  0.00    -0.241 OA
ATOM     16  C   UNL     1      33.461 -22.887 -17.866  0.00  0.00    +0.381 C 
BRANCH  16  18
ATOM     17  O   UNL     1      35.601 -22.981 -16.822  0.00  0.00    -0.444 OA
ATOM     18  C   UNL     1      34.275 -23.100 -16.668  0.00  0.00    +0.221 C 
ATOM     19  C   UNL     1      33.907 -23.402 -15.406  0.00  0.00    +0.047 C 
ATOM     20  C   UNL     1      35.122 -23.483 -14.684  0.00  0.00    +0.044 C 
ATOM     21  C   UNL     1      36.124 -23.219 -15.591  0.00  0.00    +0.180 C 
ENDBRANCH  16  18
ENDBRANCH  14  16
ENDBRANCH   4  14
TORSDOF 5
ENDMDL
MODEL 3
REMARK VINA RESULT:      -9.3      1.298      1.947
REMARK  Name = 19529
REMARK  5 active torsions:
REMARK  status: ('A' for Active; 'I' for Inactive)
REMARK    1  A    between atoms: C_1  and  N_8
REMARK    2  A    between atoms: C_4  and  O_14
REMARK    3  A    between atoms: C_10  and  C_13
REMARK    4  A    between atoms: O_14  and  C_16
REMARK    5  A    between atoms: C_16  and  C_18
REMARK                            x       y       z     vdW  Elec       q    Type
REMARK                         _______ _______ _______ _____ _____    ______ ____
ROOT
ATOM      1  C   UNL     1      35.161 -19.254 -21.359  0.00  0.00    +0.054 C 
ATOM      2  C   UNL     1      36.356 -19.729 -20.817  0.00  0.00    +0.018 C 
ATOM      3  C   UNL     1      33.943 -19.789 -20.940  0.00  0.00    +0.018 C 
ATOM      4  C   UNL     1      35.114 -21.274 -19.435  0.00  0.00    +0.149 C 
ATOM      5  C   UNL     1      36.332 -20.738 -19.856  0.00  0.00    +0.039 C 
ATOM      6  C   UNL     1      33.920 -20.799 -19.977  0.00  0.00    +0.039 C 
ENDROOT
BRANCH   1   8
ATOM      7  O   UNL     1      34.656 -16.524 -20.819  0.00  0.00    -0.272 OA
ATOM      8  N   UNL     1      35.184 -18.245 -22.323  0.00  0.00    -0.255 N 
ATOM      9  C   UNL     1      35.487 -18.546 -23.756  0.00  0.00    +0.120 C 
ATOM     10  C   UNL     1      34.916 -16.875 -21.975  0.00  0.00    +0.260 C 
BRANCH  10  13
ATOM     11 CL   UNL     1      34.534 -14.256 -22.383  0.00  0.00    -0.087 Cl
ATOM     12 CL   UNL     1      33.853 -16.297 -24.352  0.00  0.00    -0.087 Cl
ATOM     13  C   UNL     1      34.991 -15.832 -23.076  0.00  0.00    +0.234 C 
ENDBRANCH  10  13
ENDBRANCH   1   8
BRANCH   4  14
ATOM     14  O   UNL     1      35.090 -22.257 -18.495  0.00  0.00    -0.419 OA
BRANCH  14  16
ATOM     15  O   UNL     1      33.905 -23.921 -19.598  0.00  0.00    -0.241 OA
ATOM     16  C   UNL     1      34.035 -23.185 -18.626  0.00  0.00    +0.381 C 
BRANCH  16  18
ATOM     17  O   UNL     1      31.872 -22.774 -17.713  0.00  0.00    -0.444 OA
ATOM     18  C   UNL     1      33.134 -23.153 -17.472  0.00  0.00    +0.221 C 
ATOM     19  C   UNL     1      33.367 -23.448 -16.176  0.00  0.00    +0.047 C 
ATOM     20  C   UNL     1      32.127 -23.235 -15.528  0.00  0.00    +0.044 C 
ATOM     21  C   UNL     1      31.249 -22.826 -16.506  0.00  0.00    +0.180 C 
ENDBRANCH  16  18
ENDBRANCH  14  16
ENDBRANCH   4  14
TORSDOF 5
ENDMDL
MODEL 4
REMARK VINA RESULT:      -8.9      3.909      8.318
REMARK  Name = 19529
REMARK  5 active torsions:
REMARK  status: ('A' for Active; 'I' for Inactive)
REMARK    1  A    between atoms: C_1  and  N_8
REMARK    2  A    between atoms: C_4  and  O_14
REMARK    3  A    between atoms: C_10  and  C_13
REMARK    4  A    between atoms: O_14  and  C_16
REMARK    5  A    between atoms: C_16  and  C_18
REMARK                            x       y       z     vdW  Elec       q    Type
REMARK                         _______ _______ _______ _____ _____    ______ ____
ROOT
ATOM      1  C   UNL     1      34.474 -18.941 -21.576  0.00  0.00    +0.054 C 
ATOM      2  C   UNL     1      34.512 -19.276 -22.930  0.00  0.00    +0.018 C 
ATOM      3  C   UNL     1      34.653 -17.615 -21.180  0.00  0.00    +0.018 C 
ATOM      4  C   UNL     1      34.907 -16.960 -23.492  0.00  0.00    +0.149 C 
ATOM      5  C   UNL     1      34.729 -18.286 -23.887  0.00  0.00    +0.039 C 
ATOM      6  C   UNL     1      34.870 -16.625 -22.139  0.00  0.00    +0.039 C 
ENDROOT
BRANCH   1   8
ATOM      7  O   UNL     1      36.534 -20.414 -20.316  0.00  0.00    -0.272 OA
ATOM      8  N   UNL     1      34.258 -19.931 -20.617  0.00  0.00    -0.255 N 
ATOM      9  C   UNL     1      32.877 -20.295 -20.174  0.00  0.00    +0.120 C 
ATOM     10  C   UNL     1      35.357 -20.641 -20.017  0.00  0.00    +0.260 C 
BRANCH  10  13
ATOM     11 CL   UNL     1      36.507 -21.953 -17.986  0.00  0.00    -0.087 Cl
ATOM     12 CL   UNL     1      34.563 -23.177 -19.783  0.00  0.00    -0.087 Cl
ATOM     13  C   UNL     1      35.039 -21.683 -18.959  0.00  0.00    +0.234 C 
ENDBRANCH  10  13
ENDBRANCH   1   8
BRANCH   4  14
ATOM     14  O   UNL     1      35.117 -15.993 -24.427  0.00  0.00    -0.419 OA
BRANCH  14  16
ATOM     15  O   UNL     1      33.383 -15.906 -25.969  0.00  0.00    -0.241 OA
ATOM     16  C   UNL     1      33.946 -15.437 -24.985  0.00  0.00    +0.381 C 
BRANCH  16  18
ATOM     17  O   UNL     1      34.043 -13.083 -24.625  0.00  0.00    -0.444 OA
ATOM     18  C   UNL     1      33.502 -14.250 -24.251  0.00  0.00    +0.221 C 
ATOM     19  C   UNL     1      32.619 -14.131 -23.238  0.00  0.00    +0.047 C 
ATOM     20  C   UNL     1      32.596 -12.748 -22.938  0.00  0.00    +0.044 C 
ATOM     21  C   UNL     1      33.480 -12.153 -23.809  0.00  0.00    +0.180 C 
ENDBRANCH  16  18
ENDBRANCH  14  16
ENDBRANCH   4  14
TORSDOF 5
ENDMDL
MODEL 5
REMARK VINA RESULT:      -8.7      5.381      8.353
REMARK  Name = 19529
REMARK  5 active torsions:
REMARK  status: ('A' for Active; 'I' for Inactive)
REMARK    1  A    between atoms: C_1  and  N_8
REMARK    2  A    between atoms: C_4  and  O_14
REMARK    3  A    between atoms: C_10  and  C_13
REMARK    4  A    between atoms: O_14  and  C_16
REMARK    5  A    between atoms: C_16  and  C_18
REMARK                            x       y       z     vdW  Elec       q    Type
REMARK                         _______ _______ _______ _____ _____    ______ ____
ROOT
ATOM      1  C   UNL     1      35.179 -23.158 -15.964  0.00  0.00    +0.054 C 
ATOM      2  C   UNL     1      36.108 -22.409 -16.688  0.00  0.00    +0.018 C 
ATOM      3  C   UNL     1      33.971 -23.530 -16.554  0.00  0.00    +0.018 C 
ATOM      4  C   UNL     1      34.620 -22.406 -18.592  0.00  0.00    +0.149 C 
ATOM      5  C   UNL     1      35.828 -22.034 -18.001  0.00  0.00    +0.039 C 
ATOM      6  C   UNL     1      33.692 -23.154 -17.868  0.00  0.00    +0.039 C 
ENDROOT
BRANCH   1   8
ATOM      7  O   UNL     1      37.787 -23.475 -14.915  0.00  0.00    -0.272 OA
ATOM      8  N   UNL     1      35.457 -23.533 -14.649  0.00  0.00    -0.255 N 
ATOM      9  C   UNL     1      34.359 -23.802 -13.670  0.00  0.00    +0.120 C 
ATOM     10  C   UNL     1      36.811 -23.675 -14.184  0.00  0.00    +0.260 C 
BRANCH  10  13
ATOM     11 CL   UNL     1      37.597 -22.614 -11.855  0.00  0.00    -0.087 Cl
ATOM     12 CL   UNL     1      38.257 -25.333 -12.675  0.00  0.00    -0.087 Cl
ATOM     13  C   UNL     1      37.030 -24.057 -12.730  0.00  0.00    +0.234 C 
ENDBRANCH  10  13
ENDBRANCH   1   8
BRANCH   4  14
ATOM     14  O   UNL     1      34.348 -22.041 -19.874  0.00  0.00    -0.419 OA
BRANCH  14  16
ATOM     15  O   UNL     1      32.647 -20.504 -19.508  0.00  0.00    -0.241 OA
ATOM     16  C   UNL     1      33.726 -20.783 -20.020  0.00  0.00    +0.381 C 
BRANCH  16  18
ATOM     17  O   UNL     1      35.679 -19.450 -20.320  0.00  0.00    -0.444 OA
ATOM     18  C   UNL     1      34.522 -19.874 -20.847  0.00  0.00    +0.221 C 
ATOM     19  C   UNL     1      34.281 -19.379 -22.079  0.00  0.00    +0.047 C 
ATOM     20  C   UNL     1      35.398 -18.558 -22.364  0.00  0.00    +0.044 C 
ATOM     21  C   UNL     1      36.220 -18.634 -21.262  0.00  0.00    +0.180 C 
ENDBRANCH  16  18
ENDBRANCH  14  16
ENDBRANCH   4  14
TORSDOF 5
ENDMDL
MODEL 6
REMARK VINA RESULT:      -8.6      4.287      7.829
REMARK  Name = 19529
REMARK  5 active torsions:
REMARK  status: ('A' for Active; 'I' for Inactive)
REMARK    1  A    between atoms: C_1  and  N_8
REMARK    2  A    between atoms: C_4  and  O_14
REMARK    3  A    between atoms: C_10  and  C_13
REMARK    4  A    between atoms: O_14  and  C_16
REMARK    5  A    between atoms: C_16  and  C_18
REMARK                            x       y       z     vdW  Elec       q    Type
REMARK                         _______ _______ _______ _____ _____    ______ ____
ROOT
ATOM      1  C   UNL     1      34.217 -22.216 -18.201  0.00  0.00    +0.054 C 
ATOM      2  C   UNL     1      35.596 -22.046 -18.330  0.00  0.00    +0.018 C 
ATOM      3  C   UNL     1      33.355 -21.685 -19.161  0.00  0.00    +0.018 C 
ATOM      4  C   UNL     1      35.252 -20.816 -20.381  0.00  0.00    +0.149 C 
ATOM      5  C   UNL     1      36.112 -21.346 -19.420  0.00  0.00    +0.039 C 
ATOM      6  C   UNL     1      33.873 -20.985 -20.251  0.00  0.00    +0.039 C 
ENDROOT
BRANCH   1   8
ATOM      7  O   UNL     1      31.466 -22.349 -17.555  0.00  0.00    -0.272 OA
ATOM      8  N   UNL     1      33.699 -22.915 -17.110  0.00  0.00    -0.255 N 
ATOM      9  C   UNL     1      34.591 -23.667 -16.175  0.00  0.00    +0.120 C 
ATOM     10  C   UNL     1      32.285 -22.939 -16.842  0.00  0.00    +0.260 C 
BRANCH  10  13
ATOM     11 CL   UNL     1      30.195 -24.413 -16.051  0.00  0.00    -0.087 Cl
ATOM     12 CL   UNL     1      31.686 -22.662 -14.258  0.00  0.00    -0.087 Cl
ATOM     13  C   UNL     1      31.798 -23.748 -15.653  0.00  0.00    +0.234 C 
ENDBRANCH  10  13
ENDBRANCH   1   8
BRANCH   4  14
ATOM     14  O   UNL     1      35.756 -20.135 -21.445  0.00  0.00    -0.419 OA
BRANCH  14  16
ATOM     15  O   UNL     1      35.544 -18.042 -20.462  0.00  0.00    -0.241 OA
ATOM     16  C   UNL     1      35.474 -18.752 -21.460  0.00  0.00    +0.381 C 
BRANCH  16  18
ATOM     17  O   UNL     1      34.713 -19.228 -23.667  0.00  0.00    -0.444 OA
ATOM     18  C   UNL     1      35.095 -18.286 -22.795  0.00  0.00    +0.221 C 
ATOM     19  C   UNL     1      35.065 -17.038 -23.307  0.00  0.00    +0.047 C 
ATOM     20  C   UNL     1      34.619 -17.204 -24.640  0.00  0.00    +0.044 C 
ATOM     21  C   UNL     1      34.419 -18.555 -24.810  0.00  0.00    +0.180 C 
ENDBRANCH  16  18
ENDBRANCH  14  16
ENDBRANCH   4  14
TORSDOF 5
ENDMDL
MODEL 7
REMARK VINA RESULT:      -8.6      5.564     10.489
REMARK  Name = 19529
REMARK  5 active torsions:
REMARK  status: ('A' for Active; 'I' for Inactive)
REMARK    1  A    between atoms: C_1  and  N_8
REMARK    2  A    between atoms: C_4  and  O_14
REMARK    3  A    between atoms: C_10  and  C_13
REMARK    4  A    between atoms: O_14  and  C_16
REMARK    5  A    between atoms: C_16  and  C_18
REMARK                            x       y       z     vdW  Elec       q    Type
REMARK                         _______ _______ _______ _____ _____    ______ ____
ROOT
ATOM      1  C   UNL     1      34.154 -15.618 -23.699  0.00  0.00    +0.054 C 
ATOM      2  C   UNL     1      34.429 -14.625 -22.758  0.00  0.00    +0.018 C 
ATOM      3  C   UNL     1      33.509 -15.290 -24.891  0.00  0.00    +0.018 C 
ATOM      4  C   UNL     1      33.413 -12.976 -24.201  0.00  0.00    +0.149 C 
ATOM      5  C   UNL     1      34.058 -13.305 -23.009  0.00  0.00    +0.039 C 
ATOM      6  C   UNL     1      33.138 -13.968 -25.142  0.00  0.00    +0.039 C 
ENDROOT
BRANCH   1   8
ATOM      7  O   UNL     1      34.223 -16.792 -21.126  0.00  0.00    -0.272 OA
ATOM      8  N   UNL     1      34.524 -16.940 -23.448  0.00  0.00    -0.255 N 
ATOM      9  C   UNL     1      34.923 -17.859 -24.558  0.00  0.00    +0.120 C 
ATOM     10  C   UNL     1      34.535 -17.470 -22.110  0.00  0.00    +0.260 C 
BRANCH  10  13
ATOM     11 CL   UNL     1      33.627 -19.732 -21.002  0.00  0.00    -0.087 Cl
ATOM     12 CL   UNL     1      36.445 -18.984 -21.025  0.00  0.00    -0.087 Cl
ATOM     13  C   UNL     1      34.920 -18.928 -21.925  0.00  0.00    +0.234 C 
ENDBRANCH  10  13
ENDBRANCH   1   8
BRANCH   4  14
ATOM     14  O   UNL     1      33.053 -11.687 -24.448  0.00  0.00    -0.419 OA
BRANCH  14  16
ATOM     15  O   UNL     1      35.001 -11.062 -25.545  0.00  0.00    -0.241 OA
ATOM     16  C   UNL     1      34.122 -10.809 -24.728  0.00  0.00    +0.381 C 
BRANCH  16  18
ATOM     17  O   UNL     1      33.073  -9.534 -23.009  0.00  0.00    -0.444 OA
ATOM     18  C   UNL     1      34.045  -9.584 -23.930  0.00  0.00    +0.221 C 
ATOM     19  C   UNL     1      34.806  -8.470 -23.967  0.00  0.00    +0.047 C 
ATOM     20  C   UNL     1      34.263  -7.628 -22.968  0.00  0.00    +0.044 C 
ATOM     21  C   UNL     1      33.210  -8.320 -22.415  0.00  0.00    +0.180 C 
ENDBRANCH  16  18
ENDBRANCH  14  16
ENDBRANCH   4  14
TORSDOF 5
ENDMDL
MODEL 8
REMARK VINA RESULT:      -8.6      4.600      8.081
REMARK  Name = 19529
REMARK  5 active torsions:
REMARK  status: ('A' for Active; 'I' for Inactive)
REMARK    1  A    between atoms: C_1  and  N_8
REMARK    2  A    between atoms: C_4  and  O_14
REMARK    3  A    between atoms: C_10  and  C_13
REMARK    4  A    between atoms: O_14  and  C_16
REMARK    5  A    between atoms: C_16  and  C_18
REMARK                            x       y       z     vdW  Elec       q    Type
REMARK                         _______ _______ _______ _____ _____    ______ ____
ROOT
ATOM      1  C   UNL     1      34.734 -22.001 -18.445  0.00  0.00    +0.054 C 
ATOM      2  C   UNL     1      36.048 -21.726 -18.822  0.00  0.00    +0.018 C 
ATOM      3  C   UNL     1      33.671 -21.500 -19.197  0.00  0.00    +0.018 C 
ATOM      4  C   UNL     1      35.239 -20.446 -20.705  0.00  0.00    +0.149 C 
ATOM      5  C   UNL     1      36.300 -20.948 -19.952  0.00  0.00    +0.039 C 
ATOM      6  C   UNL     1      33.924 -20.722 -20.328  0.00  0.00    +0.039 C 
ENDROOT
BRANCH   1   8
ATOM      7  O   UNL     1      36.591 -22.424 -16.353  0.00  0.00    -0.272 OA
ATOM      8  N   UNL     1      34.480 -22.778 -17.313  0.00  0.00    -0.255 N 
ATOM      9  C   UNL     1      33.165 -23.463 -17.121  0.00  0.00    +0.120 C 
ATOM     10  C   UNL     1      35.474 -22.949 -16.287  0.00  0.00    +0.260 C 
BRANCH  10  13
ATOM     11 CL   UNL     1      35.949 -23.106 -13.657  0.00  0.00    -0.087 Cl
ATOM     12 CL   UNL     1      35.644 -25.447 -15.368  0.00  0.00    -0.087 Cl
ATOM     13  C   UNL     1      35.109 -23.784 -15.073  0.00  0.00    +0.234 C 
ENDBRANCH  10  13
ENDBRANCH   1   8
BRANCH   4  14
ATOM     14  O   UNL     1      35.484 -19.690 -21.809  0.00  0.00    -0.419 OA
BRANCH  14  16
ATOM     15  O   UNL     1      35.529 -17.755 -20.526  0.00  0.00    -0.241 OA
ATOM     16  C   UNL     1      35.376 -18.296 -21.617  0.00  0.00    +0.381 C 
BRANCH  16  18
ATOM     17  O   UNL     1      34.804 -16.285 -22.760  0.00  0.00    -0.444 OA
ATOM     18  C   UNL     1      35.063 -17.595 -22.863  0.00  0.00    +0.221 C 
ATOM     19  C   UNL     1      34.990 -18.058 -24.129  0.00  0.00    +0.047 C 
ATOM     20  C   UNL     1      34.650 -16.926 -24.908  0.00  0.00    +0.044 C 
ATOM     21  C   UNL     1      34.548 -15.872 -24.029  0.00  0.00    +0.180 C 
ENDBRANCH  16  18
ENDBRANCH  14  16
ENDBRANCH   4  14
TORSDOF 5
ENDMDL
MODEL 9
REMARK VINA RESULT:      -8.6      8.115     10.610
REMARK  Name = 19529
REMARK  5 active torsions:
REMARK  status: ('A' for Active; 'I' for Inactive)
REMARK    1  A    between atoms: C_1  and  N_8
REMARK    2  A    between atoms: C_4  and  O_14
REMARK    3  A    between atoms: C_10  and  C_13
REMARK    4  A    between atoms: O_14  and  C_16
REMARK    5  A    between atoms: C_16  and  C_18
REMARK                            x       y       z     vdW  Elec       q    Type
REMARK                         _______ _______ _______ _____ _____    ______ ____
ROOT
ATOM      1  C   UNL     1      32.270  -9.655 -22.328  0.00  0.00    +0.054 C 
ATOM      2  C   UNL     1      31.500 -10.429 -21.459  0.00  0.00    +0.018 C 
ATOM      3  C   UNL     1      33.025 -10.270 -23.327  0.00  0.00    +0.018 C 
ATOM      4  C   UNL     1      32.239 -12.433 -22.588  0.00  0.00    +0.149 C 
ATOM      5  C   UNL     1      31.485 -11.817 -21.589  0.00  0.00    +0.039 C 
ATOM      6  C   UNL     1      33.009 -11.660 -23.457  0.00  0.00    +0.039 C 
ENDROOT
BRANCH   1   8
ATOM      7  O   UNL     1      30.835  -7.880 -23.999  0.00  0.00    -0.272 OA
ATOM      8  N   UNL     1      32.287  -8.266 -22.198  0.00  0.00    -0.255 N 
ATOM      9  C   UNL     1      33.092  -7.596 -21.130  0.00  0.00    +0.120 C 
ATOM     10  C   UNL     1      31.531  -7.424 -23.086  0.00  0.00    +0.260 C 
BRANCH  10  13
ATOM     11 CL   UNL     1      30.250  -5.485 -21.756  0.00  0.00    -0.087 Cl
ATOM     12 CL   UNL     1      31.369  -5.122 -24.425  0.00  0.00    -0.087 Cl
ATOM     13  C   UNL     1      31.579  -5.923 -22.858  0.00  0.00    +0.234 C 
ENDBRANCH  10  13
ENDBRANCH   1   8
BRANCH   4  14
ATOM     14  O   UNL     1      32.223 -13.787 -22.717  0.00  0.00    -0.419 OA
BRANCH  14  16
ATOM     15  O   UNL     1      34.062 -14.273 -21.385  0.00  0.00    -0.241 OA
ATOM     16  C   UNL     1      33.447 -14.431 -22.435  0.00  0.00    +0.381 C 
BRANCH  16  18
ATOM     17  O   UNL     1      33.295 -15.075 -24.724  0.00  0.00    -0.444 OA
ATOM     18  C   UNL     1      33.877 -15.293 -23.537  0.00  0.00    +0.221 C 
ATOM     19  C   UNL     1      34.783 -16.293 -23.560  0.00  0.00    +0.047 C 
ATOM     20  C   UNL     1      34.775 -16.758 -24.896  0.00  0.00    +0.044 C 
ATOM     21  C   UNL     1      33.853 -15.985 -25.565  0.00  0.00    +0.180 C 
ENDBRANCH  16  18
ENDBRANCH  14  16
ENDBRANCH   4  14
TORSDOF 5
ENDMDL
