MODEL 1
REMARK VINA RESULT:      -8.7      0.000      0.000
REMARK  Name = 38668
REMARK  5 active torsions:
REMARK  status: ('A' for Active; 'I' for Inactive)
REMARK    1  A    between atoms: N_3  and  C_23
REMARK    2  A    between atoms: C_7  and  C_15
REMARK    3  A    between atoms: C_9  and  O_21
REMARK    4  A    between atoms: C_23  and  C_24
REMARK    5  A    between atoms: C_24  and  O_25
REMARK                            x       y       z     vdW  Elec       q    Type
REMARK                         _______ _______ _______ _____ _____    ______ ____
ROOT
ATOM      1 CL   UNL     1      36.067 -20.831 -19.082  0.00  0.00    -0.082 Cl
ATOM      2  O   UNL     1      36.908 -25.926 -12.843  0.00  0.00    -0.270 OA
ATOM      3  N   UNL     1      37.154 -23.997 -14.119  0.00  0.00    -0.252 N 
ATOM      4  N   UNL     1      34.673 -25.439 -15.090  0.00  0.00    -0.235 NA
ATOM      5  C   UNL     1      36.843 -23.232 -15.296  0.00  0.00    +0.055 C 
ATOM      6  C   UNL     1      35.633 -23.371 -16.005  0.00  0.00    +0.032 C 
ATOM      7  C   UNL     1      34.517 -24.233 -15.519  0.00  0.00    +0.082 C 
ATOM      8  C   UNL     1      36.711 -25.309 -13.894  0.00  0.00    +0.281 C 
ATOM      9  C   UNL     1      36.017 -25.993 -15.063  0.00  0.00    +0.296 C 
ATOM     10  C   UNL     1      37.770 -22.283 -15.769  0.00  0.00    +0.016 C 
ATOM     11  C   UNL     1      35.408 -22.638 -17.184  0.00  0.00    +0.014 C 
ATOM     12  C   UNL     1      37.532 -21.543 -16.930  0.00  0.00    +0.013 C 
ATOM     13  C   UNL     1      36.356 -21.730 -17.644  0.00  0.00    +0.058 C 
ENDROOT
BRANCH   7  15
ATOM     14  F   UNL     1      33.148 -23.609 -13.130  0.00  0.00    -0.204 F 
ATOM     15  C   UNL     1      33.131 -23.681 -15.504  0.00  0.00    +0.045 C 
ATOM     16  C   UNL     1      32.515 -23.396 -14.292  0.00  0.00    +0.142 C 
ATOM     17  C   UNL     1      32.472 -23.457 -16.707  0.00  0.00    +0.004 C 
ATOM     18  C   UNL     1      31.220 -22.878 -14.282  0.00  0.00    +0.030 C 
ATOM     19  C   UNL     1      31.176 -22.941 -16.696  0.00  0.00    +0.000 C 
ATOM     20  C   UNL     1      30.550 -22.652 -15.484  0.00  0.00    +0.002 C 
ENDBRANCH   7  15
BRANCH   9  21
ATOM     21  O   UNL     1      36.079 -27.398 -14.831  0.00  0.00    -0.357 OA
ATOM     22  H   UNL     1      35.252 -27.695 -14.421  0.00  0.00    +0.213 HD
ENDBRANCH   9  21
BRANCH   3  23
ATOM     23  C   UNL     1      38.040 -23.392 -13.124  0.00  0.00    +0.130 C 
BRANCH  23  24
ATOM     24  C   UNL     1      37.263 -22.875 -11.927  0.00  0.00    +0.159 C 
BRANCH  24  25
ATOM     25  O   UNL     1      37.324 -23.831 -10.876  0.00  0.00    -0.380 OA
ATOM     26  H   UNL     1      36.877 -24.646 -11.154  0.00  0.00    +0.211 HD
ENDBRANCH  24  25
ENDBRANCH  23  24
ENDBRANCH   3  23
TORSDOF 5
ENDMDL
MODEL 2
REMARK VINA RESULT:      -7.4     13.466     15.176
REMARK  Name = 38668
REMARK  5 active torsions:
REMARK  status: ('A' for Active; 'I' for Inactive)
REMARK    1  A    between atoms: N_3  and  C_23
REMARK    2  A    between atoms: C_7  and  C_15
REMARK    3  A    between atoms: C_9  and  O_21
REMARK    4  A    between atoms: C_23  and  C_24
REMARK    5  A    between atoms: C_24  and  O_25
REMARK                            x       y       z     vdW  Elec       q    Type
REMARK                         _______ _______ _______ _____ _____    ______ ____
ROOT
ATOM      1 CL   UNL     1      30.207 -11.356 -20.339  0.00  0.00    -0.082 Cl
ATOM      2  O   UNL     1      35.372 -11.099 -26.572  0.00  0.00    -0.270 OA
ATOM      3  N   UNL     1      34.339 -10.482 -24.582  0.00  0.00    -0.252 N 
ATOM      4  N   UNL     1      33.767 -13.419 -25.050  0.00  0.00    -0.235 NA
ATOM      5  C   UNL     1      33.373 -10.734 -23.547  0.00  0.00    +0.055 C 
ATOM      6  C   UNL     1      32.941 -12.030 -23.199  0.00  0.00    +0.032 C 
ATOM      7  C   UNL     1      33.547 -13.259 -23.790  0.00  0.00    +0.082 C 
ATOM      8  C   UNL     1      34.483 -11.270 -25.734  0.00  0.00    +0.281 C 
ATOM      9  C   UNL     1      33.419 -12.335 -25.954  0.00  0.00    +0.296 C 
ATOM     10  C   UNL     1      32.834  -9.652 -22.826  0.00  0.00    +0.016 C 
ATOM     11  C   UNL     1      31.950 -12.213 -22.219  0.00  0.00    +0.014 C 
ATOM     12  C   UNL     1      31.863  -9.842 -21.838  0.00  0.00    +0.013 C 
ATOM     13  C   UNL     1      31.413 -11.122 -21.544  0.00  0.00    +0.058 C 
ENDROOT
BRANCH   7  15
ATOM     14  F   UNL     1      33.802 -15.928 -24.675  0.00  0.00    -0.204 F 
ATOM     15  C   UNL     1      33.944 -14.375 -22.882  0.00  0.00    +0.045 C 
ATOM     16  C   UNL     1      34.051 -15.666 -23.384  0.00  0.00    +0.142 C 
ATOM     17  C   UNL     1      34.204 -14.108 -21.544  0.00  0.00    +0.004 C 
ATOM     18  C   UNL     1      34.423 -16.707 -22.533  0.00  0.00    +0.030 C 
ATOM     19  C   UNL     1      34.575 -15.149 -20.693  0.00  0.00    +0.000 C 
ATOM     20  C   UNL     1      34.685 -16.448 -21.188  0.00  0.00    +0.002 C 
ENDBRANCH   7  15
BRANCH   9  21
ATOM     21  O   UNL     1      33.443 -12.681 -27.337  0.00  0.00    -0.357 OA
ATOM     22  H   UNL     1      32.721 -12.226 -27.797  0.00  0.00    +0.213 HD
ENDBRANCH   9  21
BRANCH   3  23
ATOM     23  C   UNL     1      35.181  -9.292 -24.456  0.00  0.00    +0.130 C 
BRANCH  23  24
ATOM     24  C   UNL     1      34.405  -8.025 -24.763  0.00  0.00    +0.159 C 
BRANCH  24  25
ATOM     25  O   UNL     1      34.823  -6.989 -23.884  0.00  0.00    -0.380 OA
ATOM     26  H   UNL     1      35.597  -7.287 -23.379  0.00  0.00    +0.211 HD
ENDBRANCH  24  25
ENDBRANCH  23  24
ENDBRANCH   3  23
TORSDOF 5
ENDMDL
MODEL 3
REMARK VINA RESULT:      -7.4     16.440     18.044
REMARK  Name = 38668
REMARK  5 active torsions:
REMARK  status: ('A' for Active; 'I' for Inactive)
REMARK    1  A    between atoms: N_3  and  C_23
REMARK    2  A    between atoms: C_7  and  C_15
REMARK    3  A    between atoms: C_9  and  O_21
REMARK    4  A    between atoms: C_23  and  C_24
REMARK    5  A    between atoms: C_24  and  O_25
REMARK                            x       y       z     vdW  Elec       q    Type
REMARK                         _______ _______ _______ _____ _____    ______ ____
ROOT
ATOM      1 CL   UNL     1      32.419  -6.152 -19.089  0.00  0.00    -0.082 Cl
ATOM      2  O   UNL     1      33.610 -11.609 -24.954  0.00  0.00    -0.270 OA
ATOM      3  N   UNL     1      32.646 -10.593 -23.098  0.00  0.00    -0.252 N 
ATOM      4  N   UNL     1      34.167  -8.468 -24.629  0.00  0.00    -0.235 NA
ATOM      5  C   UNL     1      32.575  -9.494 -22.173  0.00  0.00    +0.055 C 
ATOM      6  C   UNL     1      32.958  -8.180 -22.510  0.00  0.00    +0.032 C 
ATOM      7  C   UNL     1      33.348  -7.794 -23.897  0.00  0.00    +0.082 C 
ATOM      8  C   UNL     1      33.611 -10.709 -24.110  0.00  0.00    +0.281 C 
ATOM      9  C   UNL     1      34.738  -9.687 -24.081  0.00  0.00    +0.296 C 
ATOM     10  C   UNL     1      32.089  -9.717 -20.870  0.00  0.00    +0.016 C 
ATOM     11  C   UNL     1      32.922  -7.156 -21.547  0.00  0.00    +0.014 C 
ATOM     12  C   UNL     1      32.038  -8.690 -19.923  0.00  0.00    +0.013 C 
ATOM     13  C   UNL     1      32.466  -7.413 -20.259  0.00  0.00    +0.058 C 
ENDROOT
BRANCH   7  15
ATOM     14  F   UNL     1      34.773  -6.114 -25.664  0.00  0.00    -0.204 F 
ATOM     15  C   UNL     1      32.752  -6.565 -24.499  0.00  0.00    +0.045 C 
ATOM     16  C   UNL     1      33.510  -5.782 -25.361  0.00  0.00    +0.142 C 
ATOM     17  C   UNL     1      31.443  -6.217 -24.188  0.00  0.00    +0.004 C 
ATOM     18  C   UNL     1      32.950  -4.634 -25.922  0.00  0.00    +0.030 C 
ATOM     19  C   UNL     1      30.884  -5.069 -24.748  0.00  0.00    +0.000 C 
ATOM     20  C   UNL     1      31.637  -4.278 -25.615  0.00  0.00    +0.002 C 
ENDBRANCH   7  15
BRANCH   9  21
ATOM     21  O   UNL     1      35.822 -10.229 -24.833  0.00  0.00    -0.357 OA
ATOM     22  H   UNL     1      35.922 -11.171 -24.625  0.00  0.00    +0.213 HD
ENDBRANCH   9  21
BRANCH   3  23
ATOM     23  C   UNL     1      31.692 -11.689 -22.931  0.00  0.00    +0.130 C 
BRANCH  23  24
ATOM     24  C   UNL     1      32.333 -12.889 -22.259  0.00  0.00    +0.159 C 
BRANCH  24  25
ATOM     25  O   UNL     1      32.594 -13.892 -23.233  0.00  0.00    -0.380 OA
ATOM     26  H   UNL     1      32.959 -14.679 -22.797  0.00  0.00    +0.211 HD
ENDBRANCH  24  25
ENDBRANCH  23  24
ENDBRANCH   3  23
TORSDOF 5
ENDMDL
MODEL 4
REMARK VINA RESULT:      -7.3     15.087     16.721
REMARK  Name = 38668
REMARK  5 active torsions:
REMARK  status: ('A' for Active; 'I' for Inactive)
REMARK    1  A    between atoms: N_3  and  C_23
REMARK    2  A    between atoms: C_7  and  C_15
REMARK    3  A    between atoms: C_9  and  O_21
REMARK    4  A    between atoms: C_23  and  C_24
REMARK    5  A    between atoms: C_24  and  O_25
REMARK                            x       y       z     vdW  Elec       q    Type
REMARK                         _______ _______ _______ _____ _____    ______ ____
ROOT
ATOM      1 CL   UNL     1      31.331 -10.837 -18.763  0.00  0.00    -0.082 Cl
ATOM      2  O   UNL     1      34.336 -11.640 -26.241  0.00  0.00    -0.270 OA
ATOM      3  N   UNL     1      32.993 -12.044 -24.386  0.00  0.00    -0.252 N 
ATOM      4  N   UNL     1      34.076  -9.226 -24.147  0.00  0.00    -0.235 NA
ATOM      5  C   UNL     1      32.573 -11.709 -23.052  0.00  0.00    +0.055 C 
ATOM      6  C   UNL     1      32.650 -10.403 -22.528  0.00  0.00    +0.032 C 
ATOM      7  C   UNL     1      33.055  -9.232 -23.360  0.00  0.00    +0.082 C 
ATOM      8  C   UNL     1      34.041 -11.407 -25.065  0.00  0.00    +0.281 C 
ATOM      9  C   UNL     1      34.877 -10.434 -24.246  0.00  0.00    +0.296 C 
ATOM     10  C   UNL     1      32.044 -12.714 -22.220  0.00  0.00    +0.016 C 
ATOM     11  C   UNL     1      32.280 -10.144 -21.196  0.00  0.00    +0.014 C 
ATOM     12  C   UNL     1      31.659 -12.447 -20.903  0.00  0.00    +0.013 C 
ATOM     13  C   UNL     1      31.789 -11.164 -20.388  0.00  0.00    +0.058 C 
ENDROOT
BRANCH   7  15
ATOM     14  F   UNL     1      33.550  -7.155 -21.512  0.00  0.00    -0.204 F 
ATOM     15  C   UNL     1      32.232  -7.989 -23.304  0.00  0.00    +0.045 C 
ATOM     16  C   UNL     1      32.530  -7.005 -22.368  0.00  0.00    +0.142 C 
ATOM     17  C   UNL     1      31.174  -7.829 -24.191  0.00  0.00    +0.004 C 
ATOM     18  C   UNL     1      31.759  -5.844 -22.319  0.00  0.00    +0.030 C 
ATOM     19  C   UNL     1      30.402  -6.668 -24.140  0.00  0.00    +0.000 C 
ATOM     20  C   UNL     1      30.695  -5.676 -23.205  0.00  0.00    +0.002 C 
ENDBRANCH   7  15
BRANCH   9  21
ATOM     21  O   UNL     1      36.123 -10.270 -24.921  0.00  0.00    -0.357 OA
ATOM     22  H   UNL     1      36.154  -9.393 -25.332  0.00  0.00    +0.213 HD
ENDBRANCH   9  21
BRANCH   3  23
ATOM     23  C   UNL     1      32.325 -13.164 -25.052  0.00  0.00    +0.130 C 
BRANCH  23  24
ATOM     24  C   UNL     1      33.245 -14.363 -25.183  0.00  0.00    +0.159 C 
BRANCH  24  25
ATOM     25  O   UNL     1      33.523 -14.597 -26.557  0.00  0.00    -0.380 OA
ATOM     26  H   UNL     1      33.336 -13.792 -27.067  0.00  0.00    +0.211 HD
ENDBRANCH  24  25
ENDBRANCH  23  24
ENDBRANCH   3  23
TORSDOF 5
ENDMDL
MODEL 5
REMARK VINA RESULT:      -7.0     12.716     14.484
REMARK  Name = 38668
REMARK  5 active torsions:
REMARK  status: ('A' for Active; 'I' for Inactive)
REMARK    1  A    between atoms: N_3  and  C_23
REMARK    2  A    between atoms: C_7  and  C_15
REMARK    3  A    between atoms: C_9  and  O_21
REMARK    4  A    between atoms: C_23  and  C_24
REMARK    5  A    between atoms: C_24  and  O_25
REMARK                            x       y       z     vdW  Elec       q    Type
REMARK                         _______ _______ _______ _____ _____    ______ ____
ROOT
ATOM      1 CL   UNL     1      31.015 -11.498 -19.953  0.00  0.00    -0.082 Cl
ATOM      2  O   UNL     1      34.157 -12.827 -27.299  0.00  0.00    -0.270 OA
ATOM      3  N   UNL     1      33.724 -11.745 -25.286  0.00  0.00    -0.252 N 
ATOM      4  N   UNL     1      33.123 -14.689 -24.902  0.00  0.00    -0.235 NA
ATOM      5  C   UNL     1      33.104 -11.725 -23.989  0.00  0.00    +0.055 C 
ATOM      6  C   UNL     1      32.827 -12.893 -23.252  0.00  0.00    +0.032 C 
ATOM      7  C   UNL     1      33.271 -14.245 -23.701  0.00  0.00    +0.082 C 
ATOM      8  C   UNL     1      33.552 -12.774 -26.224  0.00  0.00    +0.281 C 
ATOM      9  C   UNL     1      32.499 -13.820 -25.887  0.00  0.00    +0.296 C 
ATOM     10  C   UNL     1      32.766 -10.489 -23.404  0.00  0.00    +0.016 C 
ATOM     11  C   UNL     1      32.166 -12.816 -22.013  0.00  0.00    +0.014 C 
ATOM     12  C   UNL     1      32.126 -10.419 -22.163  0.00  0.00    +0.013 C 
ATOM     13  C   UNL     1      31.816 -11.583 -21.474  0.00  0.00    +0.058 C 
ENDROOT
BRANCH   7  15
ATOM     14  F   UNL     1      34.761 -16.511 -24.485  0.00  0.00    -0.204 F 
ATOM     15  C   UNL     1      33.944 -15.146 -22.720  0.00  0.00    +0.045 C 
ATOM     16  C   UNL     1      34.661 -16.246 -23.175  0.00  0.00    +0.142 C 
ATOM     17  C   UNL     1      33.844 -14.874 -21.362  0.00  0.00    +0.004 C 
ATOM     18  C   UNL     1      35.290 -17.086 -22.256  0.00  0.00    +0.030 C 
ATOM     19  C   UNL     1      34.471 -15.716 -20.443  0.00  0.00    +0.000 C 
ATOM     20  C   UNL     1      35.194 -16.821 -20.890  0.00  0.00    +0.002 C 
ENDBRANCH   7  15
BRANCH   9  21
ATOM     21  O   UNL     1      32.134 -14.465 -27.105  0.00  0.00    -0.357 OA
ATOM     22  H   UNL     1      32.801 -15.132 -27.330  0.00  0.00    +0.213 HD
ENDBRANCH   9  21
BRANCH   3  23
ATOM     23  C   UNL     1      34.533 -10.590 -25.676  0.00  0.00    +0.130 C 
BRANCH  23  24
ATOM     24  C   UNL     1      35.575 -10.259 -24.623  0.00  0.00    +0.159 C 
BRANCH  24  25
ATOM     25  O   UNL     1      35.294  -8.981 -24.067  0.00  0.00    -0.380 OA
ATOM     26  H   UNL     1      36.064  -8.671 -23.563  0.00  0.00    +0.211 HD
ENDBRANCH  24  25
ENDBRANCH  23  24
ENDBRANCH   3  23
TORSDOF 5
ENDMDL
MODEL 6
REMARK VINA RESULT:      -6.8     11.480     13.110
REMARK  Name = 38668
REMARK  5 active torsions:
REMARK  status: ('A' for Active; 'I' for Inactive)
REMARK    1  A    between atoms: N_3  and  C_23
REMARK    2  A    between atoms: C_7  and  C_15
REMARK    3  A    between atoms: C_9  and  O_21
REMARK    4  A    between atoms: C_23  and  C_24
REMARK    5  A    between atoms: C_24  and  O_25
REMARK                            x       y       z     vdW  Elec       q    Type
REMARK                         _______ _______ _______ _____ _____    ______ ____
ROOT
ATOM      1 CL   UNL     1      31.992 -13.896 -27.745  0.00  0.00    -0.082 Cl
ATOM      2  O   UNL     1      34.263 -16.121 -20.296  0.00  0.00    -0.270 OA
ATOM      3  N   UNL     1      34.367 -15.830 -22.601  0.00  0.00    -0.252 N 
ATOM      4  N   UNL     1      32.383 -13.821 -21.504  0.00  0.00    -0.235 NA
ATOM      5  C   UNL     1      33.804 -15.316 -23.821  0.00  0.00    +0.055 C 
ATOM      6  C   UNL     1      32.968 -14.183 -23.863  0.00  0.00    +0.032 C 
ATOM      7  C   UNL     1      32.699 -13.344 -22.659  0.00  0.00    +0.082 C 
ATOM      8  C   UNL     1      33.735 -15.758 -21.351  0.00  0.00    +0.281 C 
ATOM      9  C   UNL     1      32.295 -15.265 -21.355  0.00  0.00    +0.296 C 
ATOM     10  C   UNL     1      34.104 -15.951 -25.042  0.00  0.00    +0.016 C 
ATOM     11  C   UNL     1      32.398 -13.760 -25.077  0.00  0.00    +0.014 C 
ATOM     12  C   UNL     1      33.550 -15.514 -26.248  0.00  0.00    +0.013 C 
ATOM     13  C   UNL     1      32.687 -14.426 -26.263  0.00  0.00    +0.058 C 
ENDROOT
BRANCH   7  15
ATOM     14  F   UNL     1      30.954 -11.571 -21.324  0.00  0.00    -0.204 F 
ATOM     15  C   UNL     1      32.814 -11.860 -22.773  0.00  0.00    +0.045 C 
ATOM     16  C   UNL     1      31.921 -11.045 -22.089  0.00  0.00    +0.142 C 
ATOM     17  C   UNL     1      33.815 -11.311 -23.564  0.00  0.00    +0.004 C 
ATOM     18  C   UNL     1      32.031  -9.659 -22.197  0.00  0.00    +0.030 C 
ATOM     19  C   UNL     1      33.925  -9.925 -23.673  0.00  0.00    +0.000 C 
ATOM     20  C   UNL     1      33.033  -9.099 -22.990  0.00  0.00    +0.002 C 
ENDBRANCH   7  15
BRANCH   9  21
ATOM     21  O   UNL     1      31.692 -15.704 -20.140  0.00  0.00    -0.357 OA
ATOM     22  H   UNL     1      30.895 -16.218 -20.342  0.00  0.00    +0.213 HD
ENDBRANCH   9  21
BRANCH   3  23
ATOM     23  C   UNL     1      35.651 -16.528 -22.682  0.00  0.00    +0.130 C 
BRANCH  23  24
ATOM     24  C   UNL     1      35.486 -18.023 -22.478  0.00  0.00    +0.159 C 
BRANCH  24  25
ATOM     25  O   UNL     1      36.002 -18.386 -21.204  0.00  0.00    -0.380 OA
ATOM     26  H   UNL     1      36.779 -18.955 -21.321  0.00  0.00    +0.211 HD
ENDBRANCH  24  25
ENDBRANCH  23  24
ENDBRANCH   3  23
TORSDOF 5
ENDMDL
MODEL 7
REMARK VINA RESULT:      -6.8      2.868      4.243
REMARK  Name = 38668
REMARK  5 active torsions:
REMARK  status: ('A' for Active; 'I' for Inactive)
REMARK    1  A    between atoms: N_3  and  C_23
REMARK    2  A    between atoms: C_7  and  C_15
REMARK    3  A    between atoms: C_9  and  O_21
REMARK    4  A    between atoms: C_23  and  C_24
REMARK    5  A    between atoms: C_24  and  O_25
REMARK                            x       y       z     vdW  Elec       q    Type
REMARK                         _______ _______ _______ _____ _____    ______ ____
ROOT
ATOM      1 CL   UNL     1      40.353 -25.818 -15.630  0.00  0.00    -0.082 Cl
ATOM      2  O   UNL     1      33.485 -23.420 -12.072  0.00  0.00    -0.270 OA
ATOM      3  N   UNL     1      35.765 -23.751 -12.388  0.00  0.00    -0.252 N 
ATOM      4  N   UNL     1      34.422 -23.907 -15.099  0.00  0.00    -0.235 NA
ATOM      5  C   UNL     1      36.858 -24.210 -13.202  0.00  0.00    +0.055 C 
ATOM      6  C   UNL     1      36.807 -24.241 -14.610  0.00  0.00    +0.032 C 
ATOM      7  C   UNL     1      35.660 -23.678 -15.380  0.00  0.00    +0.082 C 
ATOM      8  C   UNL     1      34.413 -23.895 -12.732  0.00  0.00    +0.281 C 
ATOM      9  C   UNL     1      34.120 -24.752 -13.956  0.00  0.00    +0.296 C 
ATOM     10  C   UNL     1      38.048 -24.637 -12.584  0.00  0.00    +0.016 C 
ATOM     11  C   UNL     1      37.885 -24.755 -15.353  0.00  0.00    +0.014 C 
ATOM     12  C   UNL     1      39.124 -25.129 -13.329  0.00  0.00    +0.013 C 
ATOM     13  C   UNL     1      39.036 -25.199 -14.712  0.00  0.00    +0.058 C 
ENDROOT
BRANCH   7  15
ATOM     14  F   UNL     1      34.007 -23.579 -17.667  0.00  0.00    -0.204 F 
ATOM     15  C   UNL     1      35.939 -22.780 -16.539  0.00  0.00    +0.045 C 
ATOM     16  C   UNL     1      35.084 -22.782 -17.634  0.00  0.00    +0.142 C 
ATOM     17  C   UNL     1      37.054 -21.952 -16.508  0.00  0.00    +0.004 C 
ATOM     18  C   UNL     1      35.347 -21.941 -18.715  0.00  0.00    +0.030 C 
ATOM     19  C   UNL     1      37.318 -21.112 -17.590  0.00  0.00    +0.000 C 
ATOM     20  C   UNL     1      36.465 -21.107 -18.693  0.00  0.00    +0.002 C 
ENDBRANCH   7  15
BRANCH   9  21
ATOM     21  O   UNL     1      32.759 -25.170 -13.866  0.00  0.00    -0.357 OA
ATOM     22  H   UNL     1      32.390 -24.890 -13.015  0.00  0.00    +0.213 HD
ENDBRANCH   9  21
BRANCH   3  23
ATOM     23  C   UNL     1      36.082 -23.154 -11.091  0.00  0.00    +0.130 C 
BRANCH  23  24
ATOM     24  C   UNL     1      35.747 -24.094  -9.948  0.00  0.00    +0.159 C 
BRANCH  24  25
ATOM     25  O   UNL     1      35.282 -25.330 -10.474  0.00  0.00    -0.380 OA
ATOM     26  H   UNL     1      34.314 -25.304 -10.554  0.00  0.00    +0.211 HD
ENDBRANCH  24  25
ENDBRANCH  23  24
ENDBRANCH   3  23
TORSDOF 5
ENDMDL
MODEL 8
REMARK VINA RESULT:      -6.7      9.652     11.500
REMARK  Name = 38668
REMARK  5 active torsions:
REMARK  status: ('A' for Active; 'I' for Inactive)
REMARK    1  A    between atoms: N_3  and  C_23
REMARK    2  A    between atoms: C_7  and  C_15
REMARK    3  A    between atoms: C_9  and  O_21
REMARK    4  A    between atoms: C_23  and  C_24
REMARK    5  A    between atoms: C_24  and  O_25
REMARK                            x       y       z     vdW  Elec       q    Type
REMARK                         _______ _______ _______ _____ _____    ______ ____
ROOT
ATOM      1 CL   UNL     1      32.119 -12.533 -20.110  0.00  0.00    -0.082 Cl
ATOM      2  O   UNL     1      35.051 -19.667 -22.580  0.00  0.00    -0.270 OA
ATOM      3  N   UNL     1      33.588 -18.137 -21.616  0.00  0.00    -0.252 N 
ATOM      4  N   UNL     1      35.366 -16.626 -23.547  0.00  0.00    -0.235 NA
ATOM      5  C   UNL     1      33.228 -16.781 -21.305  0.00  0.00    +0.055 C 
ATOM      6  C   UNL     1      33.629 -15.681 -22.090  0.00  0.00    +0.032 C 
ATOM      7  C   UNL     1      34.354 -15.844 -23.383  0.00  0.00    +0.082 C 
ATOM      8  C   UNL     1      34.789 -18.510 -22.237  0.00  0.00    +0.281 C 
ATOM      9  C   UNL     1      35.824 -17.409 -22.411  0.00  0.00    +0.296 C 
ATOM     10  C   UNL     1      32.425 -16.519 -20.178  0.00  0.00    +0.016 C 
ATOM     11  C   UNL     1      33.296 -14.369 -21.704  0.00  0.00    +0.014 C 
ATOM     12  C   UNL     1      32.082 -15.215 -19.811  0.00  0.00    +0.013 C 
ATOM     13  C   UNL     1      32.528 -14.140 -20.568  0.00  0.00    +0.058 C 
ENDROOT
BRANCH   7  15
ATOM     14  F   UNL     1      33.308 -17.097 -25.687  0.00  0.00    -0.204 F 
ATOM     15  C   UNL     1      33.886 -15.079 -24.575  0.00  0.00    +0.045 C 
ATOM     16  C   UNL     1      33.382 -15.759 -25.677  0.00  0.00    +0.142 C 
ATOM     17  C   UNL     1      33.959 -13.691 -24.568  0.00  0.00    +0.004 C 
ATOM     18  C   UNL     1      32.944 -15.040 -26.789  0.00  0.00    +0.030 C 
ATOM     19  C   UNL     1      33.523 -12.973 -25.682  0.00  0.00    +0.000 C 
ATOM     20  C   UNL     1      33.015 -13.647 -26.792  0.00  0.00    +0.002 C 
ENDBRANCH   7  15
BRANCH   9  21
ATOM     21  O   UNL     1      37.090 -18.039 -22.592  0.00  0.00    -0.357 OA
ATOM     22  H   UNL     1      37.795 -17.377 -22.514  0.00  0.00    +0.213 HD
ENDBRANCH   9  21
BRANCH   3  23
ATOM     23  C   UNL     1      32.671 -19.200 -21.201  0.00  0.00    +0.130 C 
BRANCH  23  24
ATOM     24  C   UNL     1      33.335 -20.162 -20.233  0.00  0.00    +0.159 C 
BRANCH  24  25
ATOM     25  O   UNL     1      32.643 -21.404 -20.251  0.00  0.00    -0.380 OA
ATOM     26  H   UNL     1      32.910 -21.934 -19.484  0.00  0.00    +0.211 HD
ENDBRANCH  24  25
ENDBRANCH  23  24
ENDBRANCH   3  23
TORSDOF 5
ENDMDL
MODEL 9
REMARK VINA RESULT:      -6.7     11.969     13.835
REMARK  Name = 38668
REMARK  5 active torsions:
REMARK  status: ('A' for Active; 'I' for Inactive)
REMARK    1  A    between atoms: N_3  and  C_23
REMARK    2  A    between atoms: C_7  and  C_15
REMARK    3  A    between atoms: C_9  and  O_21
REMARK    4  A    between atoms: C_23  and  C_24
REMARK    5  A    between atoms: C_24  and  O_25
REMARK                            x       y       z     vdW  Elec       q    Type
REMARK                         _______ _______ _______ _____ _____    ______ ____
ROOT
ATOM      1 CL   UNL     1      31.845 -15.137 -19.440  0.00  0.00    -0.082 Cl
ATOM      2  O   UNL     1      33.911 -12.469 -26.803  0.00  0.00    -0.270 OA
ATOM      3  N   UNL     1      33.740 -12.529 -24.484  0.00  0.00    -0.252 N 
ATOM      4  N   UNL     1      33.315 -15.345 -25.515  0.00  0.00    -0.235 NA
ATOM      5  C   UNL     1      33.320 -13.193 -23.281  0.00  0.00    +0.055 C 
ATOM      6  C   UNL     1      33.199 -14.594 -23.179  0.00  0.00    +0.032 C 
ATOM      7  C   UNL     1      33.623 -15.513 -24.275  0.00  0.00    +0.082 C 
ATOM      8  C   UNL     1      33.470 -12.998 -25.778  0.00  0.00    +0.281 C 
ATOM      9  C   UNL     1      32.520 -14.182 -25.877  0.00  0.00    +0.296 C 
ATOM     10  C   UNL     1      33.025 -12.429 -22.135  0.00  0.00    +0.016 C 
ATOM     11  C   UNL     1      32.727 -15.186 -21.994  0.00  0.00    +0.014 C 
ATOM     12  C   UNL     1      32.575 -13.025 -20.954  0.00  0.00    +0.013 C 
ATOM     13  C   UNL     1      32.414 -14.403 -20.888  0.00  0.00    +0.058 C 
ENDROOT
BRANCH   7  15
ATOM     14  F   UNL     1      33.465 -17.952 -25.689  0.00  0.00    -0.204 F 
ATOM     15  C   UNL     1      34.467 -16.697 -23.938  0.00  0.00    +0.045 C 
ATOM     16  C   UNL     1      34.338 -17.868 -24.675  0.00  0.00    +0.142 C 
ATOM     17  C   UNL     1      35.374 -16.613 -22.889  0.00  0.00    +0.004 C 
ATOM     18  C   UNL     1      35.130 -18.971 -24.359  0.00  0.00    +0.030 C 
ATOM     19  C   UNL     1      36.165 -17.718 -22.572  0.00  0.00    +0.000 C 
ATOM     20  C   UNL     1      36.042 -18.896 -23.307  0.00  0.00    +0.002 C 
ENDBRANCH   7  15
BRANCH   9  21
ATOM     21  O   UNL     1      32.003 -14.204 -27.206  0.00  0.00    -0.357 OA
ATOM     22  H   UNL     1      32.505 -13.584 -27.758  0.00  0.00    +0.213 HD
ENDBRANCH   9  21
BRANCH   3  23
ATOM     23  C   UNL     1      34.439 -11.249 -24.350  0.00  0.00    +0.130 C 
BRANCH  23  24
ATOM     24  C   UNL     1      33.464 -10.096 -24.201  0.00  0.00    +0.159 C 
BRANCH  24  25
ATOM     25  O   UNL     1      34.104  -9.021 -23.524  0.00  0.00    -0.380 OA
ATOM     26  H   UNL     1      34.914  -9.345 -23.097  0.00  0.00    +0.211 HD
ENDBRANCH  24  25
ENDBRANCH  23  24
ENDBRANCH   3  23
TORSDOF 5
ENDMDL
