MODEL 1
REMARK VINA RESULT:      -6.0      0.000      0.000
REMARK  Name = 98527
REMARK  5 active torsions:
REMARK  status: ('A' for Active; 'I' for Inactive)
REMARK    1  A    between atoms: C_2  and  C_12
REMARK    2  A    between atoms: C_3  and  O_8
REMARK    3  A    between atoms: C_5  and  O_10
REMARK    4  A    between atoms: C_12  and  C_13
REMARK    5  A    between atoms: C_13  and  N_14
REMARK                            x       y       z     vdW  Elec       q    Type
REMARK                         _______ _______ _______ _____ _____    ______ ____
ROOT
ATOM      1 BR   UNL     1      34.941 -19.592 -24.741  0.00  0.00    -0.046 Br
ATOM      2  C   UNL     1      34.485 -16.088 -21.665  0.00  0.00    +0.013 C 
ATOM      3  C   UNL     1      34.521 -15.827 -23.035  0.00  0.00    +0.135 C 
ATOM      4  C   UNL     1      34.586 -17.399 -21.203  0.00  0.00    +0.036 C 
ATOM      5  C   UNL     1      34.723 -18.451 -22.110  0.00  0.00    +0.145 C 
ATOM      6  C   UNL     1      34.656 -16.878 -23.942  0.00  0.00    +0.046 C 
ATOM      7  C   UNL     1      34.757 -18.189 -23.480  0.00  0.00    +0.071 C 
ENDROOT
BRANCH   3   8
ATOM      8  O   UNL     1      34.423 -14.550 -23.504  0.00  0.00    -0.472 OA
ATOM      9  C   UNL     1      33.462 -14.309 -24.530  0.00  0.00    +0.252 C 
ENDBRANCH   3   8
BRANCH   5  10
ATOM     10  O   UNL     1      34.820 -19.721 -21.625  0.00  0.00    -0.471 OA
ATOM     11  C   UNL     1      33.870 -20.113 -20.638  0.00  0.00    +0.252 C 
ENDBRANCH   5  10
BRANCH   2  12
ATOM     12  C   UNL     1      34.342 -14.975 -20.680  0.00  0.00    +0.006 C 
BRANCH  12  13
ATOM     13  C   UNL     1      32.884 -14.585 -20.407  0.00  0.00    -0.081 C 
BRANCH  13  14
ATOM     14  N   UNL     1      32.466 -13.451 -21.185  0.00  0.00    +0.381 N 
ATOM     15  H   UNL     1      31.863 -13.764 -21.945  0.00  0.00    -0.089 HD
ATOM     16  H   UNL     1      33.285 -12.984 -21.573  0.00  0.00    -0.089 HD
ATOM     17  H   UNL     1      31.953 -12.800 -20.590  0.00  0.00    -0.089 HD
ENDBRANCH  13  14
ENDBRANCH  12  13
ENDBRANCH   2  12
TORSDOF 5
ENDMDL
MODEL 2
REMARK VINA RESULT:      -5.9      2.806      4.529
REMARK  Name = 98527
REMARK  5 active torsions:
REMARK  status: ('A' for Active; 'I' for Inactive)
REMARK    1  A    between atoms: C_2  and  C_12
REMARK    2  A    between atoms: C_3  and  O_8
REMARK    3  A    between atoms: C_5  and  O_10
REMARK    4  A    between atoms: C_12  and  C_13
REMARK    5  A    between atoms: C_13  and  N_14
REMARK                            x       y       z     vdW  Elec       q    Type
REMARK                         _______ _______ _______ _____ _____    ______ ____
ROOT
ATOM      1 BR   UNL     1      32.950 -14.351 -26.333  0.00  0.00    -0.046 Br
ATOM      2  C   UNL     1      34.707 -16.612 -22.626  0.00  0.00    +0.013 C 
ATOM      3  C   UNL     1      34.780 -17.177 -23.898  0.00  0.00    +0.135 C 
ATOM      4  C   UNL     1      34.108 -15.366 -22.450  0.00  0.00    +0.036 C 
ATOM      5  C   UNL     1      33.581 -14.683 -23.546  0.00  0.00    +0.145 C 
ATOM      6  C   UNL     1      34.254 -16.495 -24.996  0.00  0.00    +0.046 C 
ATOM      7  C   UNL     1      33.655 -15.249 -24.820  0.00  0.00    +0.071 C 
ENDROOT
BRANCH   3   8
ATOM      8  O   UNL     1      35.363 -18.395 -24.088  0.00  0.00    -0.472 OA
ATOM      9  C   UNL     1      34.590 -19.385 -24.764  0.00  0.00    +0.252 C 
ENDBRANCH   3   8
BRANCH   5  10
ATOM     10  O   UNL     1      33.001 -13.468 -23.340  0.00  0.00    -0.471 OA
ATOM     11  C   UNL     1      32.209 -13.318 -22.165  0.00  0.00    +0.252 C 
ENDBRANCH   5  10
BRANCH   2  12
ATOM     12  C   UNL     1      35.264 -17.329 -21.440  0.00  0.00    +0.006 C 
BRANCH  12  13
ATOM     13  C   UNL     1      34.446 -18.559 -21.029  0.00  0.00    -0.081 C 
BRANCH  13  14
ATOM     14  N   UNL     1      35.171 -19.786 -21.219  0.00  0.00    +0.381 N 
ATOM     15  H   UNL     1      35.851 -19.900 -20.469  0.00  0.00    -0.089 HD
ATOM     16  H   UNL     1      35.656 -19.759 -22.116  0.00  0.00    -0.089 HD
ATOM     17  H   UNL     1      34.519 -20.571 -21.210  0.00  0.00    -0.089 HD
ENDBRANCH  13  14
ENDBRANCH  12  13
ENDBRANCH   2  12
TORSDOF 5
ENDMDL
MODEL 3
REMARK VINA RESULT:      -5.9      4.743      6.442
REMARK  Name = 98527
REMARK  5 active torsions:
REMARK  status: ('A' for Active; 'I' for Inactive)
REMARK    1  A    between atoms: C_2  and  C_12
REMARK    2  A    between atoms: C_3  and  O_8
REMARK    3  A    between atoms: C_5  and  O_10
REMARK    4  A    between atoms: C_12  and  C_13
REMARK    5  A    between atoms: C_13  and  N_14
REMARK                            x       y       z     vdW  Elec       q    Type
REMARK                         _______ _______ _______ _____ _____    ______ ____
ROOT
ATOM      1 BR   UNL     1      34.883 -10.751 -25.532  0.00  0.00    -0.046 Br
ATOM      2  C   UNL     1      31.835 -11.079 -21.990  0.00  0.00    +0.013 C 
ATOM      3  C   UNL     1      32.202  -9.832 -22.493  0.00  0.00    +0.135 C 
ATOM      4  C   UNL     1      32.376 -12.240 -22.541  0.00  0.00    +0.036 C 
ATOM      5  C   UNL     1      33.285 -12.155 -23.596  0.00  0.00    +0.145 C 
ATOM      6  C   UNL     1      33.111  -9.745 -23.549  0.00  0.00    +0.046 C 
ATOM      7  C   UNL     1      33.651 -10.906 -24.100  0.00  0.00    +0.071 C 
ENDROOT
BRANCH   3   8
ATOM      8  O   UNL     1      31.683  -8.687 -21.966  0.00  0.00    -0.472 OA
ATOM      9  C   UNL     1      32.591  -7.612 -21.731  0.00  0.00    +0.252 C 
ENDBRANCH   3   8
BRANCH   5  10
ATOM     10  O   UNL     1      33.796 -13.308 -24.111  0.00  0.00    -0.471 OA
ATOM     11  C   UNL     1      34.169 -14.324 -23.183  0.00  0.00    +0.252 C 
ENDBRANCH   5  10
BRANCH   2  12
ATOM     12  C   UNL     1      30.866 -11.191 -20.860  0.00  0.00    +0.006 C 
BRANCH  12  13
ATOM     13  C   UNL     1      31.537 -11.253 -19.482  0.00  0.00    -0.081 C 
BRANCH  13  14
ATOM     14  N   UNL     1      32.033  -9.973 -19.057  0.00  0.00    +0.381 N 
ATOM     15  H   UNL     1      31.591  -9.711 -18.177  0.00  0.00    -0.089 HD
ATOM     16  H   UNL     1      31.819  -9.272 -19.766  0.00  0.00    -0.089 HD
ATOM     17  H   UNL     1      33.044 -10.026 -18.928  0.00  0.00    -0.089 HD
ENDBRANCH  13  14
ENDBRANCH  12  13
ENDBRANCH   2  12
TORSDOF 5
ENDMDL
MODEL 4
REMARK VINA RESULT:      -5.9      5.492      7.068
REMARK  Name = 98527
REMARK  5 active torsions:
REMARK  status: ('A' for Active; 'I' for Inactive)
REMARK    1  A    between atoms: C_2  and  C_12
REMARK    2  A    between atoms: C_3  and  O_8
REMARK    3  A    between atoms: C_5  and  O_10
REMARK    4  A    between atoms: C_12  and  C_13
REMARK    5  A    between atoms: C_13  and  N_14
REMARK                            x       y       z     vdW  Elec       q    Type
REMARK                         _______ _______ _______ _____ _____    ______ ____
ROOT
ATOM      1 BR   UNL     1      33.494 -14.143 -23.919  0.00  0.00    -0.046 Br
ATOM      2  C   UNL     1      32.323  -9.801 -22.609  0.00  0.00    +0.013 C 
ATOM      3  C   UNL     1      31.818 -10.906 -21.925  0.00  0.00    +0.135 C 
ATOM      4  C   UNL     1      33.183  -9.984 -23.691  0.00  0.00    +0.036 C 
ATOM      5  C   UNL     1      33.538 -11.272 -24.090  0.00  0.00    +0.145 C 
ATOM      6  C   UNL     1      32.173 -12.195 -22.323  0.00  0.00    +0.046 C 
ATOM      7  C   UNL     1      33.033 -12.378 -23.405  0.00  0.00    +0.071 C 
ENDROOT
BRANCH   3   8
ATOM      8  O   UNL     1      30.977 -10.745 -20.864  0.00  0.00    -0.472 OA
ATOM      9  C   UNL     1      31.390 -11.303 -19.619  0.00  0.00    +0.252 C 
ENDBRANCH   3   8
BRANCH   5  10
ATOM     10  O   UNL     1      34.379 -11.417 -25.153  0.00  0.00    -0.471 OA
ATOM     11  C   UNL     1      35.270 -10.338 -25.426  0.00  0.00    +0.252 C 
ENDBRANCH   5  10
BRANCH   2  12
ATOM     12  C   UNL     1      31.953  -8.414 -22.197  0.00  0.00    +0.006 C 
BRANCH  12  13
ATOM     13  C   UNL     1      32.981  -7.757 -21.267  0.00  0.00    -0.081 C 
BRANCH  13  14
ATOM     14  N   UNL     1      32.778  -8.115 -19.889  0.00  0.00    +0.381 N 
ATOM     15  H   UNL     1      33.677  -8.322 -19.455  0.00  0.00    -0.089 HD
ATOM     16  H   UNL     1      32.177  -8.937 -19.835  0.00  0.00    -0.089 HD
ATOM     17  H   UNL     1      32.334  -7.338 -19.398  0.00  0.00    -0.089 HD
ENDBRANCH  13  14
ENDBRANCH  12  13
ENDBRANCH   2  12
TORSDOF 5
ENDMDL
MODEL 5
REMARK VINA RESULT:      -5.8      8.538     11.220
REMARK  Name = 98527
REMARK  5 active torsions:
REMARK  status: ('A' for Active; 'I' for Inactive)
REMARK    1  A    between atoms: C_2  and  C_12
REMARK    2  A    between atoms: C_3  and  O_8
REMARK    3  A    between atoms: C_5  and  O_10
REMARK    4  A    between atoms: C_12  and  C_13
REMARK    5  A    between atoms: C_13  and  N_14
REMARK                            x       y       z     vdW  Elec       q    Type
REMARK                         _______ _______ _______ _____ _____    ______ ____
ROOT
ATOM      1 BR   UNL     1      37.365 -22.427 -16.041  0.00  0.00    -0.046 Br
ATOM      2  C   UNL     1      33.380 -24.155 -14.287  0.00  0.00    +0.013 C 
ATOM      3  C   UNL     1      34.519 -24.055 -13.489  0.00  0.00    +0.135 C 
ATOM      4  C   UNL     1      33.422 -23.739 -15.617  0.00  0.00    +0.036 C 
ATOM      5  C   UNL     1      34.604 -23.223 -16.150  0.00  0.00    +0.145 C 
ATOM      6  C   UNL     1      35.701 -23.539 -14.021  0.00  0.00    +0.046 C 
ATOM      7  C   UNL     1      35.743 -23.123 -15.351  0.00  0.00    +0.071 C 
ENDROOT
BRANCH   3   8
ATOM      8  O   UNL     1      34.495 -24.457 -12.186  0.00  0.00    -0.472 OA
ATOM      9  C   UNL     1      35.689 -24.272 -11.429  0.00  0.00    +0.252 C 
ENDBRANCH   3   8
BRANCH   5  10
ATOM     10  O   UNL     1      34.612 -22.827 -17.454  0.00  0.00    -0.471 OA
ATOM     11  C   UNL     1      33.358 -22.799 -18.131  0.00  0.00    +0.252 C 
ENDBRANCH   5  10
BRANCH   2  12
ATOM     12  C   UNL     1      32.107 -24.707 -13.735  0.00  0.00    +0.006 C 
BRANCH  12  13
ATOM     13  C   UNL     1      30.939 -24.662 -14.728  0.00  0.00    -0.081 C 
BRANCH  13  14
ATOM     14  N   UNL     1      29.819 -25.449 -14.291  0.00  0.00    +0.381 N 
ATOM     15  H   UNL     1      30.075 -25.971 -13.454  0.00  0.00    -0.089 HD
ATOM     16  H   UNL     1      29.551 -26.100 -15.029  0.00  0.00    -0.089 HD
ATOM     17  H   UNL     1      29.032 -24.833 -14.080  0.00  0.00    -0.089 HD
ENDBRANCH  13  14
ENDBRANCH  12  13
ENDBRANCH   2  12
TORSDOF 5
ENDMDL
MODEL 6
REMARK VINA RESULT:      -5.8      8.789     10.040
REMARK  Name = 98527
REMARK  5 active torsions:
REMARK  status: ('A' for Active; 'I' for Inactive)
REMARK    1  A    between atoms: C_2  and  C_12
REMARK    2  A    between atoms: C_3  and  O_8
REMARK    3  A    between atoms: C_5  and  O_10
REMARK    4  A    between atoms: C_12  and  C_13
REMARK    5  A    between atoms: C_13  and  N_14
REMARK                            x       y       z     vdW  Elec       q    Type
REMARK                         _______ _______ _______ _____ _____    ______ ____
ROOT
ATOM      1 BR   UNL     1      33.917 -22.568 -19.196  0.00  0.00    -0.046 Br
ATOM      2  C   UNL     1      32.091 -23.361 -14.956  0.00  0.00    +0.013 C 
ATOM      3  C   UNL     1      31.282 -22.921 -16.003  0.00  0.00    +0.135 C 
ATOM      4  C   UNL     1      33.454 -23.568 -15.167  0.00  0.00    +0.036 C 
ATOM      5  C   UNL     1      34.008 -23.334 -16.425  0.00  0.00    +0.145 C 
ATOM      6  C   UNL     1      31.836 -22.688 -17.262  0.00  0.00    +0.046 C 
ATOM      7  C   UNL     1      33.198 -22.895 -17.473  0.00  0.00    +0.071 C 
ENDROOT
BRANCH   3   8
ATOM      8  O   UNL     1      29.948 -22.714 -15.813  0.00  0.00    -0.472 OA
ATOM      9  C   UNL     1      29.067 -23.200 -16.825  0.00  0.00    +0.252 C 
ENDBRANCH   3   8
BRANCH   5  10
ATOM     10  O   UNL     1      35.344 -23.545 -16.599  0.00  0.00    -0.471 OA
ATOM     11  C   UNL     1      36.223 -22.939 -15.655  0.00  0.00    +0.252 C 
ENDBRANCH   5  10
BRANCH   2  12
ATOM     12  C   UNL     1      31.516 -23.614 -13.601  0.00  0.00    +0.006 C 
BRANCH  12  13
ATOM     13  C   UNL     1      31.091 -25.071 -13.380  0.00  0.00    -0.081 C 
BRANCH  13  14
ATOM     14  N   UNL     1      29.881 -25.400 -14.083  0.00  0.00    +0.381 N 
ATOM     15  H   UNL     1      30.089 -25.548 -15.070  0.00  0.00    -0.089 HD
ATOM     16  H   UNL     1      29.213 -24.635 -13.988  0.00  0.00    -0.089 HD
ATOM     17  H   UNL     1      29.479 -26.252 -13.689  0.00  0.00    -0.089 HD
ENDBRANCH  13  14
ENDBRANCH  12  13
ENDBRANCH   2  12
TORSDOF 5
ENDMDL
MODEL 7
REMARK VINA RESULT:      -5.8      8.112     10.272
REMARK  Name = 98527
REMARK  5 active torsions:
REMARK  status: ('A' for Active; 'I' for Inactive)
REMARK    1  A    between atoms: C_2  and  C_12
REMARK    2  A    between atoms: C_3  and  O_8
REMARK    3  A    between atoms: C_5  and  O_10
REMARK    4  A    between atoms: C_12  and  C_13
REMARK    5  A    between atoms: C_13  and  N_14
REMARK                            x       y       z     vdW  Elec       q    Type
REMARK                         _______ _______ _______ _____ _____    ______ ____
ROOT
ATOM      1 BR   UNL     1      29.513 -22.796 -16.445  0.00  0.00    -0.046 Br
ATOM      2  C   UNL     1      34.085 -23.517 -15.721  0.00  0.00    +0.013 C 
ATOM      3  C   UNL     1      33.606 -23.247 -17.003  0.00  0.00    +0.135 C 
ATOM      4  C   UNL     1      33.202 -23.574 -14.644  0.00  0.00    +0.036 C 
ATOM      5  C   UNL     1      31.838 -23.362 -14.848  0.00  0.00    +0.145 C 
ATOM      6  C   UNL     1      32.243 -23.034 -17.208  0.00  0.00    +0.046 C 
ATOM      7  C   UNL     1      31.359 -23.090 -16.131  0.00  0.00    +0.071 C 
ENDROOT
BRANCH   3   8
ATOM      8  O   UNL     1      34.457 -23.188 -18.067  0.00  0.00    -0.472 OA
ATOM      9  C   UNL     1      34.029 -22.429 -19.197  0.00  0.00    +0.252 C 
ENDBRANCH   3   8
BRANCH   5  10
ATOM     10  O   UNL     1      31.001 -23.425 -13.775  0.00  0.00    -0.471 OA
ATOM     11  C   UNL     1      30.626 -24.724 -13.322  0.00  0.00    +0.252 C 
ENDBRANCH   5  10
BRANCH   2  12
ATOM     12  C   UNL     1      35.541 -23.749 -15.484  0.00  0.00    +0.006 C 
BRANCH  12  13
ATOM     13  C   UNL     1      35.826 -24.901 -14.513  0.00  0.00    -0.081 C 
BRANCH  13  14
ATOM     14  N   UNL     1      35.763 -26.186 -15.154  0.00  0.00    +0.381 N 
ATOM     15  H   UNL     1      36.705 -26.564 -15.252  0.00  0.00    -0.089 HD
ATOM     16  H   UNL     1      35.341 -26.086 -16.077  0.00  0.00    -0.089 HD
ATOM     17  H   UNL     1      35.199 -26.822 -14.590  0.00  0.00    -0.089 HD
ENDBRANCH  13  14
ENDBRANCH  12  13
ENDBRANCH   2  12
TORSDOF 5
ENDMDL
MODEL 8
REMARK VINA RESULT:      -5.8      1.820      2.919
REMARK  Name = 98527
REMARK  5 active torsions:
REMARK  status: ('A' for Active; 'I' for Inactive)
REMARK    1  A    between atoms: C_2  and  C_12
REMARK    2  A    between atoms: C_3  and  O_8
REMARK    3  A    between atoms: C_5  and  O_10
REMARK    4  A    between atoms: C_12  and  C_13
REMARK    5  A    between atoms: C_13  and  N_14
REMARK                            x       y       z     vdW  Elec       q    Type
REMARK                         _______ _______ _______ _____ _____    ______ ____
ROOT
ATOM      1 BR   UNL     1      35.457 -19.529 -21.006  0.00  0.00    -0.046 Br
ATOM      2  C   UNL     1      34.483 -15.331 -22.843  0.00  0.00    +0.013 C 
ATOM      3  C   UNL     1      34.340 -15.554 -21.474  0.00  0.00    +0.135 C 
ATOM      4  C   UNL     1      34.918 -16.362 -23.676  0.00  0.00    +0.036 C 
ATOM      5  C   UNL     1      35.211 -17.616 -23.140  0.00  0.00    +0.145 C 
ATOM      6  C   UNL     1      34.633 -16.808 -20.937  0.00  0.00    +0.046 C 
ATOM      7  C   UNL     1      35.069 -17.838 -21.769  0.00  0.00    +0.071 C 
ENDROOT
BRANCH   3   8
ATOM      8  O   UNL     1      33.916 -14.557 -20.646  0.00  0.00    -0.472 OA
ATOM      9  C   UNL     1      32.641 -14.726 -20.031  0.00  0.00    +0.252 C 
ENDBRANCH   3   8
BRANCH   5  10
ATOM     10  O   UNL     1      35.632 -18.602 -23.980  0.00  0.00    -0.471 OA
ATOM     11  C   UNL     1      34.636 -19.260 -24.759  0.00  0.00    +0.252 C 
ENDBRANCH   5  10
BRANCH   2  12
ATOM     12  C   UNL     1      34.173 -13.996 -23.436  0.00  0.00    +0.006 C 
BRANCH  12  13
ATOM     13  C   UNL     1      32.694 -13.818 -23.802  0.00  0.00    -0.081 C 
BRANCH  13  14
ATOM     14  N   UNL     1      31.981 -13.036 -22.829  0.00  0.00    +0.381 N 
ATOM     15  H   UNL     1      30.988 -13.265 -22.870  0.00  0.00    -0.089 HD
ATOM     16  H   UNL     1      32.109 -12.044 -23.028  0.00  0.00    -0.089 HD
ATOM     17  H   UNL     1      32.339 -13.244 -21.896  0.00  0.00    -0.089 HD
ENDBRANCH  13  14
ENDBRANCH  12  13
ENDBRANCH   2  12
TORSDOF 5
ENDMDL
MODEL 9
REMARK VINA RESULT:      -5.8      3.263      4.093
REMARK  Name = 98527
REMARK  5 active torsions:
REMARK  status: ('A' for Active; 'I' for Inactive)
REMARK    1  A    between atoms: C_2  and  C_12
REMARK    2  A    between atoms: C_3  and  O_8
REMARK    3  A    between atoms: C_5  and  O_10
REMARK    4  A    between atoms: C_12  and  C_13
REMARK    5  A    between atoms: C_13  and  N_14
REMARK                            x       y       z     vdW  Elec       q    Type
REMARK                         _______ _______ _______ _____ _____    ______ ____
ROOT
ATOM      1 BR   UNL     1      33.243 -13.476 -26.998  0.00  0.00    -0.046 Br
ATOM      2  C   UNL     1      33.241 -14.950 -22.552  0.00  0.00    +0.013 C 
ATOM      3  C   UNL     1      32.720 -13.699 -22.882  0.00  0.00    +0.135 C 
ATOM      4  C   UNL     1      33.768 -15.771 -23.548  0.00  0.00    +0.036 C 
ATOM      5  C   UNL     1      33.774 -15.342 -24.875  0.00  0.00    +0.145 C 
ATOM      6  C   UNL     1      32.725 -13.270 -24.210  0.00  0.00    +0.046 C 
ATOM      7  C   UNL     1      33.251 -14.092 -25.206  0.00  0.00    +0.071 C 
ENDROOT
BRANCH   3   8
ATOM      8  O   UNL     1      32.201 -12.884 -21.921  0.00  0.00    -0.472 OA
ATOM      9  C   UNL     1      31.920 -11.537 -22.296  0.00  0.00    +0.252 C 
ENDBRANCH   3   8
BRANCH   5  10
ATOM     10  O   UNL     1      34.297 -16.168 -25.825  0.00  0.00    -0.471 OA
ATOM     11  C   UNL     1      34.632 -17.493 -25.419  0.00  0.00    +0.252 C 
ENDBRANCH   5  10
BRANCH   2  12
ATOM     12  C   UNL     1      33.245 -15.425 -21.136  0.00  0.00    +0.006 C 
BRANCH  12  13
ATOM     13  C   UNL     1      34.653 -15.655 -20.572  0.00  0.00    -0.081 C 
BRANCH  13  14
ATOM     14  N   UNL     1      35.057 -17.032 -20.657  0.00  0.00    +0.381 N 
ATOM     15  H   UNL     1      35.541 -17.191 -21.540  0.00  0.00    -0.089 HD
ATOM     16  H   UNL     1      34.235 -17.633 -20.607  0.00  0.00    -0.089 HD
ATOM     17  H   UNL     1      35.684 -17.250 -19.882  0.00  0.00    -0.089 HD
ENDBRANCH  13  14
ENDBRANCH  12  13
ENDBRANCH   2  12
TORSDOF 5
ENDMDL
