MODEL 1
REMARK VINA RESULT:      -5.7      0.000      0.000
REMARK  Name = 54679224
REMARK  1 active torsions:
REMARK  status: ('A' for Active; 'I' for Inactive)
REMARK    1  A    between atoms: C_4  and  O_10
REMARK                            x       y       z     vdW  Elec       q    Type
REMARK                         _______ _______ _______ _____ _____    ______ ____
ROOT
ATOM      1 CL   UNL     1      34.416 -18.347 -21.383  0.00  0.00    -0.078 Cl
ATOM      2  O   UNL     1      33.778 -23.478 -18.800  0.00  0.00    -0.270 OA
ATOM      3  N   UNL     1      32.865 -21.667 -19.906  0.00  0.00    -0.279 N 
ATOM      4  C   UNL     1      35.384 -20.562 -20.056  0.00  0.00    +0.150 C 
ATOM      5  C   UNL     1      34.232 -19.878 -20.611  0.00  0.00    +0.106 C 
ATOM      6  C   UNL     1      35.255 -21.753 -19.453  0.00  0.00    +0.095 C 
ATOM      7  C   UNL     1      33.024 -20.449 -20.518  0.00  0.00    +0.079 C 
ATOM      8  C   UNL     1      33.909 -22.388 -19.350  0.00  0.00    +0.253 C 
ATOM      9  H   UNL     1      31.959 -22.051 -19.859  0.00  0.00    +0.155 HD
ENDROOT
BRANCH   4  10
ATOM     10  O   UNL     1      36.619 -19.956 -20.163  0.00  0.00    -0.504 OA
ATOM     11  H   UNL     1      36.743 -19.086 -19.841  0.00  0.00    +0.292 HD
ENDBRANCH   4  10
TORSDOF 1
ENDMDL
MODEL 2
REMARK VINA RESULT:      -5.5      5.741      6.865
REMARK  Name = 54679224
REMARK  1 active torsions:
REMARK  status: ('A' for Active; 'I' for Inactive)
REMARK    1  A    between atoms: C_4  and  O_10
REMARK                            x       y       z     vdW  Elec       q    Type
REMARK                         _______ _______ _______ _____ _____    ______ ____
ROOT
ATOM      1 CL   UNL     1      34.976 -16.654 -21.160  0.00  0.00    -0.078 Cl
ATOM      2  O   UNL     1      33.474 -15.484 -26.617  0.00  0.00    -0.270 OA
ATOM      3  N   UNL     1      33.362 -14.995 -24.362  0.00  0.00    -0.279 N 
ATOM      4  C   UNL     1      35.029 -17.133 -23.875  0.00  0.00    +0.150 C 
ATOM      5  C   UNL     1      34.531 -16.309 -22.790  0.00  0.00    +0.106 C 
ATOM      6  C   UNL     1      34.691 -16.877 -25.147  0.00  0.00    +0.095 C 
ATOM      7  C   UNL     1      33.722 -15.278 -23.068  0.00  0.00    +0.079 C 
ATOM      8  C   UNL     1      33.790 -15.728 -25.456  0.00  0.00    +0.253 C 
ATOM      9  H   UNL     1      32.765 -14.228 -24.522  0.00  0.00    +0.155 HD
ENDROOT
BRANCH   4  10
ATOM     10  O   UNL     1      35.861 -18.189 -23.566  0.00  0.00    -0.504 OA
ATOM     11  H   UNL     1      36.738 -18.207 -23.893  0.00  0.00    +0.292 HD
ENDBRANCH   4  10
TORSDOF 1
ENDMDL
MODEL 3
REMARK VINA RESULT:      -5.4      7.730      8.439
REMARK  Name = 54679224
REMARK  1 active torsions:
REMARK  status: ('A' for Active; 'I' for Inactive)
REMARK    1  A    between atoms: C_4  and  O_10
REMARK                            x       y       z     vdW  Elec       q    Type
REMARK                         _______ _______ _______ _____ _____    ______ ____
ROOT
ATOM      1 CL   UNL     1      36.484 -24.059 -11.236  0.00  0.00    -0.078 Cl
ATOM      2  O   UNL     1      36.690 -27.215 -16.074  0.00  0.00    -0.270 OA
ATOM      3  N   UNL     1      37.228 -26.931 -13.845  0.00  0.00    -0.279 N 
ATOM      4  C   UNL     1      35.907 -24.515 -13.894  0.00  0.00    +0.150 C 
ATOM      5  C   UNL     1      36.542 -24.996 -12.682  0.00  0.00    +0.106 C 
ATOM      6  C   UNL     1      35.944 -25.233 -15.025  0.00  0.00    +0.095 C 
ATOM      7  C   UNL     1      37.175 -26.177 -12.700  0.00  0.00    +0.079 C 
ATOM      8  C   UNL     1      36.649 -26.547 -15.043  0.00  0.00    +0.253 C 
ATOM      9  H   UNL     1      37.703 -27.793 -13.814  0.00  0.00    +0.155 HD
ENDROOT
BRANCH   4  10
ATOM     10  O   UNL     1      35.261 -23.296 -13.853  0.00  0.00    -0.504 OA
ATOM     11  H   UNL     1      34.592 -23.141 -13.216  0.00  0.00    +0.292 HD
ENDBRANCH   4  10
TORSDOF 1
ENDMDL
MODEL 4
REMARK VINA RESULT:      -5.4      7.860      8.761
REMARK  Name = 54679224
REMARK  1 active torsions:
REMARK  status: ('A' for Active; 'I' for Inactive)
REMARK    1  A    between atoms: C_4  and  O_10
REMARK                            x       y       z     vdW  Elec       q    Type
REMARK                         _______ _______ _______ _____ _____    ______ ____
ROOT
ATOM      1 CL   UNL     1      35.275 -24.530 -13.566  0.00  0.00    -0.078 Cl
ATOM      2  O   UNL     1      40.825 -25.458 -14.883  0.00  0.00    -0.270 OA
ATOM      3  N   UNL     1      38.792 -24.473 -15.364  0.00  0.00    -0.279 N 
ATOM      4  C   UNL     1      37.752 -25.648 -13.101  0.00  0.00    +0.150 C 
ATOM      5  C   UNL     1      36.931 -24.810 -13.954  0.00  0.00    +0.106 C 
ATOM      6  C   UNL     1      39.041 -25.875 -13.390  0.00  0.00    +0.095 C 
ATOM      7  C   UNL     1      37.475 -24.256 -15.046  0.00  0.00    +0.079 C 
ATOM      8  C   UNL     1      39.646 -25.258 -14.607  0.00  0.00    +0.253 C 
ATOM      9  H   UNL     1      39.152 -24.047 -16.176  0.00  0.00    +0.155 HD
ENDROOT
BRANCH   4  10
ATOM     10  O   UNL     1      37.172 -26.209 -11.982  0.00  0.00    -0.504 OA
ATOM     11  H   UNL     1      37.016 -27.132 -11.946  0.00  0.00    +0.292 HD
ENDBRANCH   4  10
TORSDOF 1
ENDMDL
MODEL 5
REMARK VINA RESULT:      -5.4      4.462      5.717
REMARK  Name = 54679224
REMARK  1 active torsions:
REMARK  status: ('A' for Active; 'I' for Inactive)
REMARK    1  A    between atoms: C_4  and  O_10
REMARK                            x       y       z     vdW  Elec       q    Type
REMARK                         _______ _______ _______ _____ _____    ______ ____
ROOT
ATOM      1 CL   UNL     1      34.963 -19.500 -20.966  0.00  0.00    -0.078 Cl
ATOM      2  O   UNL     1      34.676 -16.494 -25.895  0.00  0.00    -0.270 OA
ATOM      3  N   UNL     1      34.668 -18.518 -24.782  0.00  0.00    -0.279 N 
ATOM      4  C   UNL     1      34.958 -17.150 -22.409  0.00  0.00    +0.150 C 
ATOM      5  C   UNL     1      34.878 -18.598 -22.433  0.00  0.00    +0.106 C 
ATOM      6  C   UNL     1      34.893 -16.436 -23.542  0.00  0.00    +0.095 C 
ATOM      7  C   UNL     1      34.737 -19.226 -23.608  0.00  0.00    +0.079 C 
ATOM      8  C   UNL     1      34.737 -17.137 -24.850  0.00  0.00    +0.253 C 
ATOM      9  H   UNL     1      34.565 -19.020 -25.623  0.00  0.00    +0.155 HD
ENDROOT
BRANCH   4  10
ATOM     10  O   UNL     1      35.103 -16.524 -21.189  0.00  0.00    -0.504 OA
ATOM     11  H   UNL     1      35.927 -16.546 -20.745  0.00  0.00    +0.292 HD
ENDBRANCH   4  10
TORSDOF 1
ENDMDL
MODEL 6
REMARK VINA RESULT:      -5.4      6.882      7.452
REMARK  Name = 54679224
REMARK  1 active torsions:
REMARK  status: ('A' for Active; 'I' for Inactive)
REMARK    1  A    between atoms: C_4  and  O_10
REMARK                            x       y       z     vdW  Elec       q    Type
REMARK                         _______ _______ _______ _____ _____    ______ ____
ROOT
ATOM      1 CL   UNL     1      36.355 -22.762 -16.337  0.00  0.00    -0.078 Cl
ATOM      2  O   UNL     1      37.083 -26.434 -11.935  0.00  0.00    -0.270 OA
ATOM      3  N   UNL     1      35.702 -25.107 -13.226  0.00  0.00    -0.279 N 
ATOM      4  C   UNL     1      37.896 -24.381 -14.724  0.00  0.00    +0.150 C 
ATOM      5  C   UNL     1      36.578 -23.857 -15.025  0.00  0.00    +0.106 C 
ATOM      6  C   UNL     1      38.085 -25.234 -13.707  0.00  0.00    +0.095 C 
ATOM      7  C   UNL     1      35.536 -24.235 -14.273  0.00  0.00    +0.079 C 
ATOM      8  C   UNL     1      36.924 -25.654 -12.869  0.00  0.00    +0.253 C 
ATOM      9  H   UNL     1      34.909 -25.358 -12.698  0.00  0.00    +0.155 HD
ENDROOT
BRANCH   4  10
ATOM     10  O   UNL     1      38.955 -23.979 -15.512  0.00  0.00    -0.504 OA
ATOM     11  H   UNL     1      39.168 -24.455 -16.289  0.00  0.00    +0.292 HD
ENDBRANCH   4  10
TORSDOF 1
ENDMDL
MODEL 7
REMARK VINA RESULT:      -5.3      7.832      8.066
REMARK  Name = 54679224
REMARK  1 active torsions:
REMARK  status: ('A' for Active; 'I' for Inactive)
REMARK    1  A    between atoms: C_4  and  O_10
REMARK                            x       y       z     vdW  Elec       q    Type
REMARK                         _______ _______ _______ _____ _____    ______ ____
ROOT
ATOM      1 CL   UNL     1      36.979 -23.156 -12.065  0.00  0.00    -0.078 Cl
ATOM      2  O   UNL     1      36.731 -27.284 -16.103  0.00  0.00    -0.270 OA
ATOM      3  N   UNL     1      35.667 -25.756 -14.735  0.00  0.00    -0.279 N 
ATOM      4  C   UNL     1      38.129 -25.016 -13.746  0.00  0.00    +0.150 C 
ATOM      5  C   UNL     1      36.911 -24.388 -13.270  0.00  0.00    +0.106 C 
ATOM      6  C   UNL     1      38.091 -25.975 -14.681  0.00  0.00    +0.095 C 
ATOM      7  C   UNL     1      35.733 -24.776 -13.776  0.00  0.00    +0.079 C 
ATOM      8  C   UNL     1      36.779 -26.406 -15.245  0.00  0.00    +0.253 C 
ATOM      9  H   UNL     1      34.781 -26.011 -15.080  0.00  0.00    +0.155 HD
ENDROOT
BRANCH   4  10
ATOM     10  O   UNL     1      39.330 -24.600 -13.210  0.00  0.00    -0.504 OA
ATOM     11  H   UNL     1      39.916 -25.225 -12.832  0.00  0.00    +0.292 HD
ENDBRANCH   4  10
TORSDOF 1
ENDMDL
MODEL 8
REMARK VINA RESULT:      -5.3      5.952      6.708
REMARK  Name = 54679224
REMARK  1 active torsions:
REMARK  status: ('A' for Active; 'I' for Inactive)
REMARK    1  A    between atoms: C_4  and  O_10
REMARK                            x       y       z     vdW  Elec       q    Type
REMARK                         _______ _______ _______ _____ _____    ______ ____
ROOT
ATOM      1 CL   UNL     1      34.505 -15.415 -20.411  0.00  0.00    -0.078 Cl
ATOM      2  O   UNL     1      34.740 -17.014 -25.960  0.00  0.00    -0.270 OA
ATOM      3  N   UNL     1      35.420 -17.284 -23.770  0.00  0.00    -0.279 N 
ATOM      4  C   UNL     1      33.773 -15.193 -23.061  0.00  0.00    +0.150 C 
ATOM      5  C   UNL     1      34.571 -15.888 -22.068  0.00  0.00    +0.106 C 
ATOM      6  C   UNL     1      33.815 -15.550 -24.352  0.00  0.00    +0.095 C 
ATOM      7  C   UNL     1      35.359 -16.900 -22.453  0.00  0.00    +0.079 C 
ATOM      8  C   UNL     1      34.693 -16.677 -24.780  0.00  0.00    +0.253 C 
ATOM      9  H   UNL     1      36.012 -18.034 -24.009  0.00  0.00    +0.155 HD
ENDROOT
BRANCH   4  10
ATOM     10  O   UNL     1      32.969 -14.154 -22.642  0.00  0.00    -0.504 OA
ATOM     11  H   UNL     1      32.037 -14.229 -22.701  0.00  0.00    +0.292 HD
ENDBRANCH   4  10
TORSDOF 1
ENDMDL
MODEL 9
REMARK VINA RESULT:      -5.3      8.717      8.950
REMARK  Name = 54679224
REMARK  1 active torsions:
REMARK  status: ('A' for Active; 'I' for Inactive)
REMARK    1  A    between atoms: C_4  and  O_10
REMARK                            x       y       z     vdW  Elec       q    Type
REMARK                         _______ _______ _______ _____ _____    ______ ____
ROOT
ATOM      1 CL   UNL     1      39.696 -25.398 -13.597  0.00  0.00    -0.078 Cl
ATOM      2  O   UNL     1      34.324 -23.923 -12.059  0.00  0.00    -0.270 OA
ATOM      3  N   UNL     1      35.761 -25.253 -13.286  0.00  0.00    -0.279 N 
ATOM      4  C   UNL     1      37.879 -23.878 -12.187  0.00  0.00    +0.150 C 
ATOM      5  C   UNL     1      38.096 -24.954 -13.135  0.00  0.00    +0.106 C 
ATOM      6  C   UNL     1      36.641 -23.522 -11.818  0.00  0.00    +0.095 C 
ATOM      7  C   UNL     1      37.039 -25.598 -13.647  0.00  0.00    +0.079 C 
ATOM      8  C   UNL     1      35.464 -24.240 -12.389  0.00  0.00    +0.253 C 
ATOM      9  H   UNL     1      35.012 -25.752 -13.687  0.00  0.00    +0.155 HD
ENDROOT
BRANCH   4  10
ATOM     10  O   UNL     1      38.982 -23.229 -11.672  0.00  0.00    -0.504 OA
ATOM     11  H   UNL     1      38.880 -22.408 -11.233  0.00  0.00    +0.292 HD
ENDBRANCH   4  10
TORSDOF 1
ENDMDL
