MODEL 1
REMARK VINA RESULT:      -6.6      0.000      0.000
REMARK  Name = 440104
REMARK  4 active torsions:
REMARK  status: ('A' for Active; 'I' for Inactive)
REMARK    1  A    between atoms: C_1  and  C_9
REMARK    2  A    between atoms: C_6  and  O_7
REMARK    3  A    between atoms: C_9  and  O_10
REMARK    4  A    between atoms: C_9  and  C_13
REMARK                            x       y       z     vdW  Elec       q    Type
REMARK                         _______ _______ _______ _____ _____    ______ ____
ROOT
ATOM      1  C   UNL     1      34.922 -19.287 -21.087  0.00  0.00    +0.019 C 
ATOM      2  C   UNL     1      36.084 -19.919 -20.641  0.00  0.00    +0.002 C 
ATOM      3  C   UNL     1      33.673 -19.806 -20.748  0.00  0.00    +0.002 C 
ATOM      4  C   UNL     1      35.995 -21.068 -19.857  0.00  0.00    +0.036 C 
ATOM      5  C   UNL     1      33.585 -20.957 -19.963  0.00  0.00    +0.036 C 
ATOM      6  C   UNL     1      34.746 -21.588 -19.518  0.00  0.00    +0.134 C 
ENDROOT
BRANCH   6   7
ATOM      7  O   UNL     1      34.661 -22.710 -18.753  0.00  0.00    -0.506 OA
ATOM      8  H   UNL     1      35.004 -22.710 -17.881  0.00  0.00    +0.292 HD
ENDBRANCH   6   7
BRANCH   1   9
ATOM      9  C   UNL     1      35.016 -18.058 -21.925  0.00  0.00    +0.225 C 
BRANCH   9  10
ATOM     10  O   UNL     1      36.245 -18.063 -22.664  0.00  0.00    -0.368 OA
ATOM     11  H   UNL     1      36.063 -18.277 -23.593  0.00  0.00    +0.212 HD
ENDBRANCH   9  10
BRANCH   9  13
ATOM     12  N   UNL     1      34.854 -15.847 -20.496  0.00  0.00    -0.193 NA
ATOM     13  C   UNL     1      34.931 -16.819 -21.127  0.00  0.00    +0.107 C 
ENDBRANCH   9  13
ENDBRANCH   1   9
TORSDOF 4
ENDMDL
MODEL 2
REMARK VINA RESULT:      -6.5      1.779      2.368
REMARK  Name = 440104
REMARK  4 active torsions:
REMARK  status: ('A' for Active; 'I' for Inactive)
REMARK    1  A    between atoms: C_1  and  C_9
REMARK    2  A    between atoms: C_6  and  O_7
REMARK    3  A    between atoms: C_9  and  O_10
REMARK    4  A    between atoms: C_9  and  C_13
REMARK                            x       y       z     vdW  Elec       q    Type
REMARK                         _______ _______ _______ _____ _____    ______ ____
ROOT
ATOM      1  C   UNL     1      34.915 -19.564 -20.978  0.00  0.00    +0.019 C 
ATOM      2  C   UNL     1      33.521 -19.552 -20.913  0.00  0.00    +0.002 C 
ATOM      3  C   UNL     1      35.635 -20.551 -20.303  0.00  0.00    +0.002 C 
ATOM      4  C   UNL     1      32.849 -20.525 -20.176  0.00  0.00    +0.036 C 
ATOM      5  C   UNL     1      34.961 -21.524 -19.565  0.00  0.00    +0.036 C 
ATOM      6  C   UNL     1      33.568 -21.511 -19.500  0.00  0.00    +0.134 C 
ENDROOT
BRANCH   6   7
ATOM      7  O   UNL     1      32.910 -22.460 -18.780  0.00  0.00    -0.506 OA
ATOM      8  H   UNL     1      33.392 -23.056 -18.241  0.00  0.00    +0.292 HD
ENDBRANCH   6   7
BRANCH   1   9
ATOM      9  C   UNL     1      35.635 -18.525 -21.766  0.00  0.00    +0.225 C 
BRANCH   9  10
ATOM     10  O   UNL     1      35.394 -17.228 -21.202  0.00  0.00    -0.368 OA
ATOM     11  H   UNL     1      35.100 -16.621 -21.901  0.00  0.00    +0.212 HD
ENDBRANCH   9  10
BRANCH   9  13
ATOM     12  N   UNL     1      34.928 -18.503 -24.308  0.00  0.00    -0.193 NA
ATOM     13  C   UNL     1      35.241 -18.518 -23.190  0.00  0.00    +0.107 C 
ENDBRANCH   9  13
ENDBRANCH   1   9
TORSDOF 4
ENDMDL
MODEL 3
REMARK VINA RESULT:      -6.4      8.861     10.024
REMARK  Name = 440104
REMARK  4 active torsions:
REMARK  status: ('A' for Active; 'I' for Inactive)
REMARK    1  A    between atoms: C_1  and  C_9
REMARK    2  A    between atoms: C_6  and  O_7
REMARK    3  A    between atoms: C_9  and  O_10
REMARK    4  A    between atoms: C_9  and  C_13
REMARK                            x       y       z     vdW  Elec       q    Type
REMARK                         _______ _______ _______ _____ _____    ______ ____
ROOT
ATOM      1  C   UNL     1      37.529 -23.927 -13.006  0.00  0.00    +0.019 C 
ATOM      2  C   UNL     1      38.467 -24.861 -12.564  0.00  0.00    +0.002 C 
ATOM      3  C   UNL     1      37.450 -23.607 -14.361  0.00  0.00    +0.002 C 
ATOM      4  C   UNL     1      39.324 -25.475 -13.477  0.00  0.00    +0.036 C 
ATOM      5  C   UNL     1      38.308 -24.220 -15.274  0.00  0.00    +0.036 C 
ATOM      6  C   UNL     1      39.246 -25.153 -14.832  0.00  0.00    +0.134 C 
ENDROOT
BRANCH   6   7
ATOM      7  O   UNL     1      40.083 -25.752 -15.723  0.00  0.00    -0.506 OA
ATOM      8  H   UNL     1      40.466 -26.583 -15.520  0.00  0.00    +0.292 HD
ENDBRANCH   6   7
BRANCH   1   9
ATOM      9  C   UNL     1      36.613 -23.272 -12.030  0.00  0.00    +0.225 C 
BRANCH   9  10
ATOM     10  O   UNL     1      37.350 -22.365 -11.199  0.00  0.00    -0.368 OA
ATOM     11  H   UNL     1      36.738 -21.727 -10.796  0.00  0.00    +0.212 HD
ENDBRANCH   9  10
BRANCH   9  13
ATOM     12  N   UNL     1      35.341 -25.005 -10.500  0.00  0.00    -0.193 NA
ATOM     13  C   UNL     1      35.900 -24.246 -11.178  0.00  0.00    +0.107 C 
ENDBRANCH   9  13
ENDBRANCH   1   9
TORSDOF 4
ENDMDL
MODEL 4
REMARK VINA RESULT:      -6.3      8.988      9.972
REMARK  Name = 440104
REMARK  4 active torsions:
REMARK  status: ('A' for Active; 'I' for Inactive)
REMARK    1  A    between atoms: C_1  and  C_9
REMARK    2  A    between atoms: C_6  and  O_7
REMARK    3  A    between atoms: C_9  and  O_10
REMARK    4  A    between atoms: C_9  and  C_13
REMARK                            x       y       z     vdW  Elec       q    Type
REMARK                         _______ _______ _______ _____ _____    ______ ____
ROOT
ATOM      1  C   UNL     1      36.939 -24.465 -13.106  0.00  0.00    +0.019 C 
ATOM      2  C   UNL     1      35.875 -24.480 -14.009  0.00  0.00    +0.002 C 
ATOM      3  C   UNL     1      37.981 -25.382 -13.242  0.00  0.00    +0.002 C 
ATOM      4  C   UNL     1      35.855 -25.410 -15.047  0.00  0.00    +0.036 C 
ATOM      5  C   UNL     1      37.960 -26.313 -14.281  0.00  0.00    +0.036 C 
ATOM      6  C   UNL     1      36.897 -26.328 -15.183  0.00  0.00    +0.134 C 
ENDROOT
BRANCH   6   7
ATOM      7  O   UNL     1      36.876 -27.236 -16.196  0.00  0.00    -0.506 OA
ATOM      8  H   UNL     1      37.226 -28.095 -16.063  0.00  0.00    +0.292 HD
ENDBRANCH   6   7
BRANCH   1   9
ATOM      9  C   UNL     1      36.961 -23.470 -11.997  0.00  0.00    +0.225 C 
BRANCH   9  10
ATOM     10  O   UNL     1      38.316 -23.151 -11.652  0.00  0.00    -0.368 OA
ATOM     11  H   UNL     1      38.458 -22.195 -11.750  0.00  0.00    +0.212 HD
ENDBRANCH   9  10
BRANCH   9  13
ATOM     12  N   UNL     1      35.697 -24.328  -9.847  0.00  0.00    -0.193 NA
ATOM     13  C   UNL     1      36.250 -23.946 -10.793  0.00  0.00    +0.107 C 
ENDBRANCH   9  13
ENDBRANCH   1   9
TORSDOF 4
ENDMDL
MODEL 5
REMARK VINA RESULT:      -6.3      2.639      4.974
REMARK  Name = 440104
REMARK  4 active torsions:
REMARK  status: ('A' for Active; 'I' for Inactive)
REMARK    1  A    between atoms: C_1  and  C_9
REMARK    2  A    between atoms: C_6  and  O_7
REMARK    3  A    between atoms: C_9  and  O_10
REMARK    4  A    between atoms: C_9  and  C_13
REMARK                            x       y       z     vdW  Elec       q    Type
REMARK                         _______ _______ _______ _____ _____    ______ ____
ROOT
ATOM      1  C   UNL     1      34.792 -18.516 -22.209  0.00  0.00    +0.019 C 
ATOM      2  C   UNL     1      34.632 -19.263 -23.377  0.00  0.00    +0.002 C 
ATOM      3  C   UNL     1      34.953 -17.133 -22.283  0.00  0.00    +0.002 C 
ATOM      4  C   UNL     1      34.632 -18.626 -24.617  0.00  0.00    +0.036 C 
ATOM      5  C   UNL     1      34.953 -16.496 -23.524  0.00  0.00    +0.036 C 
ATOM      6  C   UNL     1      34.793 -17.242 -24.691  0.00  0.00    +0.134 C 
ENDROOT
BRANCH   6   7
ATOM      7  O   UNL     1      34.794 -16.621 -25.903  0.00  0.00    -0.506 OA
ATOM      8  H   UNL     1      35.169 -15.768 -25.991  0.00  0.00    +0.292 HD
ENDBRANCH   6   7
BRANCH   1   9
ATOM      9  C   UNL     1      34.792 -19.197 -20.883  0.00  0.00    +0.225 C 
BRANCH   9  10
ATOM     10  O   UNL     1      35.956 -20.026 -20.758  0.00  0.00    -0.368 OA
ATOM     11  H   UNL     1      35.835 -20.834 -21.281  0.00  0.00    +0.212 HD
ENDBRANCH   9  10
BRANCH   9  13
ATOM     12  N   UNL     1      32.635 -20.662 -20.485  0.00  0.00    -0.193 NA
ATOM     13  C   UNL     1      33.583 -20.017 -20.666  0.00  0.00    +0.107 C 
ENDBRANCH   9  13
ENDBRANCH   1   9
TORSDOF 4
ENDMDL
MODEL 6
REMARK VINA RESULT:      -6.1      8.023      8.883
REMARK  Name = 440104
REMARK  4 active torsions:
REMARK  status: ('A' for Active; 'I' for Inactive)
REMARK    1  A    between atoms: C_1  and  C_9
REMARK    2  A    between atoms: C_6  and  O_7
REMARK    3  A    between atoms: C_9  and  O_10
REMARK    4  A    between atoms: C_9  and  C_13
REMARK                            x       y       z     vdW  Elec       q    Type
REMARK                         _______ _______ _______ _____ _____    ______ ____
ROOT
ATOM      1  C   UNL     1      30.195 -23.266 -15.379  0.00  0.00    +0.019 C 
ATOM      2  C   UNL     1      29.891 -24.254 -14.442  0.00  0.00    +0.002 C 
ATOM      3  C   UNL     1      31.518 -22.863 -15.561  0.00  0.00    +0.002 C 
ATOM      4  C   UNL     1      30.908 -24.838 -13.688  0.00  0.00    +0.036 C 
ATOM      5  C   UNL     1      32.536 -23.446 -14.806  0.00  0.00    +0.036 C 
ATOM      6  C   UNL     1      32.231 -24.433 -13.869  0.00  0.00    +0.134 C 
ENDROOT
BRANCH   6   7
ATOM      7  O   UNL     1      33.223 -25.003 -13.132  0.00  0.00    -0.506 OA
ATOM      8  H   UNL     1      34.117 -24.901 -13.393  0.00  0.00    +0.292 HD
ENDBRANCH   6   7
BRANCH   1   9
ATOM      9  C   UNL     1      29.108 -22.643 -16.185  0.00  0.00    +0.225 C 
BRANCH   9  10
ATOM     10  O   UNL     1      28.252 -21.867 -15.336  0.00  0.00    -0.368 OA
ATOM     11  H   UNL     1      28.724 -21.071 -15.041  0.00  0.00    +0.212 HD
ENDBRANCH   9  10
BRANCH   9  13
ATOM     12  N   UNL     1      27.671 -24.426 -17.495  0.00  0.00    -0.193 NA
ATOM     13  C   UNL     1      28.299 -23.640 -16.915  0.00  0.00    +0.107 C 
ENDBRANCH   9  13
ENDBRANCH   1   9
TORSDOF 4
ENDMDL
MODEL 7
REMARK VINA RESULT:      -5.9      3.529      5.908
REMARK  Name = 440104
REMARK  4 active torsions:
REMARK  status: ('A' for Active; 'I' for Inactive)
REMARK    1  A    between atoms: C_1  and  C_9
REMARK    2  A    between atoms: C_6  and  O_7
REMARK    3  A    between atoms: C_9  and  O_10
REMARK    4  A    between atoms: C_9  and  C_13
REMARK                            x       y       z     vdW  Elec       q    Type
REMARK                         _______ _______ _______ _____ _____    ______ ____
ROOT
ATOM      1  C   UNL     1      34.251 -16.329 -22.643  0.00  0.00    +0.019 C 
ATOM      2  C   UNL     1      33.598 -15.145 -22.986  0.00  0.00    +0.002 C 
ATOM      3  C   UNL     1      34.704 -17.190 -23.642  0.00  0.00    +0.002 C 
ATOM      4  C   UNL     1      33.399 -14.822 -24.328  0.00  0.00    +0.036 C 
ATOM      5  C   UNL     1      34.504 -16.867 -24.985  0.00  0.00    +0.036 C 
ATOM      6  C   UNL     1      33.851 -15.684 -25.328  0.00  0.00    +0.134 C 
ENDROOT
BRANCH   6   7
ATOM      7  O   UNL     1      33.656 -15.368 -26.637  0.00  0.00    -0.506 OA
ATOM      8  H   UNL     1      33.033 -15.849 -27.147  0.00  0.00    +0.292 HD
ENDBRANCH   6   7
BRANCH   1   9
ATOM      9  C   UNL     1      34.465 -16.673 -21.209  0.00  0.00    +0.225 C 
BRANCH   9  10
ATOM     10  O   UNL     1      34.962 -15.530 -20.499  0.00  0.00    -0.368 OA
ATOM     11  H   UNL     1      34.261 -15.175 -19.927  0.00  0.00    +0.212 HD
ENDBRANCH   9  10
BRANCH   9  13
ATOM     12  N   UNL     1      36.132 -18.690 -20.877  0.00  0.00    -0.193 NA
ATOM     13  C   UNL     1      35.398 -17.803 -21.029  0.00  0.00    +0.107 C 
ENDBRANCH   9  13
ENDBRANCH   1   9
TORSDOF 4
ENDMDL
MODEL 8
REMARK VINA RESULT:      -5.9      3.632      4.940
REMARK  Name = 440104
REMARK  4 active torsions:
REMARK  status: ('A' for Active; 'I' for Inactive)
REMARK    1  A    between atoms: C_1  and  C_9
REMARK    2  A    between atoms: C_6  and  O_7
REMARK    3  A    between atoms: C_9  and  O_10
REMARK    4  A    between atoms: C_9  and  C_13
REMARK                            x       y       z     vdW  Elec       q    Type
REMARK                         _______ _______ _______ _____ _____    ______ ____
ROOT
ATOM      1  C   UNL     1      34.292 -15.494 -23.201  0.00  0.00    +0.019 C 
ATOM      2  C   UNL     1      34.867 -16.667 -23.691  0.00  0.00    +0.002 C 
ATOM      3  C   UNL     1      34.226 -15.272 -21.826  0.00  0.00    +0.002 C 
ATOM      4  C   UNL     1      35.376 -17.616 -22.807  0.00  0.00    +0.036 C 
ATOM      5  C   UNL     1      34.735 -16.223 -20.940  0.00  0.00    +0.036 C 
ATOM      6  C   UNL     1      35.309 -17.395 -21.431  0.00  0.00    +0.134 C 
ENDROOT
BRANCH   6   7
ATOM      7  O   UNL     1      35.806 -18.323 -20.568  0.00  0.00    -0.506 OA
ATOM      8  H   UNL     1      36.023 -18.078 -19.690  0.00  0.00    +0.292 HD
ENDBRANCH   6   7
BRANCH   1   9
ATOM      9  C   UNL     1      33.749 -14.478 -24.147  0.00  0.00    +0.225 C 
BRANCH   9  10
ATOM     10  O   UNL     1      32.563 -13.884 -23.600  0.00  0.00    -0.368 OA
ATOM     11  H   UNL     1      32.644 -12.917 -23.628  0.00  0.00    +0.212 HD
ENDBRANCH   9  10
BRANCH   9  13
ATOM     12  N   UNL     1      33.205 -15.482 -26.525  0.00  0.00    -0.193 NA
ATOM     13  C   UNL     1      33.443 -15.045 -25.476  0.00  0.00    +0.107 C 
ENDBRANCH   9  13
ENDBRANCH   1   9
TORSDOF 4
ENDMDL
MODEL 9
REMARK VINA RESULT:      -5.9      2.410      4.680
REMARK  Name = 440104
REMARK  4 active torsions:
REMARK  status: ('A' for Active; 'I' for Inactive)
REMARK    1  A    between atoms: C_1  and  C_9
REMARK    2  A    between atoms: C_6  and  O_7
REMARK    3  A    between atoms: C_9  and  O_10
REMARK    4  A    between atoms: C_9  and  C_13
REMARK                            x       y       z     vdW  Elec       q    Type
REMARK                         _______ _______ _______ _____ _____    ______ ____
ROOT
ATOM      1  C   UNL     1      34.180 -19.271 -21.512  0.00  0.00    +0.019 C 
ATOM      2  C   UNL     1      34.837 -19.452 -22.729  0.00  0.00    +0.002 C 
ATOM      3  C   UNL     1      34.008 -17.986 -20.998  0.00  0.00    +0.002 C 
ATOM      4  C   UNL     1      35.320 -18.350 -23.432  0.00  0.00    +0.036 C 
ATOM      5  C   UNL     1      34.493 -16.883 -21.700  0.00  0.00    +0.036 C 
ATOM      6  C   UNL     1      35.150 -17.064 -22.917  0.00  0.00    +0.134 C 
ENDROOT
BRANCH   6   7
ATOM      7  O   UNL     1      35.623 -15.988 -23.603  0.00  0.00    -0.506 OA
ATOM      8  H   UNL     1      35.057 -15.514 -24.179  0.00  0.00    +0.292 HD
ENDBRANCH   6   7
BRANCH   1   9
ATOM      9  C   UNL     1      33.662 -20.450 -20.762  0.00  0.00    +0.225 C 
BRANCH   9  10
ATOM     10  O   UNL     1      32.508 -20.075 -19.997  0.00  0.00    -0.368 OA
ATOM     11  H   UNL     1      32.099 -20.870 -19.617  0.00  0.00    +0.212 HD
ENDBRANCH   9  10
BRANCH   9  13
ATOM     12  N   UNL     1      35.476 -21.503 -19.162  0.00  0.00    -0.193 NA
ATOM     13  C   UNL     1      34.673 -21.040 -19.862  0.00  0.00    +0.107 C 
ENDBRANCH   9  13
ENDBRANCH   1   9
TORSDOF 4
ENDMDL
