MODEL 1
REMARK VINA RESULT:      -9.5      0.000      0.000
REMARK  Name = 46937059
REMARK  6 active torsions:
REMARK  status: ('A' for Active; 'I' for Inactive)
REMARK    1  A    between atoms: N_1  and  C_6
REMARK    2  A    between atoms: N_1  and  O_15
REMARK    3  A    between atoms: O_15  and  C_16
REMARK    4  A    between atoms: C_16  and  C_17
REMARK    5  A    between atoms: C_17  and  C_20
REMARK    6  A    between atoms: C_20  and  O_21
REMARK                            x       y       z     vdW  Elec       q    Type
REMARK                         _______ _______ _______ _____ _____    ______ ____
ROOT
ATOM      1  C   UNL     1      33.756 -23.156 -16.387  0.00  0.00    -0.002 C 
ATOM      2  C   UNL     1      34.537 -22.571 -17.457  0.00  0.00    -0.016 C 
ATOM      3  C   UNL     1      35.866 -22.410 -17.026  0.00  0.00    +0.016 C 
ATOM      4  C   UNL     1      34.586 -23.368 -15.273  0.00  0.00    +0.020 C 
ATOM      5  C   UNL     1      35.934 -22.906 -15.640  0.00  0.00    +0.107 C 
ATOM      6  C   UNL     1      34.177 -22.184 -18.737  0.00  0.00    +0.052 C 
ATOM      7  C   UNL     1      32.418 -23.504 -16.321  0.00  0.00    -0.000 C 
ATOM      8  C   UNL     1      34.135 -23.916 -14.089  0.00  0.00    +0.002 C 
ATOM      9  C   UNL     1      36.855 -21.873 -17.826  0.00  0.00    +0.001 C 
ATOM     10  C   UNL     1      35.164 -21.638 -19.565  0.00  0.00    -0.021 C 
ATOM     11  C   UNL     1      31.936 -24.063 -15.130  0.00  0.00    -0.000 C 
ATOM     12  C   UNL     1      36.489 -21.485 -19.115  0.00  0.00    -0.004 C 
ATOM     13  C   UNL     1      32.787 -24.266 -14.027  0.00  0.00    +0.000 C 
ENDROOT
BRANCH   5  14
ATOM     14  N   UNL     1      36.965 -22.942 -14.871  0.00  0.00    -0.131 NA
BRANCH  14  15
ATOM     15  O   UNL     1      37.894 -23.841 -15.414  0.00  0.00    -0.236 OA
BRANCH  15  16
ATOM     16  C   UNL     1      37.511 -25.155 -15.039  0.00  0.00    +0.187 C 
BRANCH  16  17
ATOM     17  C   UNL     1      38.656 -25.817 -14.269  0.00  0.00    +0.131 C 
ATOM     18  C   UNL     1      38.576 -25.474 -12.786  0.00  0.00    +0.014 C 
BRANCH  17  20
ATOM     19  O   UNL     1      40.830 -24.710 -14.191  0.00  0.00    -0.250 OA
ATOM     20  C   UNL     1      40.007 -25.373 -14.810  0.00  0.00    +0.316 C 
BRANCH  20  21
ATOM     21  O   UNL     1      40.217 -25.806 -16.081  0.00  0.00    -0.480 OA
ATOM     22  H   UNL     1      39.757 -26.557 -16.401  0.00  0.00    +0.295 HD
ENDBRANCH  20  21
ENDBRANCH  17  20
ENDBRANCH  16  17
ENDBRANCH  15  16
ENDBRANCH  14  15
ENDBRANCH   5  14
TORSDOF 6
ENDMDL
MODEL 2
REMARK VINA RESULT:      -9.5      0.075      3.482
REMARK  Name = 46937059
REMARK  6 active torsions:
REMARK  status: ('A' for Active; 'I' for Inactive)
REMARK    1  A    between atoms: N_1  and  C_6
REMARK    2  A    between atoms: N_1  and  O_15
REMARK    3  A    between atoms: O_15  and  C_16
REMARK    4  A    between atoms: C_16  and  C_17
REMARK    5  A    between atoms: C_17  and  C_20
REMARK    6  A    between atoms: C_20  and  O_21
REMARK                            x       y       z     vdW  Elec       q    Type
REMARK                         _______ _______ _______ _____ _____    ______ ____
ROOT
ATOM      1  C   UNL     1      34.511 -22.602 -17.384  0.00  0.00    -0.002 C 
ATOM      2  C   UNL     1      33.741 -23.188 -16.307  0.00  0.00    -0.016 C 
ATOM      3  C   UNL     1      34.581 -23.401 -15.199  0.00  0.00    +0.016 C 
ATOM      4  C   UNL     1      35.843 -22.439 -16.963  0.00  0.00    +0.020 C 
ATOM      5  C   UNL     1      35.926 -22.936 -15.580  0.00  0.00    +0.107 C 
ATOM      6  C   UNL     1      32.403 -23.537 -16.233  0.00  0.00    +0.052 C 
ATOM      7  C   UNL     1      34.144 -22.214 -18.661  0.00  0.00    -0.000 C 
ATOM      8  C   UNL     1      36.828 -21.903 -17.767  0.00  0.00    +0.002 C 
ATOM      9  C   UNL     1      34.135 -23.951 -14.014  0.00  0.00    +0.001 C 
ATOM     10  C   UNL     1      31.930 -24.096 -15.040  0.00  0.00    -0.021 C 
ATOM     11  C   UNL     1      35.126 -21.665 -19.495  0.00  0.00    -0.000 C 
ATOM     12  C   UNL     1      32.787 -24.301 -13.943  0.00  0.00    -0.004 C 
ATOM     13  C   UNL     1      36.453 -21.512 -19.052  0.00  0.00    +0.000 C 
ENDROOT
BRANCH   5  14
ATOM     14  N   UNL     1      36.993 -22.948 -14.860  0.00  0.00    -0.131 NA
BRANCH  14  15
ATOM     15  O   UNL     1      37.903 -23.850 -15.430  0.00  0.00    -0.236 OA
BRANCH  15  16
ATOM     16  C   UNL     1      37.541 -25.161 -15.023  0.00  0.00    +0.187 C 
BRANCH  16  17
ATOM     17  C   UNL     1      38.694 -25.783 -14.232  0.00  0.00    +0.131 C 
ATOM     18  C   UNL     1      38.629 -25.362 -12.767  0.00  0.00    +0.014 C 
BRANCH  17  20
ATOM     19  O   UNL     1      40.891 -24.719 -14.215  0.00  0.00    -0.250 OA
ATOM     20  C   UNL     1      40.040 -25.369 -14.809  0.00  0.00    +0.316 C 
BRANCH  20  21
ATOM     21  O   UNL     1      40.209 -25.814 -16.081  0.00  0.00    -0.480 OA
ATOM     22  H   UNL     1      40.022 -25.249 -16.804  0.00  0.00    +0.295 HD
ENDBRANCH  20  21
ENDBRANCH  17  20
ENDBRANCH  16  17
ENDBRANCH  15  16
ENDBRANCH  14  15
ENDBRANCH   5  14
TORSDOF 6
ENDMDL
MODEL 3
REMARK VINA RESULT:      -9.3      1.404      3.815
REMARK  Name = 46937059
REMARK  6 active torsions:
REMARK  status: ('A' for Active; 'I' for Inactive)
REMARK    1  A    between atoms: N_1  and  C_6
REMARK    2  A    between atoms: N_1  and  O_15
REMARK    3  A    between atoms: O_15  and  C_16
REMARK    4  A    between atoms: C_16  and  C_17
REMARK    5  A    between atoms: C_17  and  C_20
REMARK    6  A    between atoms: C_20  and  O_21
REMARK                            x       y       z     vdW  Elec       q    Type
REMARK                         _______ _______ _______ _____ _____    ______ ____
ROOT
ATOM      1  C   UNL     1      34.311 -22.422 -17.950  0.00  0.00    -0.002 C 
ATOM      2  C   UNL     1      33.555 -22.990 -16.853  0.00  0.00    -0.016 C 
ATOM      3  C   UNL     1      34.403 -23.159 -15.744  0.00  0.00    +0.016 C 
ATOM      4  C   UNL     1      35.642 -22.228 -17.540  0.00  0.00    +0.020 C 
ATOM      5  C   UNL     1      35.740 -22.685 -16.145  0.00  0.00    +0.107 C 
ATOM      6  C   UNL     1      32.223 -23.357 -16.762  0.00  0.00    +0.052 C 
ATOM      7  C   UNL     1      33.931 -22.075 -19.235  0.00  0.00    -0.000 C 
ATOM      8  C   UNL     1      36.615 -21.699 -18.364  0.00  0.00    +0.002 C 
ATOM      9  C   UNL     1      33.972 -23.683 -14.541  0.00  0.00    +0.001 C 
ATOM     10  C   UNL     1      31.764 -23.890 -15.552  0.00  0.00    -0.021 C 
ATOM     11  C   UNL     1      34.901 -21.535 -20.089  0.00  0.00    -0.000 C 
ATOM     12  C   UNL     1      32.629 -24.051 -14.454  0.00  0.00    -0.004 C 
ATOM     13  C   UNL     1      36.228 -21.350 -19.658  0.00  0.00    +0.000 C 
ENDROOT
BRANCH   5  14
ATOM     14  N   UNL     1      36.809 -22.662 -15.431  0.00  0.00    -0.131 NA
BRANCH  14  15
ATOM     15  O   UNL     1      37.321 -23.964 -15.353  0.00  0.00    -0.236 OA
BRANCH  15  16
ATOM     16  C   UNL     1      37.522 -24.282 -13.984  0.00  0.00    +0.187 C 
BRANCH  16  17
ATOM     17  C   UNL     1      36.922 -25.658 -13.689  0.00  0.00    +0.131 C 
ATOM     18  C   UNL     1      37.436 -26.194 -12.356  0.00  0.00    +0.014 C 
BRANCH  17  20
ATOM     19  O   UNL     1      38.267 -27.356 -14.815  0.00  0.00    -0.250 OA
ATOM     20  C   UNL     1      37.266 -26.652 -14.789  0.00  0.00    +0.316 C 
BRANCH  20  21
ATOM     21  O   UNL     1      36.316 -26.685 -15.761  0.00  0.00    -0.480 OA
ATOM     22  H   UNL     1      36.378 -27.312 -16.455  0.00  0.00    +0.295 HD
ENDBRANCH  20  21
ENDBRANCH  17  20
ENDBRANCH  16  17
ENDBRANCH  15  16
ENDBRANCH  14  15
ENDBRANCH   5  14
TORSDOF 6
ENDMDL
MODEL 4
REMARK VINA RESULT:      -9.2      1.380      1.767
REMARK  Name = 46937059
REMARK  6 active torsions:
REMARK  status: ('A' for Active; 'I' for Inactive)
REMARK    1  A    between atoms: N_1  and  C_6
REMARK    2  A    between atoms: N_1  and  O_15
REMARK    3  A    between atoms: O_15  and  C_16
REMARK    4  A    between atoms: C_16  and  C_17
REMARK    5  A    between atoms: C_17  and  C_20
REMARK    6  A    between atoms: C_20  and  O_21
REMARK                            x       y       z     vdW  Elec       q    Type
REMARK                         _______ _______ _______ _____ _____    ______ ____
ROOT
ATOM      1  C   UNL     1      33.201 -23.114 -16.620  0.00  0.00    -0.002 C 
ATOM      2  C   UNL     1      33.947 -22.522 -17.711  0.00  0.00    -0.016 C 
ATOM      3  C   UNL     1      35.305 -22.441 -17.354  0.00  0.00    +0.016 C 
ATOM      4  C   UNL     1      34.084 -23.412 -15.567  0.00  0.00    +0.020 C 
ATOM      5  C   UNL     1      35.429 -22.998 -15.996  0.00  0.00    +0.107 C 
ATOM      6  C   UNL     1      33.533 -22.064 -18.950  0.00  0.00    +0.052 C 
ATOM      7  C   UNL     1      31.854 -23.401 -16.487  0.00  0.00    -0.000 C 
ATOM      8  C   UNL     1      33.676 -23.988 -14.380  0.00  0.00    +0.002 C 
ATOM      9  C   UNL     1      36.271 -21.918 -18.191  0.00  0.00    +0.001 C 
ATOM     10  C   UNL     1      34.496 -21.530 -19.815  0.00  0.00    -0.021 C 
ATOM     11  C   UNL     1      31.415 -23.987 -15.293  0.00  0.00    -0.000 C 
ATOM     12  C   UNL     1      35.850 -21.459 -19.439  0.00  0.00    -0.004 C 
ATOM     13  C   UNL     1      32.317 -24.276 -14.251  0.00  0.00    +0.000 C 
ENDROOT
BRANCH   5  14
ATOM     14  N   UNL     1      36.500 -23.115 -15.292  0.00  0.00    -0.131 NA
BRANCH  14  15
ATOM     15  O   UNL     1      36.935 -24.446 -15.362  0.00  0.00    -0.236 OA
BRANCH  15  16
ATOM     16  C   UNL     1      38.263 -24.506 -14.865  0.00  0.00    +0.187 C 
BRANCH  16  17
ATOM     17  C   UNL     1      38.275 -25.263 -13.535  0.00  0.00    +0.131 C 
ATOM     18  C   UNL     1      37.260 -26.402 -13.557  0.00  0.00    +0.014 C 
BRANCH  17  20
ATOM     19  O   UNL     1      37.782 -24.689 -11.215  0.00  0.00    -0.250 OA
ATOM     20  C   UNL     1      37.955 -24.334 -12.373  0.00  0.00    +0.316 C 
BRANCH  20  21
ATOM     21  O   UNL     1      37.889 -23.034 -12.763  0.00  0.00    -0.480 OA
ATOM     22  H   UNL     1      37.428 -22.410 -12.238  0.00  0.00    +0.295 HD
ENDBRANCH  20  21
ENDBRANCH  17  20
ENDBRANCH  16  17
ENDBRANCH  15  16
ENDBRANCH  14  15
ENDBRANCH   5  14
TORSDOF 6
ENDMDL
MODEL 5
REMARK VINA RESULT:      -9.0      1.700      4.109
REMARK  Name = 46937059
REMARK  6 active torsions:
REMARK  status: ('A' for Active; 'I' for Inactive)
REMARK    1  A    between atoms: N_1  and  C_6
REMARK    2  A    between atoms: N_1  and  O_15
REMARK    3  A    between atoms: O_15  and  C_16
REMARK    4  A    between atoms: C_16  and  C_17
REMARK    5  A    between atoms: C_17  and  C_20
REMARK    6  A    between atoms: C_20  and  O_21
REMARK                            x       y       z     vdW  Elec       q    Type
REMARK                         _______ _______ _______ _____ _____    ______ ____
ROOT
ATOM      1  C   UNL     1      33.685 -22.866 -17.129  0.00  0.00    -0.002 C 
ATOM      2  C   UNL     1      32.746 -23.387 -16.158  0.00  0.00    -0.016 C 
ATOM      3  C   UNL     1      33.416 -23.622 -14.944  0.00  0.00    +0.016 C 
ATOM      4  C   UNL     1      34.956 -22.769 -16.535  0.00  0.00    +0.020 C 
ATOM      5  C   UNL     1      34.825 -23.241 -15.147  0.00  0.00    +0.107 C 
ATOM      6  C   UNL     1      31.392 -23.659 -16.259  0.00  0.00    +0.052 C 
ATOM      7  C   UNL     1      33.514 -22.484 -18.448  0.00  0.00    -0.000 C 
ATOM      8  C   UNL     1      36.069 -22.305 -17.206  0.00  0.00    +0.002 C 
ATOM      9  C   UNL     1      32.785 -24.123 -13.822  0.00  0.00    +0.001 C 
ATOM     10  C   UNL     1      30.732 -24.166 -15.134  0.00  0.00    -0.021 C 
ATOM     11  C   UNL     1      34.629 -22.008 -19.150  0.00  0.00    -0.000 C 
ATOM     12  C   UNL     1      31.422 -24.395 -13.929  0.00  0.00    -0.004 C 
ATOM     13  C   UNL     1      35.892 -21.920 -18.535  0.00  0.00    +0.000 C 
ENDROOT
BRANCH   5  14
ATOM     14  N   UNL     1      35.784 -23.298 -14.291  0.00  0.00    -0.131 NA
BRANCH  14  15
ATOM     15  O   UNL     1      36.458 -24.515 -14.459  0.00  0.00    -0.236 OA
BRANCH  15  16
ATOM     16  C   UNL     1      37.829 -24.309 -14.155  0.00  0.00    +0.187 C 
BRANCH  16  17
ATOM     17  C   UNL     1      38.146 -24.929 -12.792  0.00  0.00    +0.131 C 
ATOM     18  C   UNL     1      37.378 -26.232 -12.603  0.00  0.00    +0.014 C 
BRANCH  17  20
ATOM     19  O   UNL     1      36.969 -24.197 -10.783  0.00  0.00    -0.250 OA
ATOM     20  C   UNL     1      37.792 -23.974 -11.661  0.00  0.00    +0.316 C 
BRANCH  20  21
ATOM     21  O   UNL     1      38.509 -22.821 -11.722  0.00  0.00    -0.480 OA
ATOM     22  H   UNL     1      39.440 -22.843 -11.623  0.00  0.00    +0.295 HD
ENDBRANCH  20  21
ENDBRANCH  17  20
ENDBRANCH  16  17
ENDBRANCH  15  16
ENDBRANCH  14  15
ENDBRANCH   5  14
TORSDOF 6
ENDMDL
MODEL 6
REMARK VINA RESULT:      -8.9      7.078     10.058
REMARK  Name = 46937059
REMARK  6 active torsions:
REMARK  status: ('A' for Active; 'I' for Inactive)
REMARK    1  A    between atoms: N_1  and  C_6
REMARK    2  A    between atoms: N_1  and  O_15
REMARK    3  A    between atoms: O_15  and  C_16
REMARK    4  A    between atoms: C_16  and  C_17
REMARK    5  A    between atoms: C_17  and  C_20
REMARK    6  A    between atoms: C_20  and  O_21
REMARK                            x       y       z     vdW  Elec       q    Type
REMARK                         _______ _______ _______ _____ _____    ______ ____
ROOT
ATOM      1  C   UNL     1      33.530 -15.209 -23.776  0.00  0.00    -0.002 C 
ATOM      2  C   UNL     1      33.011 -14.373 -22.713  0.00  0.00    -0.016 C 
ATOM      3  C   UNL     1      33.434 -14.884 -21.473  0.00  0.00    +0.016 C 
ATOM      4  C   UNL     1      34.285 -16.253 -23.213  0.00  0.00    +0.020 C 
ATOM      5  C   UNL     1      34.247 -16.081 -21.753  0.00  0.00    +0.107 C 
ATOM      6  C   UNL     1      32.221 -13.236 -22.756  0.00  0.00    +0.052 C 
ATOM      7  C   UNL     1      33.394 -15.124 -25.150  0.00  0.00    -0.000 C 
ATOM      8  C   UNL     1      34.913 -17.222 -23.970  0.00  0.00    +0.002 C 
ATOM      9  C   UNL     1      33.097 -14.301 -20.267  0.00  0.00    +0.001 C 
ATOM     10  C   UNL     1      31.868 -12.629 -21.545  0.00  0.00    -0.021 C 
ATOM     11  C   UNL     1      34.024 -16.095 -25.940  0.00  0.00    -0.000 C 
ATOM     12  C   UNL     1      32.302 -13.156 -20.314  0.00  0.00    -0.004 C 
ATOM     13  C   UNL     1      34.775 -17.132 -25.354  0.00  0.00    +0.000 C 
ENDROOT
BRANCH   5  14
ATOM     14  N   UNL     1      34.827 -16.850 -20.900  0.00  0.00    -0.131 NA
BRANCH  14  15
ATOM     15  O   UNL     1      34.228 -18.116 -20.963  0.00  0.00    -0.236 OA
BRANCH  15  16
ATOM     16  C   UNL     1      35.255 -19.095 -20.914  0.00  0.00    +0.187 C 
BRANCH  16  17
ATOM     17  C   UNL     1      34.629 -20.475 -20.697  0.00  0.00    +0.131 C 
ATOM     18  C   UNL     1      33.180 -20.343 -20.244  0.00  0.00    +0.014 C 
BRANCH  17  20
ATOM     19  O   UNL     1      35.136 -22.408 -19.295  0.00  0.00    -0.250 OA
ATOM     20  C   UNL     1      35.405 -21.270 -19.656  0.00  0.00    +0.316 C 
BRANCH  20  21
ATOM     21  O   UNL     1      36.461 -20.571 -19.163  0.00  0.00    -0.480 OA
ATOM     22  H   UNL     1      36.717 -19.763 -19.564  0.00  0.00    +0.295 HD
ENDBRANCH  20  21
ENDBRANCH  17  20
ENDBRANCH  16  17
ENDBRANCH  15  16
ENDBRANCH  14  15
ENDBRANCH   5  14
TORSDOF 6
ENDMDL
MODEL 7
REMARK VINA RESULT:      -8.9      6.960      9.629
REMARK  Name = 46937059
REMARK  6 active torsions:
REMARK  status: ('A' for Active; 'I' for Inactive)
REMARK    1  A    between atoms: N_1  and  C_6
REMARK    2  A    between atoms: N_1  and  O_15
REMARK    3  A    between atoms: O_15  and  C_16
REMARK    4  A    between atoms: C_16  and  C_17
REMARK    5  A    between atoms: C_17  and  C_20
REMARK    6  A    between atoms: C_20  and  O_21
REMARK                            x       y       z     vdW  Elec       q    Type
REMARK                         _______ _______ _______ _____ _____    ______ ____
ROOT
ATOM      1  C   UNL     1      33.062 -14.488 -22.654  0.00  0.00    -0.002 C 
ATOM      2  C   UNL     1      33.581 -15.313 -23.724  0.00  0.00    -0.016 C 
ATOM      3  C   UNL     1      34.325 -16.373 -23.175  0.00  0.00    +0.016 C 
ATOM      4  C   UNL     1      33.476 -15.021 -21.420  0.00  0.00    +0.020 C 
ATOM      5  C   UNL     1      34.280 -16.219 -21.710  0.00  0.00    +0.107 C 
ATOM      6  C   UNL     1      33.451 -15.204 -25.099  0.00  0.00    +0.052 C 
ATOM      7  C   UNL     1      32.283 -13.345 -22.680  0.00  0.00    -0.000 C 
ATOM      8  C   UNL     1      33.141 -14.458 -20.205  0.00  0.00    +0.002 C 
ATOM      9  C   UNL     1      34.948 -17.332 -23.948  0.00  0.00    +0.001 C 
ATOM     10  C   UNL     1      34.074 -16.167 -25.901  0.00  0.00    -0.021 C 
ATOM     11  C   UNL     1      31.929 -12.755 -21.459  0.00  0.00    -0.000 C 
ATOM     12  C   UNL     1      34.815 -17.220 -25.331  0.00  0.00    -0.004 C 
ATOM     13  C   UNL     1      32.355 -13.307 -20.236  0.00  0.00    +0.000 C 
ENDROOT
BRANCH   5  14
ATOM     14  N   UNL     1      34.830 -16.974 -20.826  0.00  0.00    -0.131 NA
BRANCH  14  15
ATOM     15  O   UNL     1      34.213 -18.232 -20.870  0.00  0.00    -0.236 OA
BRANCH  15  16
ATOM     16  C   UNL     1      35.229 -19.222 -20.938  0.00  0.00    +0.187 C 
BRANCH  16  17
ATOM     17  C   UNL     1      34.627 -20.591 -20.611  0.00  0.00    +0.131 C 
ATOM     18  C   UNL     1      33.188 -20.443 -20.128  0.00  0.00    +0.014 C 
BRANCH  17  20
ATOM     19  O   UNL     1      35.183 -22.409 -19.080  0.00  0.00    -0.250 OA
ATOM     20  C   UNL     1      35.440 -21.304 -19.541  0.00  0.00    +0.316 C 
BRANCH  20  21
ATOM     21  O   UNL     1      36.516 -20.574 -19.145  0.00  0.00    -0.480 OA
ATOM     22  H   UNL     1      36.916 -20.742 -18.315  0.00  0.00    +0.295 HD
ENDBRANCH  20  21
ENDBRANCH  17  20
ENDBRANCH  16  17
ENDBRANCH  15  16
ENDBRANCH  14  15
ENDBRANCH   5  14
TORSDOF 6
ENDMDL
MODEL 8
REMARK VINA RESULT:      -8.7      3.179      5.952
REMARK  Name = 46937059
REMARK  6 active torsions:
REMARK  status: ('A' for Active; 'I' for Inactive)
REMARK    1  A    between atoms: N_1  and  C_6
REMARK    2  A    between atoms: N_1  and  O_15
REMARK    3  A    between atoms: O_15  and  C_16
REMARK    4  A    between atoms: C_16  and  C_17
REMARK    5  A    between atoms: C_17  and  C_20
REMARK    6  A    between atoms: C_20  and  O_21
REMARK                            x       y       z     vdW  Elec       q    Type
REMARK                         _______ _______ _______ _____ _____    ______ ____
ROOT
ATOM      1  C   UNL     1      32.630 -23.465 -14.630  0.00  0.00    -0.002 C 
ATOM      2  C   UNL     1      34.003 -23.777 -14.294  0.00  0.00    -0.016 C 
ATOM      3  C   UNL     1      34.764 -23.856 -15.474  0.00  0.00    +0.016 C 
ATOM      4  C   UNL     1      32.514 -23.344 -16.027  0.00  0.00    +0.020 C 
ATOM      5  C   UNL     1      33.849 -23.586 -16.597  0.00  0.00    +0.107 C 
ATOM      6  C   UNL     1      34.612 -23.990 -13.068  0.00  0.00    +0.052 C 
ATOM      7  C   UNL     1      31.514 -23.285 -13.832  0.00  0.00    -0.000 C 
ATOM      8  C   UNL     1      31.325 -23.049 -16.662  0.00  0.00    +0.002 C 
ATOM      9  C   UNL     1      36.115 -24.141 -15.479  0.00  0.00    +0.001 C 
ATOM     10  C   UNL     1      35.981 -24.280 -13.050  0.00  0.00    -0.021 C 
ATOM     11  C   UNL     1      30.296 -22.984 -14.453  0.00  0.00    -0.000 C 
ATOM     12  C   UNL     1      36.724 -24.354 -14.243  0.00  0.00    -0.004 C 
ATOM     13  C   UNL     1      30.203 -22.868 -15.853  0.00  0.00    +0.000 C 
ENDROOT
BRANCH   5  14
ATOM     14  N   UNL     1      34.134 -23.559 -17.851  0.00  0.00    -0.131 NA
BRANCH  14  15
ATOM     15  O   UNL     1      34.414 -22.234 -18.215  0.00  0.00    -0.236 OA
BRANCH  15  16
ATOM     16  C   UNL     1      33.992 -22.044 -19.558  0.00  0.00    +0.187 C 
BRANCH  16  17
ATOM     17  C   UNL     1      33.954 -20.547 -19.871  0.00  0.00    +0.131 C 
ATOM     18  C   UNL     1      32.771 -20.216 -20.775  0.00  0.00    +0.014 C 
BRANCH  17  20
ATOM     19  O   UNL     1      35.315 -19.640 -21.682  0.00  0.00    -0.250 OA
ATOM     20  C   UNL     1      35.239 -20.097 -20.549  0.00  0.00    +0.316 C 
BRANCH  20  21
ATOM     21  O   UNL     1      36.323 -20.250 -19.743  0.00  0.00    -0.480 OA
ATOM     22  H   UNL     1      37.018 -19.622 -19.768  0.00  0.00    +0.295 HD
ENDBRANCH  20  21
ENDBRANCH  17  20
ENDBRANCH  16  17
ENDBRANCH  15  16
ENDBRANCH  14  15
ENDBRANCH   5  14
TORSDOF 6
ENDMDL
MODEL 9
REMARK VINA RESULT:      -8.7      8.692     11.613
REMARK  Name = 46937059
REMARK  6 active torsions:
REMARK  status: ('A' for Active; 'I' for Inactive)
REMARK    1  A    between atoms: N_1  and  C_6
REMARK    2  A    between atoms: N_1  and  O_15
REMARK    3  A    between atoms: O_15  and  C_16
REMARK    4  A    between atoms: C_16  and  C_17
REMARK    5  A    between atoms: C_17  and  C_20
REMARK    6  A    between atoms: C_20  and  O_21
REMARK                            x       y       z     vdW  Elec       q    Type
REMARK                         _______ _______ _______ _____ _____    ______ ____
ROOT
ATOM      1  C   UNL     1      32.837 -13.725 -23.894  0.00  0.00    -0.002 C 
ATOM      2  C   UNL     1      32.423 -13.000 -22.711  0.00  0.00    -0.016 C 
ATOM      3  C   UNL     1      32.623 -13.810 -21.578  0.00  0.00    +0.016 C 
ATOM      4  C   UNL     1      33.300 -14.997 -23.517  0.00  0.00    +0.020 C 
ATOM      5  C   UNL     1      33.180 -15.089 -22.053  0.00  0.00    +0.107 C 
ATOM      6  C   UNL     1      31.903 -11.726 -22.562  0.00  0.00    +0.052 C 
ATOM      7  C   UNL     1      32.836 -13.364 -25.230  0.00  0.00    -0.000 C 
ATOM      8  C   UNL     1      33.766 -15.930 -24.422  0.00  0.00    +0.002 C 
ATOM      9  C   UNL     1      32.322 -13.395 -20.296  0.00  0.00    +0.001 C 
ATOM     10  C   UNL     1      31.590 -11.284 -21.271  0.00  0.00    -0.021 C 
ATOM     11  C   UNL     1      33.305 -14.292 -26.168  0.00  0.00    -0.000 C 
ATOM     12  C   UNL     1      31.798 -12.110 -20.150  0.00  0.00    -0.004 C 
ATOM     13  C   UNL     1      33.765 -15.561 -25.767  0.00  0.00    +0.000 C 
ENDROOT
BRANCH   5  14
ATOM     14  N   UNL     1      33.510 -16.111 -21.345  0.00  0.00    -0.131 NA
BRANCH  14  15
ATOM     15  O   UNL     1      34.909 -16.170 -21.275  0.00  0.00    -0.236 OA
BRANCH  15  16
ATOM     16  C   UNL     1      35.278 -17.487 -20.894  0.00  0.00    +0.187 C 
BRANCH  16  17
ATOM     17  C   UNL     1      34.499 -18.498 -21.739  0.00  0.00    +0.131 C 
ATOM     18  C   UNL     1      34.291 -19.797 -20.969  0.00  0.00    +0.014 C 
BRANCH  17  20
ATOM     19  O   UNL     1      34.825 -19.555 -23.915  0.00  0.00    -0.250 OA
ATOM     20  C   UNL     1      35.231 -18.802 -23.039  0.00  0.00    +0.316 C 
BRANCH  20  21
ATOM     21  O   UNL     1      36.407 -18.128 -23.133  0.00  0.00    -0.480 OA
ATOM     22  H   UNL     1      37.131 -18.511 -23.587  0.00  0.00    +0.295 HD
ENDBRANCH  20  21
ENDBRANCH  17  20
ENDBRANCH  16  17
ENDBRANCH  15  16
ENDBRANCH  14  15
ENDBRANCH   5  14
TORSDOF 6
ENDMDL
