MODEL 1
REMARK VINA RESULT:      -9.5      0.000      0.000
REMARK  Name = 6456014
REMARK  6 active torsions:
REMARK  status: ('A' for Active; 'I' for Inactive)
REMARK    1  A    between atoms: C_10  and  O_24
REMARK    2  A    between atoms: C_10  and  C_26
REMARK    3  A    between atoms: C_13  and  C_28
REMARK    4  A    between atoms: C_28  and  C_29
REMARK    5  A    between atoms: C_29  and  N_30
REMARK    6  A    between atoms: N_30  and  C_33
REMARK                            x       y       z     vdW  Elec       q    Type
REMARK                         _______ _______ _______ _____ _____    ______ ____
ROOT
ATOM      1  O   UNL     1      35.550 -19.482 -23.536  0.00  0.00    -0.442 OA
ATOM      2  O   UNL     1      34.513 -15.976 -25.668  0.00  0.00    -0.270 OA
ATOM      3  O   UNL     1      36.044 -20.289 -21.500  0.00  0.00    -0.247 OA
ATOM      4  N   UNL     1      33.774 -14.951 -23.732  0.00  0.00    -0.249 N 
ATOM      5  N   UNL     1      32.581 -13.387 -20.720  0.00  0.00    -0.405 NA
ATOM      6  C   UNL     1      32.997 -12.880 -23.059  0.00  0.00    +0.022 C 
ATOM      7  C   UNL     1      33.472 -15.023 -22.382  0.00  0.00    +0.084 C 
ATOM      8  C   UNL     1      33.502 -13.601 -24.266  0.00  0.00    +0.127 C 
ATOM      9  C   UNL     1      34.152 -17.328 -22.365  0.00  0.00    +0.017 C 
ATOM     10  C   UNL     1      34.308 -18.614 -21.601  0.00  0.00    +0.196 C 
ATOM     11  C   UNL     1      32.980 -13.721 -21.955  0.00  0.00    +0.142 C 
ATOM     12  C   UNL     1      34.440 -17.289 -23.679  0.00  0.00    +0.074 C 
ATOM     13  C   UNL     1      32.572 -11.582 -22.901  0.00  0.00    -0.036 C 
ATOM     14  C   UNL     1      33.635 -16.150 -21.686  0.00  0.00    +0.016 C 
ATOM     15  C   UNL     1      34.254 -16.020 -24.468  0.00  0.00    +0.252 C 
ATOM     16  C   UNL     1      34.934 -18.500 -24.397  0.00  0.00    +0.239 C 
ATOM     17  C   UNL     1      32.143 -11.174 -21.628  0.00  0.00    +0.092 C 
ATOM     18  C   UNL     1      35.382 -19.519 -22.193  0.00  0.00    +0.346 C 
ATOM     19  C   UNL     1      32.164 -12.114 -20.558  0.00  0.00    +0.116 C 
ATOM     20  C   UNL     1      31.699  -9.862 -21.403  0.00  0.00    -0.015 C 
ATOM     21  C   UNL     1      31.734 -11.687 -19.307  0.00  0.00    +0.028 C 
ATOM     22  C   UNL     1      31.275  -9.467 -20.137  0.00  0.00    -0.004 C 
ATOM     23  C   UNL     1      31.293 -10.379 -19.089  0.00  0.00    +0.002 C 
ENDROOT
BRANCH  10  24
ATOM     24  O   UNL     1      34.764 -18.334 -20.275  0.00  0.00    -0.373 OA
ATOM     25  H   UNL     1      35.235 -17.487 -20.266  0.00  0.00    +0.211 HD
ENDBRANCH  10  24
BRANCH  10  26
ATOM     26  C   UNL     1      32.988 -19.384 -21.518  0.00  0.00    +0.042 C 
ATOM     27  C   UNL     1      32.945 -20.268 -20.288  0.00  0.00    +0.003 C 
ENDBRANCH  10  26
BRANCH  13  28
ATOM     28  C   UNL     1      32.587 -10.667 -24.082  0.00  0.00    -0.001 C 
BRANCH  28  29
ATOM     29  C   UNL     1      33.984 -10.090 -24.345  0.00  0.00    -0.077 C 
BRANCH  29  30
ATOM     30  N   UNL     1      34.278  -8.974 -23.453  0.00  0.00    +0.385 N 
ATOM     31  H   UNL     1      35.284  -8.809 -23.444  0.00  0.00    -0.084 HD
ATOM     32  H   UNL     1      33.947  -9.209 -22.517  0.00  0.00    -0.084 HD
BRANCH  30  33
ATOM     33  C   UNL     1      33.600  -7.764 -23.895  0.00  0.00    -0.062 C 
ATOM     34  C   UNL     1      34.565  -6.870 -24.670  0.00  0.00    -0.023 C 
ATOM     35  C   UNL     1      33.026  -7.033 -22.685  0.00  0.00    -0.023 C 
ENDBRANCH  30  33
ENDBRANCH  29  30
ENDBRANCH  28  29
ENDBRANCH  13  28
TORSDOF 6
ENDMDL
MODEL 2
REMARK VINA RESULT:      -9.5      6.260     11.894
REMARK  Name = 6456014
REMARK  6 active torsions:
REMARK  status: ('A' for Active; 'I' for Inactive)
REMARK    1  A    between atoms: C_10  and  O_24
REMARK    2  A    between atoms: C_10  and  C_26
REMARK    3  A    between atoms: C_13  and  C_28
REMARK    4  A    between atoms: C_28  and  C_29
REMARK    5  A    between atoms: C_29  and  N_30
REMARK    6  A    between atoms: N_30  and  C_33
REMARK                            x       y       z     vdW  Elec       q    Type
REMARK                         _______ _______ _______ _____ _____    ______ ____
ROOT
ATOM      1  O   UNL     1      36.155 -19.558 -22.138  0.00  0.00    -0.442 OA
ATOM      2  O   UNL     1      37.103 -21.713 -18.620  0.00  0.00    -0.270 OA
ATOM      3  O   UNL     1      34.557 -19.205 -23.674  0.00  0.00    -0.247 OA
ATOM      4  N   UNL     1      34.864 -22.054 -18.159  0.00  0.00    -0.249 N 
ATOM      5  N   UNL     1      31.375 -22.535 -17.427  0.00  0.00    -0.405 NA
ATOM      6  C   UNL     1      33.569 -23.209 -16.633  0.00  0.00    +0.022 C 
ATOM      7  C   UNL     1      33.533 -21.800 -18.446  0.00  0.00    +0.084 C 
ATOM      8  C   UNL     1      34.995 -22.959 -17.000  0.00  0.00    +0.127 C 
ATOM      9  C   UNL     1      34.207 -20.395 -20.275  0.00  0.00    +0.017 C 
ATOM     10  C   UNL     1      33.815 -19.467 -21.391  0.00  0.00    +0.196 C 
ATOM     11  C   UNL     1      32.714 -22.525 -17.484  0.00  0.00    +0.142 C 
ATOM     12  C   UNL     1      35.508 -20.613 -20.009  0.00  0.00    +0.074 C 
ATOM     13  C   UNL     1      33.021 -23.974 -15.630  0.00  0.00    -0.036 C 
ATOM     14  C   UNL     1      33.171 -21.003 -19.454  0.00  0.00    +0.016 C 
ATOM     15  C   UNL     1      35.918 -21.510 -18.871  0.00  0.00    +0.252 C 
ATOM     16  C   UNL     1      36.580 -19.965 -20.819  0.00  0.00    +0.239 C 
ATOM     17  C   UNL     1      31.622 -24.023 -15.521  0.00  0.00    +0.092 C 
ATOM     18  C   UNL     1      34.858 -19.414 -22.501  0.00  0.00    +0.346 C 
ATOM     19  C   UNL     1      30.831 -23.283 -16.446  0.00  0.00    +0.116 C 
ATOM     20  C   UNL     1      31.003 -24.786 -14.519  0.00  0.00    -0.015 C 
ATOM     21  C   UNL     1      29.448 -23.347 -16.318  0.00  0.00    +0.028 C 
ATOM     22  C   UNL     1      29.615 -24.829 -14.419  0.00  0.00    -0.004 C 
ATOM     23  C   UNL     1      28.838 -24.109 -15.318  0.00  0.00    +0.002 C 
ENDROOT
BRANCH  10  24
ATOM     24  O   UNL     1      32.634 -19.956 -22.033  0.00  0.00    -0.373 OA
ATOM     25  H   UNL     1      32.193 -20.597 -21.454  0.00  0.00    +0.211 HD
ENDBRANCH  10  24
BRANCH  10  26
ATOM     26  C   UNL     1      33.549 -18.049 -20.880  0.00  0.00    +0.042 C 
ATOM     27  C   UNL     1      34.610 -17.082 -21.366  0.00  0.00    +0.003 C 
ENDBRANCH  10  26
BRANCH  13  28
ATOM     28  C   UNL     1      33.931 -24.717 -14.706  0.00  0.00    -0.001 C 
BRANCH  28  29
ATOM     29  C   UNL     1      34.237 -23.916 -13.433  0.00  0.00    -0.077 C 
BRANCH  29  30
ATOM     30  N   UNL     1      35.631 -23.487 -13.395  0.00  0.00    +0.385 N 
ATOM     31  H   UNL     1      35.875 -23.226 -12.440  0.00  0.00    -0.084 HD
ATOM     32  H   UNL     1      35.744 -22.690 -14.022  0.00  0.00    -0.084 HD
BRANCH  30  33
ATOM     33  C   UNL     1      36.515 -24.555 -13.838  0.00  0.00    -0.062 C 
ATOM     34  C   UNL     1      37.048 -25.332 -12.637  0.00  0.00    -0.023 C 
ATOM     35  C   UNL     1      37.656 -23.963 -14.658  0.00  0.00    -0.023 C 
ENDBRANCH  30  33
ENDBRANCH  29  30
ENDBRANCH  28  29
ENDBRANCH  13  28
TORSDOF 6
ENDMDL
MODEL 3
REMARK VINA RESULT:      -8.3      3.918      9.223
REMARK  Name = 6456014
REMARK  6 active torsions:
REMARK  status: ('A' for Active; 'I' for Inactive)
REMARK    1  A    between atoms: C_10  and  O_24
REMARK    2  A    between atoms: C_10  and  C_26
REMARK    3  A    between atoms: C_13  and  C_28
REMARK    4  A    between atoms: C_28  and  C_29
REMARK    5  A    between atoms: C_29  and  N_30
REMARK    6  A    between atoms: N_30  and  C_33
REMARK                            x       y       z     vdW  Elec       q    Type
REMARK                         _______ _______ _______ _____ _____    ______ ____
ROOT
ATOM      1  O   UNL     1      31.909  -6.493 -20.441  0.00  0.00    -0.442 OA
ATOM      2  O   UNL     1      31.950 -10.460 -18.967  0.00  0.00    -0.270 OA
ATOM      3  O   UNL     1      32.584  -5.178 -22.131  0.00  0.00    -0.247 OA
ATOM      4  N   UNL     1      32.375 -11.299 -21.079  0.00  0.00    -0.249 N 
ATOM      5  N   UNL     1      32.984 -12.595 -24.379  0.00  0.00    -0.405 NA
ATOM      6  C   UNL     1      32.849 -13.334 -22.069  0.00  0.00    +0.022 C 
ATOM      7  C   UNL     1      32.499 -11.095 -22.443  0.00  0.00    +0.084 C 
ATOM      8  C   UNL     1      32.585 -12.719 -20.733  0.00  0.00    +0.127 C 
ATOM      9  C   UNL     1      32.049  -8.756 -22.121  0.00  0.00    +0.017 C 
ATOM     10  C   UNL     1      31.839  -7.396 -22.726  0.00  0.00    +0.196 C 
ATOM     11  C   UNL     1      32.795 -12.375 -23.071  0.00  0.00    +0.142 C 
ATOM     12  C   UNL     1      31.909  -8.929 -20.794  0.00  0.00    +0.074 C 
ATOM     13  C   UNL     1      33.118 -14.636 -22.421  0.00  0.00    -0.036 C 
ATOM     14  C   UNL     1      32.345  -9.886 -22.989  0.00  0.00    +0.016 C 
ATOM     15  C   UNL     1      32.078 -10.293 -20.177  0.00  0.00    +0.252 C 
ATOM     16  C   UNL     1      31.567  -7.787 -19.899  0.00  0.00    +0.239 C 
ATOM     17  C   UNL     1      33.326 -14.926 -23.779  0.00  0.00    +0.092 C 
ATOM     18  C   UNL     1      32.160  -6.268 -21.753  0.00  0.00    +0.346 C 
ATOM     19  C   UNL     1      33.249 -13.870 -24.731  0.00  0.00    +0.116 C 
ATOM     20  C   UNL     1      33.605 -16.235 -24.201  0.00  0.00    -0.015 C 
ATOM     21  C   UNL     1      33.458 -14.183 -26.070  0.00  0.00    +0.028 C 
ATOM     22  C   UNL     1      33.810 -16.514 -25.549  0.00  0.00    -0.004 C 
ATOM     23  C   UNL     1      33.737 -15.488 -26.483  0.00  0.00    +0.002 C 
ENDROOT
BRANCH  10  24
ATOM     24  O   UNL     1      32.751  -7.204 -23.810  0.00  0.00    -0.373 OA
ATOM     25  H   UNL     1      33.378  -6.500 -23.586  0.00  0.00    +0.211 HD
ENDBRANCH  10  24
BRANCH  10  26
ATOM     26  C   UNL     1      30.410  -7.223 -23.246  0.00  0.00    +0.042 C 
ATOM     27  C   UNL     1      30.395  -6.529 -24.593  0.00  0.00    +0.003 C 
ENDBRANCH  10  26
BRANCH  13  28
ATOM     28  C   UNL     1      33.179 -15.677 -21.352  0.00  0.00    -0.001 C 
BRANCH  28  29
ATOM     29  C   UNL     1      34.575 -15.773 -20.721  0.00  0.00    -0.077 C 
BRANCH  29  30
ATOM     30  N   UNL     1      34.953 -17.159 -20.470  0.00  0.00    +0.385 N 
ATOM     31  H   UNL     1      34.409 -17.518 -19.686  0.00  0.00    -0.084 HD
ATOM     32  H   UNL     1      35.950 -17.191 -20.256  0.00  0.00    -0.084 HD
BRANCH  30  33
ATOM     33  C   UNL     1      34.703 -17.985 -21.642  0.00  0.00    -0.062 C 
ATOM     34  C   UNL     1      34.013 -19.284 -21.236  0.00  0.00    -0.023 C 
ATOM     35  C   UNL     1      36.022 -18.265 -22.356  0.00  0.00    -0.023 C 
ENDBRANCH  30  33
ENDBRANCH  29  30
ENDBRANCH  28  29
ENDBRANCH  13  28
TORSDOF 6
ENDMDL
MODEL 4
REMARK VINA RESULT:      -7.8      7.864     12.391
REMARK  Name = 6456014
REMARK  6 active torsions:
REMARK  status: ('A' for Active; 'I' for Inactive)
REMARK    1  A    between atoms: C_10  and  O_24
REMARK    2  A    between atoms: C_10  and  C_26
REMARK    3  A    between atoms: C_13  and  C_28
REMARK    4  A    between atoms: C_28  and  C_29
REMARK    5  A    between atoms: C_29  and  N_30
REMARK    6  A    between atoms: N_30  and  C_33
REMARK                            x       y       z     vdW  Elec       q    Type
REMARK                         _______ _______ _______ _____ _____    ______ ____
ROOT
ATOM      1  O   UNL     1      39.173 -24.338 -13.169  0.00  0.00    -0.442 OA
ATOM      2  O   UNL     1      37.395 -22.620 -16.605  0.00  0.00    -0.270 OA
ATOM      3  O   UNL     1      38.776 -25.008 -11.064  0.00  0.00    -0.247 OA
ATOM      4  N   UNL     1      35.286 -23.247 -15.896  0.00  0.00    -0.249 N 
ATOM      5  N   UNL     1      32.016 -24.274 -14.805  0.00  0.00    -0.405 NA
ATOM      6  C   UNL     1      33.086 -22.956 -16.542  0.00  0.00    +0.022 C 
ATOM      7  C   UNL     1      34.482 -23.939 -15.005  0.00  0.00    +0.084 C 
ATOM      8  C   UNL     1      34.476 -22.574 -16.931  0.00  0.00    +0.127 C 
ATOM      9  C   UNL     1      36.439 -24.644 -13.803  0.00  0.00    +0.017 C 
ATOM     10  C   UNL     1      37.034 -25.445 -12.678  0.00  0.00    +0.196 C 
ATOM     11  C   UNL     1      33.094 -23.760 -15.410  0.00  0.00    +0.142 C 
ATOM     12  C   UNL     1      37.245 -23.992 -14.661  0.00  0.00    +0.074 C 
ATOM     13  C   UNL     1      31.876 -22.644 -17.115  0.00  0.00    -0.036 C 
ATOM     14  C   UNL     1      34.996 -24.629 -13.985  0.00  0.00    +0.016 C 
ATOM     15  C   UNL     1      36.667 -23.216 -15.815  0.00  0.00    +0.252 C 
ATOM     16  C   UNL     1      38.728 -24.031 -14.509  0.00  0.00    +0.239 C 
ATOM     17  C   UNL     1      30.709 -23.155 -16.522  0.00  0.00    +0.092 C 
ATOM     18  C   UNL     1      38.385 -24.903 -12.224  0.00  0.00    +0.346 C 
ATOM     19  C   UNL     1      30.825 -23.971 -15.361  0.00  0.00    +0.116 C 
ATOM     20  C   UNL     1      29.444 -22.870 -17.059  0.00  0.00    -0.015 C 
ATOM     21  C   UNL     1      29.656 -24.466 -14.793  0.00  0.00    +0.028 C 
ATOM     22  C   UNL     1      28.294 -23.382 -16.465  0.00  0.00    -0.004 C 
ATOM     23  C   UNL     1      28.400 -24.179 -15.332  0.00  0.00    +0.002 C 
ENDROOT
BRANCH  10  24
ATOM     24  O   UNL     1      36.201 -25.345 -11.520  0.00  0.00    -0.373 OA
ATOM     25  H   UNL     1      35.959 -26.233 -11.217  0.00  0.00    +0.211 HD
ENDBRANCH  10  24
BRANCH  10  26
ATOM     26  C   UNL     1      37.183 -26.921 -13.053  0.00  0.00    +0.042 C 
ATOM     27  C   UNL     1      37.170 -27.110 -14.557  0.00  0.00    +0.003 C 
ENDBRANCH  10  26
BRANCH  13  28
ATOM     28  C   UNL     1      31.852 -21.779 -18.332  0.00  0.00    -0.001 C 
BRANCH  28  29
ATOM     29  C   UNL     1      33.137 -21.917 -19.161  0.00  0.00    -0.077 C 
BRANCH  29  30
ATOM     30  N   UNL     1      33.129 -21.021 -20.312  0.00  0.00    +0.385 N 
ATOM     31  H   UNL     1      32.312 -20.414 -20.258  0.00  0.00    -0.084 HD
ATOM     32  H   UNL     1      33.100 -21.583 -21.162  0.00  0.00    -0.084 HD
BRANCH  30  33
ATOM     33  C   UNL     1      34.332 -20.201 -20.338  0.00  0.00    -0.062 C 
ATOM     34  C   UNL     1      34.456 -19.488 -21.681  0.00  0.00    -0.023 C 
ATOM     35  C   UNL     1      35.550 -21.078 -20.068  0.00  0.00    -0.023 C 
ENDBRANCH  30  33
ENDBRANCH  29  30
ENDBRANCH  28  29
ENDBRANCH  13  28
TORSDOF 6
ENDMDL
MODEL 5
REMARK VINA RESULT:      -7.3      9.143     12.825
REMARK  Name = 6456014
REMARK  6 active torsions:
REMARK  status: ('A' for Active; 'I' for Inactive)
REMARK    1  A    between atoms: C_10  and  O_24
REMARK    2  A    between atoms: C_10  and  C_26
REMARK    3  A    between atoms: C_13  and  C_28
REMARK    4  A    between atoms: C_28  and  C_29
REMARK    5  A    between atoms: C_29  and  N_30
REMARK    6  A    between atoms: N_30  and  C_33
REMARK                            x       y       z     vdW  Elec       q    Type
REMARK                         _______ _______ _______ _____ _____    ______ ____
ROOT
ATOM      1  O   UNL     1      36.975 -26.032 -11.643  0.00  0.00    -0.442 OA
ATOM      2  O   UNL     1      33.240 -24.740 -13.159  0.00  0.00    -0.270 OA
ATOM      3  O   UNL     1      39.105 -26.474 -12.199  0.00  0.00    -0.247 OA
ATOM      4  N   UNL     1      34.260 -23.753 -14.983  0.00  0.00    -0.249 N 
ATOM      5  N   UNL     1      35.864 -22.179 -17.792  0.00  0.00    -0.405 NA
ATOM      6  C   UNL     1      33.646 -22.694 -16.944  0.00  0.00    +0.022 C 
ATOM      7  C   UNL     1      35.415 -23.368 -15.644  0.00  0.00    +0.084 C 
ATOM      8  C   UNL     1      33.057 -23.363 -15.746  0.00  0.00    +0.127 C 
ATOM      9  C   UNL     1      36.730 -24.312 -13.867  0.00  0.00    +0.017 C 
ATOM     10  C   UNL     1      38.087 -24.564 -13.271  0.00  0.00    +0.196 C 
ATOM     11  C   UNL     1      35.032 -22.699 -16.879  0.00  0.00    +0.142 C 
ATOM     12  C   UNL     1      35.624 -24.684 -13.198  0.00  0.00    +0.074 C 
ATOM     13  C   UNL     1      33.043 -22.109 -18.033  0.00  0.00    -0.036 C 
ATOM     14  C   UNL     1      36.626 -23.614 -15.140  0.00  0.00    +0.016 C 
ATOM     15  C   UNL     1      34.255 -24.406 -13.763  0.00  0.00    +0.252 C 
ATOM     16  C   UNL     1      35.715 -25.366 -11.875  0.00  0.00    +0.239 C 
ATOM     17  C   UNL     1      33.865 -21.548 -19.024  0.00  0.00    +0.092 C 
ATOM     18  C   UNL     1      38.103 -25.776 -12.347  0.00  0.00    +0.346 C 
ATOM     19  C   UNL     1      35.279 -21.604 -18.864  0.00  0.00    +0.116 C 
ATOM     20  C   UNL     1      33.310 -20.938 -20.160  0.00  0.00    -0.015 C 
ATOM     21  C   UNL     1      36.071 -21.041 -19.858  0.00  0.00    +0.028 C 
ATOM     22  C   UNL     1      34.132 -20.384 -21.137  0.00  0.00    -0.004 C 
ATOM     23  C   UNL     1      35.512 -20.436 -20.986  0.00  0.00    +0.002 C 
ENDROOT
BRANCH  10  24
ATOM     24  O   UNL     1      39.016 -24.891 -14.307  0.00  0.00    -0.373 OA
ATOM     25  H   UNL     1      39.019 -25.850 -14.449  0.00  0.00    +0.211 HD
ENDBRANCH  10  24
BRANCH  10  26
ATOM     26  C   UNL     1      38.606 -23.341 -12.510  0.00  0.00    +0.042 C 
ATOM     27  C   UNL     1      37.522 -22.733 -11.644  0.00  0.00    +0.003 C 
ENDBRANCH  10  26
BRANCH  13  28
ATOM     28  C   UNL     1      31.552 -22.098 -18.116  0.00  0.00    -0.001 C 
BRANCH  28  29
ATOM     29  C   UNL     1      30.903 -22.760 -16.893  0.00  0.00    -0.077 C 
BRANCH  29  30
ATOM     30  N   UNL     1      29.448 -22.757 -16.994  0.00  0.00    +0.385 N 
ATOM     31  H   UNL     1      29.149 -23.555 -17.553  0.00  0.00    -0.084 HD
ATOM     32  H   UNL     1      29.153 -21.884 -17.433  0.00  0.00    -0.084 HD
BRANCH  30  33
ATOM     33  C   UNL     1      28.837 -22.843 -15.675  0.00  0.00    -0.062 C 
ATOM     34  C   UNL     1      28.935 -24.269 -15.139  0.00  0.00    -0.023 C 
ATOM     35  C   UNL     1      27.383 -22.388 -15.759  0.00  0.00    -0.023 C 
ENDBRANCH  30  33
ENDBRANCH  29  30
ENDBRANCH  28  29
ENDBRANCH  13  28
TORSDOF 6
ENDMDL
MODEL 6
REMARK VINA RESULT:      -7.3      7.136     12.599
REMARK  Name = 6456014
REMARK  6 active torsions:
REMARK  status: ('A' for Active; 'I' for Inactive)
REMARK    1  A    between atoms: C_10  and  O_24
REMARK    2  A    between atoms: C_10  and  C_26
REMARK    3  A    between atoms: C_13  and  C_28
REMARK    4  A    between atoms: C_28  and  C_29
REMARK    5  A    between atoms: C_29  and  N_30
REMARK    6  A    between atoms: N_30  and  C_33
REMARK                            x       y       z     vdW  Elec       q    Type
REMARK                         _______ _______ _______ _____ _____    ______ ____
ROOT
ATOM      1  O   UNL     1      33.223 -18.919 -21.224  0.00  0.00    -0.442 OA
ATOM      2  O   UNL     1      31.863 -22.030 -18.696  0.00  0.00    -0.270 OA
ATOM      3  O   UNL     1      34.875 -17.434 -21.545  0.00  0.00    -0.247 OA
ATOM      4  N   UNL     1      33.998 -22.377 -17.882  0.00  0.00    -0.249 N 
ATOM      5  N   UNL     1      37.335 -22.940 -16.660  0.00  0.00    -0.405 NA
ATOM      6  C   UNL     1      35.047 -23.652 -16.264  0.00  0.00    +0.022 C 
ATOM      7  C   UNL     1      35.357 -22.110 -17.937  0.00  0.00    +0.084 C 
ATOM      8  C   UNL     1      33.694 -23.364 -16.827  0.00  0.00    +0.127 C 
ATOM      9  C   UNL     1      34.967 -20.567 -19.738  0.00  0.00    +0.017 C 
ATOM     10  C   UNL     1      35.533 -19.620 -20.760  0.00  0.00    +0.196 C 
ATOM     11  C   UNL     1      36.021 -22.914 -16.921  0.00  0.00    +0.142 C 
ATOM     12  C   UNL     1      33.646 -20.819 -19.715  0.00  0.00    +0.074 C 
ATOM     13  C   UNL     1      35.436 -24.496 -15.250  0.00  0.00    -0.036 C 
ATOM     14  C   UNL     1      35.867 -21.248 -18.819  0.00  0.00    +0.016 C 
ATOM     15  C   UNL     1      33.068 -21.793 -18.723  0.00  0.00    +0.252 C 
ATOM     16  C   UNL     1      32.718 -20.157 -20.677  0.00  0.00    +0.239 C 
ATOM     17  C   UNL     1      36.803 -24.564 -14.932  0.00  0.00    +0.092 C 
ATOM     18  C   UNL     1      34.528 -18.559 -21.193  0.00  0.00    +0.346 C 
ATOM     19  C   UNL     1      37.724 -23.765 -15.667  0.00  0.00    +0.116 C 
ATOM     20  C   UNL     1      37.262 -25.406 -13.907  0.00  0.00    -0.015 C 
ATOM     21  C   UNL     1      39.071 -23.851 -15.334  0.00  0.00    +0.028 C 
ATOM     22  C   UNL     1      38.618 -25.467 -13.599  0.00  0.00    -0.004 C 
ATOM     23  C   UNL     1      39.523 -24.690 -14.312  0.00  0.00    +0.002 C 
ENDROOT
BRANCH  10  24
ATOM     24  O   UNL     1      36.612 -18.879 -20.186  0.00  0.00    -0.373 OA
ATOM     25  H   UNL     1      36.258 -18.160 -19.642  0.00  0.00    +0.211 HD
ENDBRANCH  10  24
BRANCH  10  26
ATOM     26  C   UNL     1      36.046 -20.363 -21.996  0.00  0.00    +0.042 C 
ATOM     27  C   UNL     1      35.453 -19.791 -23.267  0.00  0.00    +0.003 C 
ENDBRANCH  10  26
BRANCH  13  28
ATOM     28  C   UNL     1      34.398 -25.296 -14.534  0.00  0.00    -0.001 C 
BRANCH  28  29
ATOM     29  C   UNL     1      33.414 -24.404 -13.764  0.00  0.00    -0.077 C 
BRANCH  29  30
ATOM     30  N   UNL     1      32.230 -25.148 -13.351  0.00  0.00    +0.385 N 
ATOM     31  H   UNL     1      32.269 -25.308 -12.345  0.00  0.00    -0.084 HD
ATOM     32  H   UNL     1      32.211 -26.036 -13.853  0.00  0.00    -0.084 HD
BRANCH  30  33
ATOM     33  C   UNL     1      31.016 -24.409 -13.669  0.00  0.00    -0.062 C 
ATOM     34  C   UNL     1      30.258 -25.100 -14.799  0.00  0.00    -0.023 C 
ATOM     35  C   UNL     1      31.379 -22.977 -14.048  0.00  0.00    -0.023 C 
ENDBRANCH  30  33
ENDBRANCH  29  30
ENDBRANCH  28  29
ENDBRANCH  13  28
TORSDOF 6
ENDMDL
MODEL 7
REMARK VINA RESULT:      -7.3      5.632      9.710
REMARK  Name = 6456014
REMARK  6 active torsions:
REMARK  status: ('A' for Active; 'I' for Inactive)
REMARK    1  A    between atoms: C_10  and  O_24
REMARK    2  A    between atoms: C_10  and  C_26
REMARK    3  A    between atoms: C_13  and  C_28
REMARK    4  A    between atoms: C_28  and  C_29
REMARK    5  A    between atoms: C_29  and  N_30
REMARK    6  A    between atoms: N_30  and  C_33
REMARK                            x       y       z     vdW  Elec       q    Type
REMARK                         _______ _______ _______ _____ _____    ______ ____
ROOT
ATOM      1  O   UNL     1      35.196 -25.462 -13.947  0.00  0.00    -0.442 OA
ATOM      2  O   UNL     1      32.352 -23.579 -16.455  0.00  0.00    -0.270 OA
ATOM      3  O   UNL     1      37.351 -26.068 -13.783  0.00  0.00    -0.247 OA
ATOM      4  N   UNL     1      34.023 -22.495 -17.628  0.00  0.00    -0.249 N 
ATOM      5  N   UNL     1      36.631 -20.776 -19.413  0.00  0.00    -0.405 NA
ATOM      6  C   UNL     1      34.230 -21.139 -19.488  0.00  0.00    +0.022 C 
ATOM      7  C   UNL     1      35.361 -22.164 -17.772  0.00  0.00    +0.084 C 
ATOM      8  C   UNL     1      33.206 -21.880 -18.693  0.00  0.00    +0.127 C 
ATOM      9  C   UNL     1      35.880 -23.463 -15.818  0.00  0.00    +0.017 C 
ATOM     10  C   UNL     1      36.910 -23.938 -14.831  0.00  0.00    +0.196 C 
ATOM     11  C   UNL     1      35.494 -21.308 -18.942  0.00  0.00    +0.142 C 
ATOM     12  C   UNL     1      34.586 -23.788 -15.646  0.00  0.00    +0.074 C 
ATOM     13  C   UNL     1      34.101 -20.360 -20.614  0.00  0.00    -0.036 C 
ATOM     14  C   UNL     1      36.289 -22.605 -16.921  0.00  0.00    +0.016 C 
ATOM     15  C   UNL     1      33.536 -23.289 -16.605  0.00  0.00    +0.252 C 
ATOM     16  C   UNL     1      34.148 -24.634 -14.499  0.00  0.00    +0.239 C 
ATOM     17  C   UNL     1      35.259 -19.776 -21.153  0.00  0.00    +0.092 C 
ATOM     18  C   UNL     1      36.516 -25.249 -14.161  0.00  0.00    +0.346 C 
ATOM     19  C   UNL     1      36.511 -20.010 -20.518  0.00  0.00    +0.116 C 
ATOM     20  C   UNL     1      35.192 -18.971 -22.301  0.00  0.00    -0.015 C 
ATOM     21  C   UNL     1      37.643 -19.421 -21.070  0.00  0.00    +0.028 C 
ATOM     22  C   UNL     1      36.345 -18.396 -22.829  0.00  0.00    -0.004 C 
ATOM     23  C   UNL     1      37.570 -18.622 -22.213  0.00  0.00    +0.002 C 
ENDROOT
BRANCH  10  24
ATOM     24  O   UNL     1      38.131 -24.237 -15.513  0.00  0.00    -0.373 OA
ATOM     25  H   UNL     1      38.298 -23.562 -16.188  0.00  0.00    +0.211 HD
ENDBRANCH  10  24
BRANCH  10  26
ATOM     26  C   UNL     1      37.190 -22.885 -13.756  0.00  0.00    +0.042 C 
ATOM     27  C   UNL     1      36.903 -23.426 -12.370  0.00  0.00    +0.003 C 
ENDBRANCH  10  26
BRANCH  13  28
ATOM     28  C   UNL     1      32.745 -20.170 -21.212  0.00  0.00    -0.001 C 
BRANCH  28  29
ATOM     29  C   UNL     1      32.159 -18.791 -20.883  0.00  0.00    -0.077 C 
BRANCH  29  30
ATOM     30  N   UNL     1      33.205 -17.831 -20.550  0.00  0.00    +0.385 N 
ATOM     31  H   UNL     1      34.103 -18.191 -20.871  0.00  0.00    -0.084 HD
ATOM     32  H   UNL     1      33.215 -17.698 -19.538  0.00  0.00    -0.084 HD
BRANCH  30  33
ATOM     33  C   UNL     1      32.952 -16.546 -21.185  0.00  0.00    -0.062 C 
ATOM     34  C   UNL     1      34.246 -15.744 -21.292  0.00  0.00    -0.023 C 
ATOM     35  C   UNL     1      31.899 -15.784 -20.387  0.00  0.00    -0.023 C 
ENDBRANCH  30  33
ENDBRANCH  29  30
ENDBRANCH  28  29
ENDBRANCH  13  28
TORSDOF 6
ENDMDL
MODEL 8
REMARK VINA RESULT:      -7.2      1.784      3.637
REMARK  Name = 6456014
REMARK  6 active torsions:
REMARK  status: ('A' for Active; 'I' for Inactive)
REMARK    1  A    between atoms: C_10  and  O_24
REMARK    2  A    between atoms: C_10  and  C_26
REMARK    3  A    between atoms: C_13  and  C_28
REMARK    4  A    between atoms: C_28  and  C_29
REMARK    5  A    between atoms: C_29  and  N_30
REMARK    6  A    between atoms: N_30  and  C_33
REMARK                            x       y       z     vdW  Elec       q    Type
REMARK                         _______ _______ _______ _____ _____    ______ ____
ROOT
ATOM      1  O   UNL     1      33.766 -19.263 -21.983  0.00  0.00    -0.442 OA
ATOM      2  O   UNL     1      31.757 -15.998 -20.188  0.00  0.00    -0.270 OA
ATOM      3  O   UNL     1      34.810 -19.947 -23.848  0.00  0.00    -0.247 OA
ATOM      4  N   UNL     1      32.752 -14.510 -21.651  0.00  0.00    -0.249 N 
ATOM      5  N   UNL     1      34.346 -12.200 -23.900  0.00  0.00    -0.405 NA
ATOM      6  C   UNL     1      32.642 -12.261 -22.171  0.00  0.00    +0.022 C 
ATOM      7  C   UNL     1      33.674 -14.255 -22.652  0.00  0.00    +0.084 C 
ATOM      8  C   UNL     1      32.029 -13.281 -21.268  0.00  0.00    +0.127 C 
ATOM      9  C   UNL     1      34.309 -16.573 -22.641  0.00  0.00    +0.017 C 
ATOM     10  C   UNL     1      35.199 -17.661 -23.175  0.00  0.00    +0.196 C 
ATOM     11  C   UNL     1      33.609 -12.838 -22.981  0.00  0.00    +0.142 C 
ATOM     12  C   UNL     1      33.432 -16.845 -21.658  0.00  0.00    +0.074 C 
ATOM     13  C   UNL     1      32.396 -10.914 -22.301  0.00  0.00    -0.036 C 
ATOM     14  C   UNL     1      34.448 -15.219 -23.156  0.00  0.00    +0.016 C 
ATOM     15  C   UNL     1      32.559 -15.759 -21.086  0.00  0.00    +0.252 C 
ATOM     16  C   UNL     1      33.306 -18.220 -21.095  0.00  0.00    +0.239 C 
ATOM     17  C   UNL     1      33.140 -10.192 -23.249  0.00  0.00    +0.092 C 
ATOM     18  C   UNL     1      34.570 -19.044 -23.049  0.00  0.00    +0.346 C 
ATOM     19  C   UNL     1      34.111 -10.878 -24.033  0.00  0.00    +0.116 C 
ATOM     20  C   UNL     1      32.935  -8.816 -23.429  0.00  0.00    -0.015 C 
ATOM     21  C   UNL     1      34.834 -10.143 -24.965  0.00  0.00    +0.028 C 
ATOM     22  C   UNL     1      33.676  -8.109 -24.372  0.00  0.00    -0.004 C 
ATOM     23  C   UNL     1      34.625  -8.772 -25.140  0.00  0.00    +0.002 C 
ENDROOT
BRANCH  10  24
ATOM     24  O   UNL     1      35.392 -17.481 -24.580  0.00  0.00    -0.373 OA
ATOM     25  H   UNL     1      36.049 -16.784 -24.730  0.00  0.00    +0.211 HD
ENDBRANCH  10  24
BRANCH  10  26
ATOM     26  C   UNL     1      36.565 -17.663 -22.484  0.00  0.00    +0.042 C 
ATOM     27  C   UNL     1      36.630 -18.716 -21.397  0.00  0.00    +0.003 C 
ENDBRANCH  10  26
BRANCH  13  28
ATOM     28  C   UNL     1      31.357 -10.280 -21.435  0.00  0.00    -0.001 C 
BRANCH  28  29
ATOM     29  C   UNL     1      31.930  -9.831 -20.084  0.00  0.00    -0.077 C 
BRANCH  29  30
ATOM     30  N   UNL     1      31.584  -8.445 -19.791  0.00  0.00    +0.385 N 
ATOM     31  H   UNL     1      31.927  -8.203 -18.862  0.00  0.00    -0.084 HD
ATOM     32  H   UNL     1      30.569  -8.346 -19.833  0.00  0.00    -0.084 HD
BRANCH  30  33
ATOM     33  C   UNL     1      32.178  -7.544 -20.768  0.00  0.00    -0.062 C 
ATOM     34  C   UNL     1      33.530  -7.041 -20.269  0.00  0.00    -0.023 C 
ATOM     35  C   UNL     1      31.225  -6.384 -21.034  0.00  0.00    -0.023 C 
ENDBRANCH  30  33
ENDBRANCH  29  30
ENDBRANCH  28  29
ENDBRANCH  13  28
TORSDOF 6
ENDMDL
MODEL 9
REMARK VINA RESULT:      -6.8      7.218     12.811
REMARK  Name = 6456014
REMARK  6 active torsions:
REMARK  status: ('A' for Active; 'I' for Inactive)
REMARK    1  A    between atoms: C_10  and  O_24
REMARK    2  A    between atoms: C_10  and  C_26
REMARK    3  A    between atoms: C_13  and  C_28
REMARK    4  A    between atoms: C_28  and  C_29
REMARK    5  A    between atoms: C_29  and  N_30
REMARK    6  A    between atoms: N_30  and  C_33
REMARK                            x       y       z     vdW  Elec       q    Type
REMARK                         _______ _______ _______ _____ _____    ______ ____
ROOT
ATOM      1  O   UNL     1      33.155 -19.026 -21.030  0.00  0.00    -0.442 OA
ATOM      2  O   UNL     1      31.975 -22.098 -18.367  0.00  0.00    -0.270 OA
ATOM      3  O   UNL     1      34.782 -17.551 -21.491  0.00  0.00    -0.247 OA
ATOM      4  N   UNL     1      34.163 -22.442 -17.708  0.00  0.00    -0.249 N 
ATOM      5  N   UNL     1      37.579 -23.002 -16.728  0.00  0.00    -0.405 NA
ATOM      6  C   UNL     1      35.325 -23.701 -16.155  0.00  0.00    +0.022 C 
ATOM      7  C   UNL     1      35.515 -22.182 -17.867  0.00  0.00    +0.084 C 
ATOM      8  C   UNL     1      33.935 -23.415 -16.621  0.00  0.00    +0.127 C 
ATOM      9  C   UNL     1      34.999 -20.661 -19.654  0.00  0.00    +0.017 C 
ATOM     10  C   UNL     1      35.490 -19.729 -20.728  0.00  0.00    +0.196 C 
ATOM     11  C   UNL     1      36.250 -22.975 -16.891  0.00  0.00    +0.142 C 
ATOM     12  C   UNL     1      33.682 -20.907 -19.531  0.00  0.00    +0.074 C 
ATOM     13  C   UNL     1      35.785 -24.532 -15.161  0.00  0.00    -0.036 C 
ATOM     14  C   UNL     1      35.961 -21.333 -18.795  0.00  0.00    +0.016 C 
ATOM     15  C   UNL     1      33.175 -21.866 -18.486  0.00  0.00    +0.252 C 
ATOM     16  C   UNL     1      32.687 -20.254 -20.430  0.00  0.00    +0.239 C 
ATOM     17  C   UNL     1      37.171 -24.602 -14.943  0.00  0.00    +0.092 C 
ATOM     18  C   UNL     1      34.459 -18.670 -21.099  0.00  0.00    +0.346 C 
ATOM     19  C   UNL     1      38.038 -23.816 -15.754  0.00  0.00    +0.116 C 
ATOM     20  C   UNL     1      37.702 -25.432 -13.944  0.00  0.00    -0.015 C 
ATOM     21  C   UNL     1      39.406 -23.902 -15.520  0.00  0.00    +0.028 C 
ATOM     22  C   UNL     1      39.077 -25.494 -13.735  0.00  0.00    -0.004 C 
ATOM     23  C   UNL     1      39.929 -24.730 -14.523  0.00  0.00    +0.002 C 
ENDROOT
BRANCH  10  24
ATOM     24  O   UNL     1      36.611 -18.985 -20.244  0.00  0.00    -0.373 OA
ATOM     25  H   UNL     1      37.140 -18.672 -20.994  0.00  0.00    +0.211 HD
ENDBRANCH  10  24
BRANCH  10  26
ATOM     26  C   UNL     1      35.908 -20.491 -21.988  0.00  0.00    +0.042 C 
ATOM     27  C   UNL     1      35.429 -19.786 -23.241  0.00  0.00    +0.003 C 
ENDBRANCH  10  26
BRANCH  13  28
ATOM     28  C   UNL     1      34.799 -25.319 -14.360  0.00  0.00    -0.001 C 
BRANCH  28  29
ATOM     29  C   UNL     1      34.332 -24.556 -13.113  0.00  0.00    -0.077 C 
BRANCH  29  30
ATOM     30  N   UNL     1      35.140 -23.363 -12.883  0.00  0.00    +0.385 N 
ATOM     31  H   UNL     1      34.547 -22.538 -12.960  0.00  0.00    -0.084 HD
ATOM     32  H   UNL     1      35.884 -23.334 -13.580  0.00  0.00    -0.084 HD
BRANCH  30  33
ATOM     33  C   UNL     1      35.744 -23.394 -11.559  0.00  0.00    -0.062 C 
ATOM     34  C   UNL     1      37.189 -22.907 -11.626  0.00  0.00    -0.023 C 
ATOM     35  C   UNL     1      35.668 -24.810 -10.998  0.00  0.00    -0.023 C 
ENDBRANCH  30  33
ENDBRANCH  29  30
ENDBRANCH  28  29
ENDBRANCH  13  28
TORSDOF 6
ENDMDL
