MODEL 1
REMARK VINA RESULT:     -12.5      0.000      0.000
REMARK  Name = 57336276
REMARK  5 active torsions:
REMARK  status: ('A' for Active; 'I' for Inactive)
REMARK    1  A    between atoms: C_2  and  C_16
REMARK    2  A    between atoms: C_6  and  O_17
REMARK    3  A    between atoms: O_17  and  C_18
REMARK    4  A    between atoms: C_18  and  C_21
REMARK    5  A    between atoms: C_22  and  C_26
REMARK                            x       y       z     vdW  Elec       q    Type
REMARK                         _______ _______ _______ _____ _____    ______ ____
ROOT
ATOM      1  N   UNL     1      33.857 -12.166 -24.511  0.00  0.00    -0.210 NA
ATOM      2  C   UNL     1      33.624 -14.553 -24.199  0.00  0.00    +0.073 C 
ATOM      3  C   UNL     1      32.742 -14.336 -23.147  0.00  0.00    +0.011 C 
ATOM      4  C   UNL     1      34.150 -13.443 -24.844  0.00  0.00    +0.107 C 
ATOM      5  C   UNL     1      32.416 -13.035 -22.776  0.00  0.00    +0.058 C 
ATOM      6  C   UNL     1      32.996 -11.995 -23.484  0.00  0.00    +0.225 C 
ENDROOT
BRANCH   2  16
ATOM      7  S   UNL     1      34.748 -18.762 -21.461  0.00  0.00    -0.007 S 
ATOM      8  O   UNL     1      33.744 -19.415 -20.643  0.00  0.00    -0.173 OA
ATOM      9  O   UNL     1      36.157 -19.059 -21.285  0.00  0.00    -0.173 OA
ATOM     10  O   UNL     1      33.578 -16.269 -25.718  0.00  0.00    -0.270 OA
ATOM     11  N   UNL     1      34.751 -16.686 -23.738  0.00  0.00    -0.272 N 
ATOM     12  C   UNL     1      34.328 -19.043 -23.173  0.00  0.00    +0.172 C 
ATOM     13  C   UNL     1      34.523 -16.998 -21.302  0.00  0.00    +0.172 C 
ATOM     14  C   UNL     1      35.062 -18.074 -24.088  0.00  0.00    +0.119 C 
ATOM     15  C   UNL     1      35.236 -16.250 -22.419  0.00  0.00    +0.119 C 
ATOM     16  C   UNL     1      33.988 -15.912 -24.615  0.00  0.00    +0.251 C 
ENDBRANCH   2  16
BRANCH   6  17
ATOM     17  O   UNL     1      32.690 -10.705 -23.138  0.00  0.00    -0.455 OA
BRANCH  17  18
ATOM     18  C   UNL     1      31.566 -10.519 -22.286  0.00  0.00    +0.238 C 
BRANCH  18  21
ATOM     19  O   UNL     1      32.220  -8.616 -19.195  0.00  0.00    -0.358 OA
ATOM     20  N   UNL     1      32.698  -7.699 -20.123  0.00  0.00    -0.078 NA
ATOM     21  C   UNL     1      31.930  -9.554 -21.197  0.00  0.00    +0.075 A 
ATOM     22  C   UNL     1      32.514  -8.281 -21.311  0.00  0.00    +0.122 A 
ATOM     23  C   UNL     1      31.764  -9.716 -19.846  0.00  0.00    +0.154 A 
ATOM     24  C   UNL     1      31.219 -10.793 -19.008  0.00  0.00    +0.075 C 
BRANCH  22  26
ATOM     25  F   UNL     1      34.021  -5.659 -25.986  0.00  0.00    -0.204 F 
ATOM     26  C   UNL     1      32.903  -7.604 -22.519  0.00  0.00    +0.021 C 
ATOM     27  C   UNL     1      34.215  -7.702 -22.983  0.00  0.00    +0.004 C 
ATOM     28  C   UNL     1      31.969  -6.848 -23.228  0.00  0.00    +0.004 C 
ATOM     29  C   UNL     1      34.593  -7.046 -24.154  0.00  0.00    +0.030 C 
ATOM     30  C   UNL     1      32.347  -6.191 -24.399  0.00  0.00    +0.030 C 
ATOM     31  C   UNL     1      33.658  -6.290 -24.862  0.00  0.00    +0.140 C 
ENDBRANCH  22  26
ENDBRANCH  18  21
ENDBRANCH  17  18
ENDBRANCH   6  17
TORSDOF 5
ENDMDL
MODEL 2
REMARK VINA RESULT:     -10.9      4.324     10.066
REMARK  Name = 57336276
REMARK  5 active torsions:
REMARK  status: ('A' for Active; 'I' for Inactive)
REMARK    1  A    between atoms: C_2  and  C_16
REMARK    2  A    between atoms: C_6  and  O_17
REMARK    3  A    between atoms: O_17  and  C_18
REMARK    4  A    between atoms: C_18  and  C_21
REMARK    5  A    between atoms: C_22  and  C_26
REMARK                            x       y       z     vdW  Elec       q    Type
REMARK                         _______ _______ _______ _____ _____    ______ ____
ROOT
ATOM      1  N   UNL     1      32.209 -12.999 -22.872  0.00  0.00    -0.210 NA
ATOM      2  C   UNL     1      31.961 -11.398 -21.077  0.00  0.00    +0.073 C 
ATOM      3  C   UNL     1      32.232 -12.393 -20.144  0.00  0.00    +0.011 C 
ATOM      4  C   UNL     1      31.962 -11.750 -22.419  0.00  0.00    +0.107 C 
ATOM      5  C   UNL     1      32.492 -13.690 -20.573  0.00  0.00    +0.058 C 
ATOM      6  C   UNL     1      32.468 -13.939 -21.936  0.00  0.00    +0.225 C 
ENDROOT
BRANCH   2  16
ATOM      7  S   UNL     1      31.914  -6.979 -23.714  0.00  0.00    -0.007 S 
ATOM      8  O   UNL     1      30.925  -6.731 -24.745  0.00  0.00    -0.173 OA
ATOM      9  O   UNL     1      33.106  -6.158 -23.615  0.00  0.00    -0.173 OA
ATOM     10  O   UNL     1      30.953  -9.891 -19.675  0.00  0.00    -0.270 OA
ATOM     11  N   UNL     1      32.252  -8.980 -21.395  0.00  0.00    -0.272 N 
ATOM     12  C   UNL     1      31.081  -6.946 -22.136  0.00  0.00    +0.172 C 
ATOM     13  C   UNL     1      32.421  -8.686 -23.838  0.00  0.00    +0.172 C 
ATOM     14  C   UNL     1      31.928  -7.593 -21.050  0.00  0.00    +0.119 C 
ATOM     15  C   UNL     1      33.124  -9.146 -22.569  0.00  0.00    +0.119 C 
ATOM     16  C   UNL     1      31.683 -10.020 -20.657  0.00  0.00    +0.251 C 
ENDBRANCH   2  16
BRANCH   6  17
ATOM     17  O   UNL     1      32.722 -15.209 -22.383  0.00  0.00    -0.455 OA
BRANCH  17  18
ATOM     18  C   UNL     1      34.087 -15.596 -22.472  0.00  0.00    +0.238 C 
BRANCH  18  21
ATOM     19  O   UNL     1      34.283 -17.409 -25.679  0.00  0.00    -0.358 OA
ATOM     20  N   UNL     1      34.725 -18.416 -24.829  0.00  0.00    -0.078 NA
ATOM     21  C   UNL     1      34.255 -16.542 -23.625  0.00  0.00    +0.075 A 
ATOM     22  C   UNL     1      34.699 -17.876 -23.608  0.00  0.00    +0.122 A 
ATOM     23  C   UNL     1      34.006 -16.298 -24.950  0.00  0.00    +0.154 A 
ATOM     24  C   UNL     1      33.524 -15.129 -25.698  0.00  0.00    +0.075 C 
BRANCH  22  26
ATOM     25  F   UNL     1      36.252 -20.869 -19.178  0.00  0.00    -0.204 F 
ATOM     26  C   UNL     1      35.100 -18.649 -22.463  0.00  0.00    +0.021 C 
ATOM     27  C   UNL     1      36.418 -18.592 -22.010  0.00  0.00    +0.004 C 
ATOM     28  C   UNL     1      34.172 -19.457 -21.806  0.00  0.00    +0.004 C 
ATOM     29  C   UNL     1      36.807 -19.341 -20.900  0.00  0.00    +0.030 C 
ATOM     30  C   UNL     1      34.561 -20.207 -20.696  0.00  0.00    +0.030 C 
ATOM     31  C   UNL     1      35.878 -20.149 -20.243  0.00  0.00    +0.140 C 
ENDBRANCH  22  26
ENDBRANCH  18  21
ENDBRANCH  17  18
ENDBRANCH   6  17
TORSDOF 5
ENDMDL
MODEL 3
REMARK VINA RESULT:     -10.9      7.326     12.616
REMARK  Name = 57336276
REMARK  5 active torsions:
REMARK  status: ('A' for Active; 'I' for Inactive)
REMARK    1  A    between atoms: C_2  and  C_16
REMARK    2  A    between atoms: C_6  and  O_17
REMARK    3  A    between atoms: O_17  and  C_18
REMARK    4  A    between atoms: C_18  and  C_21
REMARK    5  A    between atoms: C_22  and  C_26
REMARK                            x       y       z     vdW  Elec       q    Type
REMARK                         _______ _______ _______ _____ _____    ______ ____
ROOT
ATOM      1  N   UNL     1      36.156 -20.786 -19.724  0.00  0.00    -0.210 NA
ATOM      2  C   UNL     1      34.990 -18.888 -20.665  0.00  0.00    +0.073 C 
ATOM      3  C   UNL     1      33.781 -19.564 -20.546  0.00  0.00    +0.011 C 
ATOM      4  C   UNL     1      36.140 -19.537 -20.242  0.00  0.00    +0.107 C 
ATOM      5  C   UNL     1      33.758 -20.850 -20.016  0.00  0.00    +0.058 C 
ATOM      6  C   UNL     1      34.962 -21.411 -19.624  0.00  0.00    +0.225 C 
ENDROOT
BRANCH   2  16
ATOM      7  S   UNL     1      34.185 -17.121 -25.431  0.00  0.00    -0.007 S 
ATOM      8  O   UNL     1      32.871 -17.180 -26.041  0.00  0.00    -0.173 OA
ATOM      9  O   UNL     1      35.368 -16.880 -26.236  0.00  0.00    -0.173 OA
ATOM     10  O   UNL     1      34.836 -16.613 -20.428  0.00  0.00    -0.270 OA
ATOM     11  N   UNL     1      35.326 -17.387 -22.580  0.00  0.00    -0.272 N 
ATOM     12  C   UNL     1      34.134 -15.896 -24.133  0.00  0.00    +0.172 C 
ATOM     13  C   UNL     1      34.433 -18.632 -24.513  0.00  0.00    +0.172 C 
ATOM     14  C   UNL     1      35.310 -16.050 -23.181  0.00  0.00    +0.119 C 
ATOM     15  C   UNL     1      35.577 -18.492 -23.519  0.00  0.00    +0.119 C 
ATOM     16  C   UNL     1      35.048 -17.531 -21.219  0.00  0.00    +0.251 C 
ENDBRANCH   2  16
BRANCH   6  17
ATOM     17  O   UNL     1      34.966 -22.676 -19.099  0.00  0.00    -0.455 OA
BRANCH  17  18
ATOM     18  C   UNL     1      33.852 -23.037 -18.291  0.00  0.00    +0.238 C 
BRANCH  18  21
ATOM     19  O   UNL     1      35.471 -22.818 -14.984  0.00  0.00    -0.358 OA
ATOM     20  N   UNL     1      34.181 -23.134 -14.576  0.00  0.00    -0.078 NA
ATOM     21  C   UNL     1      34.264 -23.010 -16.848  0.00  0.00    +0.075 A 
ATOM     22  C   UNL     1      33.478 -23.244 -15.707  0.00  0.00    +0.122 A 
ATOM     23  C   UNL     1      35.508 -22.747 -16.338  0.00  0.00    +0.154 A 
ATOM     24  C   UNL     1      36.809 -22.420 -16.940  0.00  0.00    +0.075 C 
BRANCH  22  26
ATOM     25  F   UNL     1      28.056 -24.499 -15.533  0.00  0.00    -0.204 F 
ATOM     26  C   UNL     1      32.077 -23.569 -15.662  0.00  0.00    +0.021 C 
ATOM     27  C   UNL     1      31.164 -22.825 -16.410  0.00  0.00    +0.004 C 
ATOM     28  C   UNL     1      31.631 -24.627 -14.870  0.00  0.00    +0.004 C 
ATOM     29  C   UNL     1      29.806 -23.140 -16.367  0.00  0.00    +0.030 C 
ATOM     30  C   UNL     1      30.272 -24.942 -14.827  0.00  0.00    +0.030 C 
ATOM     31  C   UNL     1      29.360 -24.198 -15.575  0.00  0.00    +0.140 C 
ENDBRANCH  22  26
ENDBRANCH  18  21
ENDBRANCH  17  18
ENDBRANCH   6  17
TORSDOF 5
ENDMDL
MODEL 4
REMARK VINA RESULT:     -10.7      7.380     12.658
REMARK  Name = 57336276
REMARK  5 active torsions:
REMARK  status: ('A' for Active; 'I' for Inactive)
REMARK    1  A    between atoms: C_2  and  C_16
REMARK    2  A    between atoms: C_6  and  O_17
REMARK    3  A    between atoms: O_17  and  C_18
REMARK    4  A    between atoms: C_18  and  C_21
REMARK    5  A    between atoms: C_22  and  C_26
REMARK                            x       y       z     vdW  Elec       q    Type
REMARK                         _______ _______ _______ _____ _____    ______ ____
ROOT
ATOM      1  N   UNL     1      32.575 -20.532 -20.085  0.00  0.00    -0.210 NA
ATOM      2  C   UNL     1      34.480 -19.161 -20.665  0.00  0.00    +0.073 C 
ATOM      3  C   UNL     1      35.341 -20.157 -20.216  0.00  0.00    +0.011 C 
ATOM      4  C   UNL     1      33.117 -19.395 -20.579  0.00  0.00    +0.107 C 
ATOM      5  C   UNL     1      34.820 -21.340 -19.703  0.00  0.00    +0.058 C 
ATOM      6  C   UNL     1      33.442 -21.476 -19.660  0.00  0.00    +0.225 C 
ENDROOT
BRANCH   2  16
ATOM      7  S   UNL     1      34.222 -17.142 -25.392  0.00  0.00    -0.007 S 
ATOM      8  O   UNL     1      32.956 -16.723 -25.960  0.00  0.00    -0.173 OA
ATOM      9  O   UNL     1      35.392 -17.319 -26.232  0.00  0.00    -0.173 OA
ATOM     10  O   UNL     1      35.146 -16.982 -20.408  0.00  0.00    -0.270 OA
ATOM     11  N   UNL     1      35.272 -17.842 -22.580  0.00  0.00    -0.272 N 
ATOM     12  C   UNL     1      34.642 -16.000 -24.085  0.00  0.00    +0.172 C 
ATOM     13  C   UNL     1      33.946 -18.659 -24.492  0.00  0.00    +0.172 C 
ATOM     14  C   UNL     1      35.713 -16.576 -23.171  0.00  0.00    +0.119 C 
ATOM     15  C   UNL     1      35.092 -18.948 -23.534  0.00  0.00    +0.119 C 
ATOM     16  C   UNL     1      34.998 -17.902 -21.212  0.00  0.00    +0.251 C 
ENDBRANCH   2  16
BRANCH   6  17
ATOM     17  O   UNL     1      32.905 -22.633 -19.158  0.00  0.00    -0.455 OA
BRANCH  17  18
ATOM     18  C   UNL     1      33.735 -23.404 -18.299  0.00  0.00    +0.238 C 
BRANCH  18  21
ATOM     19  O   UNL     1      31.933 -22.946 -15.112  0.00  0.00    -0.358 OA
ATOM     20  N   UNL     1      33.207 -23.189 -14.612  0.00  0.00    -0.078 NA
ATOM     21  C   UNL     1      33.244 -23.263 -16.887  0.00  0.00    +0.075 A 
ATOM     22  C   UNL     1      33.973 -23.375 -15.690  0.00  0.00    +0.122 A 
ATOM     23  C   UNL     1      31.968 -22.992 -16.468  0.00  0.00    +0.154 A 
ATOM     24  C   UNL     1      30.696 -22.755 -17.163  0.00  0.00    +0.075 C 
BRANCH  22  26
ATOM     25  F   UNL     1      39.405 -24.460 -15.126  0.00  0.00    -0.204 F 
ATOM     26  C   UNL     1      35.376 -23.655 -15.544  0.00  0.00    +0.021 C 
ATOM     27  C   UNL     1      36.321 -22.701 -15.922  0.00  0.00    +0.004 C 
ATOM     28  C   UNL     1      35.793 -24.882 -15.026  0.00  0.00    +0.004 C 
ATOM     29  C   UNL     1      37.682 -22.973 -15.780  0.00  0.00    +0.030 C 
ATOM     30  C   UNL     1      37.154 -25.153 -14.885  0.00  0.00    +0.030 C 
ATOM     31  C   UNL     1      38.098 -24.199 -15.262  0.00  0.00    +0.140 C 
ENDBRANCH  22  26
ENDBRANCH  18  21
ENDBRANCH  17  18
ENDBRANCH   6  17
TORSDOF 5
ENDMDL
MODEL 5
REMARK VINA RESULT:     -10.5      4.091      7.324
REMARK  Name = 57336276
REMARK  5 active torsions:
REMARK  status: ('A' for Active; 'I' for Inactive)
REMARK    1  A    between atoms: C_2  and  C_16
REMARK    2  A    between atoms: C_6  and  O_17
REMARK    3  A    between atoms: O_17  and  C_18
REMARK    4  A    between atoms: C_18  and  C_21
REMARK    5  A    between atoms: C_22  and  C_26
REMARK                            x       y       z     vdW  Elec       q    Type
REMARK                         _______ _______ _______ _____ _____    ______ ____
ROOT
ATOM      1  N   UNL     1      33.829 -18.308 -21.281  0.00  0.00    -0.210 NA
ATOM      2  C   UNL     1      34.299 -20.438 -20.237  0.00  0.00    +0.073 C 
ATOM      3  C   UNL     1      35.653 -20.280 -20.511  0.00  0.00    +0.011 C 
ATOM      4  C   UNL     1      33.435 -19.431 -20.640  0.00  0.00    +0.107 C 
ATOM      5  C   UNL     1      36.096 -19.138 -21.168  0.00  0.00    +0.058 C 
ATOM      6  C   UNL     1      35.152 -18.190 -21.529  0.00  0.00    +0.225 C 
ENDROOT
BRANCH   2  16
ATOM      7  S   UNL     1      35.845 -22.761 -15.913  0.00  0.00    -0.007 S 
ATOM      8  O   UNL     1      35.712 -22.111 -14.624  0.00  0.00    -0.173 OA
ATOM      9  O   UNL     1      36.702 -23.920 -16.076  0.00  0.00    -0.173 OA
ATOM     10  O   UNL     1      32.615 -21.907 -19.728  0.00  0.00    -0.270 OA
ATOM     11  N   UNL     1      34.690 -22.345 -18.740  0.00  0.00    -0.272 N 
ATOM     12  C   UNL     1      34.208 -23.193 -16.481  0.00  0.00    +0.172 C 
ATOM     13  C   UNL     1      36.342 -21.526 -17.103  0.00  0.00    +0.172 C 
ATOM     14  C   UNL     1      34.201 -23.494 -17.972  0.00  0.00    +0.119 C 
ATOM     15  C   UNL     1      36.105 -22.006 -18.527  0.00  0.00    +0.119 C 
ATOM     16  C   UNL     1      33.799 -21.631 -19.545  0.00  0.00    +0.251 C 
ENDBRANCH   2  16
BRANCH   6  17
ATOM     17  O   UNL     1      35.564 -17.056 -22.178  0.00  0.00    -0.455 OA
BRANCH  17  18
ATOM     18  C   UNL     1      34.604 -16.016 -22.323  0.00  0.00    +0.238 C 
BRANCH  18  21
ATOM     19  O   UNL     1      33.875 -16.375 -25.921  0.00  0.00    -0.358 OA
ATOM     20  N   UNL     1      33.417 -15.076 -25.732  0.00  0.00    -0.078 NA
ATOM     21  C   UNL     1      34.214 -15.907 -23.767  0.00  0.00    +0.075 A 
ATOM     22  C   UNL     1      33.630 -14.819 -24.439  0.00  0.00    +0.122 A 
ATOM     23  C   UNL     1      34.347 -16.859 -24.744  0.00  0.00    +0.154 A 
ATOM     24  C   UNL     1      34.873 -18.231 -24.766  0.00  0.00    +0.075 C 
BRANCH  22  26
ATOM     25  F   UNL     1      32.233  -9.875 -22.292  0.00  0.00    -0.204 F 
ATOM     26  C   UNL     1      33.270 -13.542 -23.884  0.00  0.00    +0.021 C 
ATOM     27  C   UNL     1      32.351 -13.470 -22.837  0.00  0.00    +0.004 C 
ATOM     28  C   UNL     1      33.838 -12.373 -24.393  0.00  0.00    +0.004 C 
ATOM     29  C   UNL     1      32.001 -12.232 -22.298  0.00  0.00    +0.030 C 
ATOM     30  C   UNL     1      33.487 -11.135 -23.855  0.00  0.00    +0.030 C 
ATOM     31  C   UNL     1      32.569 -11.064 -22.808  0.00  0.00    +0.140 C 
ENDBRANCH  22  26
ENDBRANCH  18  21
ENDBRANCH  17  18
ENDBRANCH   6  17
TORSDOF 5
ENDMDL
MODEL 6
REMARK VINA RESULT:     -10.4      4.298     10.019
REMARK  Name = 57336276
REMARK  5 active torsions:
REMARK  status: ('A' for Active; 'I' for Inactive)
REMARK    1  A    between atoms: C_2  and  C_16
REMARK    2  A    between atoms: C_6  and  O_17
REMARK    3  A    between atoms: O_17  and  C_18
REMARK    4  A    between atoms: C_18  and  C_21
REMARK    5  A    between atoms: C_22  and  C_26
REMARK                            x       y       z     vdW  Elec       q    Type
REMARK                         _______ _______ _______ _____ _____    ______ ____
ROOT
ATOM      1  N   UNL     1      33.019 -11.280 -23.317  0.00  0.00    -0.210 NA
ATOM      2  C   UNL     1      32.121  -9.690 -21.732  0.00  0.00    +0.073 C 
ATOM      3  C   UNL     1      31.383 -10.700 -21.126  0.00  0.00    +0.011 C 
ATOM      4  C   UNL     1      32.918 -10.029 -22.815  0.00  0.00    +0.107 C 
ATOM      5  C   UNL     1      31.462 -12.000 -21.614  0.00  0.00    +0.058 C 
ATOM      6  C   UNL     1      32.287 -12.235 -22.702  0.00  0.00    +0.225 C 
ENDROOT
BRANCH   2  16
ATOM      7  S   UNL     1      31.323  -5.238 -24.187  0.00  0.00    -0.007 S 
ATOM      8  O   UNL     1      30.046  -4.942 -24.808  0.00  0.00    -0.173 OA
ATOM      9  O   UNL     1      32.504  -4.461 -24.511  0.00  0.00    -0.173 OA
ATOM     10  O   UNL     1      31.725  -8.166 -20.067  0.00  0.00    -0.270 OA
ATOM     11  N   UNL     1      32.374  -7.279 -22.132  0.00  0.00    -0.272 N 
ATOM     12  C   UNL     1      31.096  -5.196 -22.417  0.00  0.00    +0.172 C 
ATOM     13  C   UNL     1      31.690  -6.960 -24.480  0.00  0.00    +0.172 C 
ATOM     14  C   UNL     1      32.244  -5.886 -21.696  0.00  0.00    +0.119 C 
ATOM     15  C   UNL     1      32.774  -7.461 -23.536  0.00  0.00    +0.119 C 
ATOM     16  C   UNL     1      32.060  -8.308 -21.241  0.00  0.00    +0.251 C 
ENDBRANCH   2  16
BRANCH   6  17
ATOM     17  O   UNL     1      32.381 -13.508 -23.201  0.00  0.00    -0.455 OA
BRANCH  17  18
ATOM     18  C   UNL     1      33.689 -14.055 -23.317  0.00  0.00    +0.238 C 
BRANCH  18  21
ATOM     19  O   UNL     1      33.613 -15.697 -26.619  0.00  0.00    -0.358 OA
ATOM     20  N   UNL     1      34.049 -16.769 -25.851  0.00  0.00    -0.078 NA
ATOM     21  C   UNL     1      33.744 -14.943 -24.525  0.00  0.00    +0.075 A 
ATOM     22  C   UNL     1      34.119 -16.295 -24.604  0.00  0.00    +0.122 A 
ATOM     23  C   UNL     1      33.434 -14.615 -25.819  0.00  0.00    +0.154 A 
ATOM     24  C   UNL     1      32.971 -13.385 -26.477  0.00  0.00    +0.075 C 
BRANCH  22  26
ATOM     25  F   UNL     1      35.765 -19.596 -20.433  0.00  0.00    -0.204 F 
ATOM     26  C   UNL     1      34.544 -17.148 -23.526  0.00  0.00    +0.021 C 
ATOM     27  C   UNL     1      34.830 -16.602 -22.275  0.00  0.00    +0.004 C 
ATOM     28  C   UNL     1      34.673 -18.522 -23.732  0.00  0.00    +0.004 C 
ATOM     29  C   UNL     1      35.241 -17.429 -21.230  0.00  0.00    +0.030 C 
ATOM     30  C   UNL     1      35.085 -19.349 -22.687  0.00  0.00    +0.030 C 
ATOM     31  C   UNL     1      35.370 -18.802 -21.436  0.00  0.00    +0.140 C 
ENDBRANCH  22  26
ENDBRANCH  18  21
ENDBRANCH  17  18
ENDBRANCH   6  17
TORSDOF 5
ENDMDL
MODEL 7
REMARK VINA RESULT:     -10.4      4.338     10.191
REMARK  Name = 57336276
REMARK  5 active torsions:
REMARK  status: ('A' for Active; 'I' for Inactive)
REMARK    1  A    between atoms: C_2  and  C_16
REMARK    2  A    between atoms: C_6  and  O_17
REMARK    3  A    between atoms: O_17  and  C_18
REMARK    4  A    between atoms: C_18  and  C_21
REMARK    5  A    between atoms: C_22  and  C_26
REMARK                            x       y       z     vdW  Elec       q    Type
REMARK                         _______ _______ _______ _____ _____    ______ ____
ROOT
ATOM      1  N   UNL     1      34.184 -14.001 -23.333  0.00  0.00    -0.210 NA
ATOM      2  C   UNL     1      33.172 -11.807 -23.259  0.00  0.00    +0.073 C 
ATOM      3  C   UNL     1      32.164 -12.292 -22.434  0.00  0.00    +0.011 C 
ATOM      4  C   UNL     1      34.151 -12.694 -23.678  0.00  0.00    +0.107 C 
ATOM      5  C   UNL     1      32.165 -13.631 -22.058  0.00  0.00    +0.058 C 
ATOM      6  C   UNL     1      33.188 -14.436 -22.530  0.00  0.00    +0.225 C 
ENDROOT
BRANCH   2  16
ATOM      7  S   UNL     1      32.364  -7.463 -20.619  0.00  0.00    -0.007 S 
ATOM      8  O   UNL     1      33.274  -7.042 -19.571  0.00  0.00    -0.173 OA
ATOM      9  O   UNL     1      31.044  -6.874 -20.737  0.00  0.00    -0.173 OA
ATOM     10  O   UNL     1      33.908 -10.134 -24.643  0.00  0.00    -0.270 OA
ATOM     11  N   UNL     1      32.437  -9.484 -22.945  0.00  0.00    -0.272 N 
ATOM     12  C   UNL     1      33.202  -7.273 -22.183  0.00  0.00    +0.172 C 
ATOM     13  C   UNL     1      32.178  -9.235 -20.505  0.00  0.00    +0.172 C 
ATOM     14  C   UNL     1      32.506  -8.060 -23.283  0.00  0.00    +0.119 C 
ATOM     15  C   UNL     1      31.592  -9.811 -21.786  0.00  0.00    +0.119 C 
ATOM     16  C   UNL     1      33.199 -10.399 -23.674  0.00  0.00    +0.251 C 
ENDBRANCH   2  16
BRANCH   6  17
ATOM     17  O   UNL     1      33.212 -15.759 -22.173  0.00  0.00    -0.455 OA
BRANCH  17  18
ATOM     18  C   UNL     1      34.484 -16.394 -22.148  0.00  0.00    +0.238 C 
BRANCH  18  21
ATOM     19  O   UNL     1      34.577 -18.460 -25.202  0.00  0.00    -0.358 OA
ATOM     20  N   UNL     1      34.613 -19.472 -24.250  0.00  0.00    -0.078 NA
ATOM     21  C   UNL     1      34.529 -17.445 -23.217  0.00  0.00    +0.075 A 
ATOM     22  C   UNL     1      34.583 -18.842 -23.073  0.00  0.00    +0.122 A 
ATOM     23  C   UNL     1      34.527 -17.258 -24.575  0.00  0.00    +0.154 A 
ATOM     24  C   UNL     1      34.484 -16.071 -25.440  0.00  0.00    +0.075 C 
BRANCH  22  26
ATOM     25  F   UNL     1      34.678 -21.748 -18.325  0.00  0.00    -0.204 F 
ATOM     26  C   UNL     1      34.608 -19.593 -21.846  0.00  0.00    +0.021 C 
ATOM     27  C   UNL     1      33.412 -19.948 -21.221  0.00  0.00    +0.004 C 
ATOM     28  C   UNL     1      35.827 -19.966 -21.280  0.00  0.00    +0.004 C 
ATOM     29  C   UNL     1      33.436 -20.677 -20.032  0.00  0.00    +0.030 C 
ATOM     30  C   UNL     1      35.851 -20.695 -20.091  0.00  0.00    +0.030 C 
ATOM     31  C   UNL     1      34.656 -21.049 -19.467  0.00  0.00    +0.140 C 
ENDBRANCH  22  26
ENDBRANCH  18  21
ENDBRANCH  17  18
ENDBRANCH   6  17
TORSDOF 5
ENDMDL
MODEL 8
REMARK VINA RESULT:     -10.3      7.701     12.929
REMARK  Name = 57336276
REMARK  5 active torsions:
REMARK  status: ('A' for Active; 'I' for Inactive)
REMARK    1  A    between atoms: C_2  and  C_16
REMARK    2  A    between atoms: C_6  and  O_17
REMARK    3  A    between atoms: O_17  and  C_18
REMARK    4  A    between atoms: C_18  and  C_21
REMARK    5  A    between atoms: C_22  and  C_26
REMARK                            x       y       z     vdW  Elec       q    Type
REMARK                         _______ _______ _______ _____ _____    ______ ____
ROOT
ATOM      1  N   UNL     1      35.817 -21.203 -19.509  0.00  0.00    -0.210 NA
ATOM      2  C   UNL     1      34.626 -19.978 -21.220  0.00  0.00    +0.073 C 
ATOM      3  C   UNL     1      33.416 -20.454 -20.728  0.00  0.00    +0.011 C 
ATOM      4  C   UNL     1      35.789 -20.378 -20.580  0.00  0.00    +0.107 C 
ATOM      5  C   UNL     1      33.405 -21.304 -19.627  0.00  0.00    +0.058 C 
ATOM      6  C   UNL     1      34.622 -21.645 -19.060  0.00  0.00    +0.225 C 
ENDROOT
BRANCH   2  16
ATOM      7  S   UNL     1      34.346 -14.850 -21.567  0.00  0.00    -0.007 S 
ATOM      8  O   UNL     1      35.393 -14.004 -21.028  0.00  0.00    -0.173 OA
ATOM      9  O   UNL     1      33.051 -14.299 -21.916  0.00  0.00    -0.173 OA
ATOM     10  O   UNL     1      35.272 -19.500 -23.367  0.00  0.00    -0.270 OA
ATOM     11  N   UNL     1      34.046 -17.835 -22.272  0.00  0.00    -0.272 N 
ATOM     12  C   UNL     1      35.001 -15.688 -23.001  0.00  0.00    +0.172 C 
ATOM     13  C   UNL     1      34.090 -16.200 -20.427  0.00  0.00    +0.172 C 
ATOM     14  C   UNL     1      34.142 -16.884 -23.383  0.00  0.00    +0.119 C 
ATOM     15  C   UNL     1      33.329 -17.341 -21.086  0.00  0.00    +0.119 C 
ATOM     16  C   UNL     1      34.671 -19.079 -22.380  0.00  0.00    +0.251 C 
ENDBRANCH   2  16
BRANCH   6  17
ATOM     17  O   UNL     1      34.637 -22.481 -17.974  0.00  0.00    -0.455 OA
BRANCH  17  18
ATOM     18  C   UNL     1      33.550 -23.390 -17.850  0.00  0.00    +0.238 C 
BRANCH  18  21
ATOM     19  O   UNL     1      31.788 -23.242 -14.612  0.00  0.00    -0.358 OA
ATOM     20  N   UNL     1      33.057 -23.577 -14.157  0.00  0.00    -0.078 NA
ATOM     21  C   UNL     1      33.075 -23.395 -16.427  0.00  0.00    +0.075 A 
ATOM     22  C   UNL     1      33.809 -23.663 -15.258  0.00  0.00    +0.122 A 
ATOM     23  C   UNL     1      31.811 -23.136 -15.965  0.00  0.00    +0.154 A 
ATOM     24  C   UNL     1      30.541 -22.785 -16.615  0.00  0.00    +0.075 C 
BRANCH  22  26
ATOM     25  F   UNL     1      39.210 -24.962 -14.878  0.00  0.00    -0.204 F 
ATOM     26  C   UNL     1      35.204 -23.998 -15.160  0.00  0.00    +0.021 C 
ATOM     27  C   UNL     1      35.598 -25.335 -15.091  0.00  0.00    +0.004 C 
ATOM     28  C   UNL     1      36.166 -22.987 -15.134  0.00  0.00    +0.004 C 
ATOM     29  C   UNL     1      36.951 -25.660 -14.997  0.00  0.00    +0.030 C 
ATOM     30  C   UNL     1      37.519 -23.313 -15.038  0.00  0.00    +0.030 C 
ATOM     31  C   UNL     1      37.911 -24.649 -14.970  0.00  0.00    +0.140 C 
ENDBRANCH  22  26
ENDBRANCH  18  21
ENDBRANCH  17  18
ENDBRANCH   6  17
TORSDOF 5
ENDMDL
MODEL 9
REMARK VINA RESULT:     -10.1      7.661     12.804
REMARK  Name = 57336276
REMARK  5 active torsions:
REMARK  status: ('A' for Active; 'I' for Inactive)
REMARK    1  A    between atoms: C_2  and  C_16
REMARK    2  A    between atoms: C_6  and  O_17
REMARK    3  A    between atoms: O_17  and  C_18
REMARK    4  A    between atoms: C_18  and  C_21
REMARK    5  A    between atoms: C_22  and  C_26
REMARK                            x       y       z     vdW  Elec       q    Type
REMARK                         _______ _______ _______ _____ _____    ______ ____
ROOT
ATOM      1  N   UNL     1      36.297 -20.972 -19.538  0.00  0.00    -0.210 NA
ATOM      2  C   UNL     1      34.913 -19.915 -21.214  0.00  0.00    +0.073 C 
ATOM      3  C   UNL     1      33.787 -20.538 -20.687  0.00  0.00    +0.011 C 
ATOM      4  C   UNL     1      36.135 -20.163 -20.608  0.00  0.00    +0.107 C 
ATOM      5  C   UNL     1      33.915 -21.377 -19.585  0.00  0.00    +0.058 C 
ATOM      6  C   UNL     1      35.181 -21.559 -19.053  0.00  0.00    +0.225 C 
ENDROOT
BRANCH   2  16
ATOM      7  S   UNL     1      34.343 -14.811 -21.549  0.00  0.00    -0.007 S 
ATOM      8  O   UNL     1      35.388 -13.909 -21.106  0.00  0.00    -0.173 OA
ATOM      9  O   UNL     1      32.996 -14.328 -21.785  0.00  0.00    -0.173 OA
ATOM     10  O   UNL     1      35.345 -19.420 -23.411  0.00  0.00    -0.270 OA
ATOM     11  N   UNL     1      34.135 -17.812 -22.218  0.00  0.00    -0.272 N 
ATOM     12  C   UNL     1      34.913 -15.624 -23.032  0.00  0.00    +0.172 C 
ATOM     13  C   UNL     1      34.256 -16.164 -20.387  0.00  0.00    +0.172 C 
ATOM     14  C   UNL     1      34.086 -16.865 -23.335  0.00  0.00    +0.119 C 
ATOM     15  C   UNL     1      33.500 -17.347 -20.975  0.00  0.00    +0.119 C 
ATOM     16  C   UNL     1      34.811 -19.024 -22.376  0.00  0.00    +0.251 C 
ENDBRANCH   2  16
BRANCH   6  17
ATOM     17  O   UNL     1      35.333 -22.382 -17.967  0.00  0.00    -0.455 OA
BRANCH  17  18
ATOM     18  C   UNL     1      34.161 -23.026 -17.483  0.00  0.00    +0.238 C 
BRANCH  18  21
ATOM     19  O   UNL     1      35.208 -23.599 -13.993  0.00  0.00    -0.358 OA
ATOM     20  N   UNL     1      33.839 -23.782 -13.844  0.00  0.00    -0.078 NA
ATOM     21  C   UNL     1      34.321 -23.298 -16.016  0.00  0.00    +0.075 A 
ATOM     22  C   UNL     1      33.330 -23.598 -15.066  0.00  0.00    +0.122 A 
ATOM     23  C   UNL     1      35.483 -23.312 -15.290  0.00  0.00    +0.154 A 
ATOM     24  C   UNL     1      36.897 -23.087 -15.624  0.00  0.00    +0.075 C 
BRANCH  22  26
ATOM     25  F   UNL     1      27.847 -24.044 -15.924  0.00  0.00    -0.204 F 
ATOM     26  C   UNL     1      31.914 -23.713 -15.287  0.00  0.00    +0.021 C 
ATOM     27  C   UNL     1      31.181 -24.697 -14.624  0.00  0.00    +0.004 C 
ATOM     28  C   UNL     1      31.271 -22.841 -16.167  0.00  0.00    +0.004 C 
ATOM     29  C   UNL     1      29.808 -24.809 -14.838  0.00  0.00    +0.030 C 
ATOM     30  C   UNL     1      29.897 -22.953 -16.382  0.00  0.00    +0.030 C 
ATOM     31  C   UNL     1      29.166 -23.937 -15.718  0.00  0.00    +0.140 C 
ENDBRANCH  22  26
ENDBRANCH  18  21
ENDBRANCH  17  18
ENDBRANCH   6  17
TORSDOF 5
ENDMDL
