MODEL 1
REMARK VINA RESULT:      -8.6      0.000      0.000
REMARK  Name = 3037705
REMARK  1 active torsions:
REMARK  status: ('A' for Active; 'I' for Inactive)
REMARK    1  A    between atoms: C_12  and  O_22
REMARK                            x       y       z     vdW  Elec       q    Type
REMARK                         _______ _______ _______ _____ _____    ______ ____
ROOT
ATOM      1  O   UNL     1      40.847 -24.900 -14.856  0.00  0.00    -0.291 OA
ATOM      2  C   UNL     1      34.571 -23.278 -15.451  0.00  0.00    +0.000 C 
ATOM      3  C   UNL     1      33.129 -23.648 -15.825  0.00  0.00    +0.002 C 
ATOM      4  C   UNL     1      35.191 -24.436 -14.576  0.00  0.00    +0.003 C 
ATOM      5  C   UNL     1      32.217 -23.793 -14.595  0.00  0.00    +0.025 C 
ATOM      6  C   UNL     1      36.735 -24.189 -14.235  0.00  0.00    +0.016 C 
ATOM      7  C   UNL     1      34.249 -24.674 -13.353  0.00  0.00    +0.000 C 
ATOM      8  C   UNL     1      32.775 -24.925 -13.733  0.00  0.00    +0.002 C 
ATOM      9  C   UNL     1      37.463 -23.819 -15.585  0.00  0.00    +0.011 C 
ATOM     10  C   UNL     1      35.392 -22.985 -16.704  0.00  0.00    +0.000 C 
ATOM     11  C   UNL     1      32.328 -22.736 -16.751  0.00  0.00    +0.003 C 
ATOM     12  C   UNL     1      30.887 -24.114 -15.306  0.00  0.00    +0.110 C 
ATOM     13  C   UNL     1      36.827 -22.656 -16.345  0.00  0.00    +0.001 C 
ATOM     14  C   UNL     1      30.865 -23.150 -16.506  0.00  0.00    +0.029 C 
ATOM     15  C   UNL     1      32.069 -22.510 -13.737  0.00  0.00    +0.002 C 
ATOM     16  C   UNL     1      37.517 -25.410 -13.665  0.00  0.00    -0.042 C 
ATOM     17  C   UNL     1      36.866 -23.055 -13.189  0.00  0.00    +0.004 C 
ATOM     18  C   UNL     1      38.959 -23.547 -15.410  0.00  0.00    +0.069 C 
ATOM     19  C   UNL     1      38.822 -25.628 -13.921  0.00  0.00    +0.029 C 
ATOM     20  C   UNL     1      39.637 -24.713 -14.750  0.00  0.00    +0.173 C 
ATOM     21  C   UNL     1      36.849 -26.389 -12.741  0.00  0.00    +0.026 C 
ENDROOT
BRANCH  12  22
ATOM     22  O   UNL     1      29.745 -23.932 -14.491  0.00  0.00    -0.384 OA
ATOM     23  H   UNL     1      29.346 -24.794 -14.296  0.00  0.00    +0.210 HD
ENDBRANCH  12  22
TORSDOF 1
ENDMDL
MODEL 2
REMARK VINA RESULT:      -8.2      3.382      6.131
REMARK  Name = 3037705
REMARK  1 active torsions:
REMARK  status: ('A' for Active; 'I' for Inactive)
REMARK    1  A    between atoms: C_12  and  O_22
REMARK                            x       y       z     vdW  Elec       q    Type
REMARK                         _______ _______ _______ _____ _____    ______ ____
ROOT
ATOM      1  O   UNL     1      34.192 -19.460 -21.991  0.00  0.00    -0.291 OA
ATOM      2  C   UNL     1      36.054 -22.762 -16.700  0.00  0.00    +0.000 C 
ATOM      3  C   UNL     1      36.110 -22.910 -15.173  0.00  0.00    +0.002 C 
ATOM      4  C   UNL     1      34.586 -22.370 -17.126  0.00  0.00    +0.003 C 
ATOM      5  C   UNL     1      35.196 -24.032 -14.652  0.00  0.00    +0.025 C 
ATOM      6  C   UNL     1      34.459 -22.080 -18.695  0.00  0.00    +0.016 C 
ATOM      7  C   UNL     1      33.610 -23.443 -16.546  0.00  0.00    +0.000 C 
ATOM      8  C   UNL     1      33.758 -23.674 -15.029  0.00  0.00    +0.002 C 
ATOM      9  C   UNL     1      35.627 -21.095 -19.089  0.00  0.00    +0.011 C 
ATOM     10  C   UNL     1      37.095 -21.754 -17.180  0.00  0.00    +0.000 C 
ATOM     11  C   UNL     1      37.444 -23.197 -14.487  0.00  0.00    +0.003 C 
ATOM     12  C   UNL     1      35.515 -23.938 -13.147  0.00  0.00    +0.110 C 
ATOM     13  C   UNL     1      37.019 -21.574 -18.682  0.00  0.00    +0.001 C 
ATOM     14  C   UNL     1      37.042 -23.738 -13.102  0.00  0.00    +0.029 C 
ATOM     15  C   UNL     1      35.535 -25.449 -15.183  0.00  0.00    +0.002 C 
ATOM     16  C   UNL     1      33.150 -21.377 -19.161  0.00  0.00    -0.042 C 
ATOM     17  C   UNL     1      34.548 -23.410 -19.482  0.00  0.00    +0.004 C 
ATOM     18  C   UNL     1      35.635 -20.732 -20.576  0.00  0.00    +0.069 C 
ATOM     19  C   UNL     1      33.111 -20.511 -20.193  0.00  0.00    +0.029 C 
ATOM     20  C   UNL     1      34.308 -20.166 -20.991  0.00  0.00    +0.173 C 
ATOM     21  C   UNL     1      31.834 -21.681 -18.501  0.00  0.00    +0.026 C 
ENDROOT
BRANCH  12  22
ATOM     22  O   UNL     1      35.134 -25.083 -12.409  0.00  0.00    -0.384 OA
ATOM     23  H   UNL     1      34.441 -25.562 -12.890  0.00  0.00    +0.210 HD
ENDBRANCH  12  22
TORSDOF 1
ENDMDL
MODEL 3
REMARK VINA RESULT:      -8.0     19.689     21.852
REMARK  Name = 3037705
REMARK  1 active torsions:
REMARK  status: ('A' for Active; 'I' for Inactive)
REMARK    1  A    between atoms: C_12  and  O_22
REMARK                            x       y       z     vdW  Elec       q    Type
REMARK                         _______ _______ _______ _____ _____    ______ ____
ROOT
ATOM      1  O   UNL     1      31.941  -7.787 -19.554  0.00  0.00    -0.291 OA
ATOM      2  C   UNL     1      32.250  -4.384 -25.095  0.00  0.00    +0.000 C 
ATOM      3  C   UNL     1      33.002  -3.427 -26.030  0.00  0.00    +0.002 C 
ATOM      4  C   UNL     1      33.245  -5.499 -24.590  0.00  0.00    +0.003 C 
ATOM      5  C   UNL     1      33.537  -4.128 -27.290  0.00  0.00    +0.025 C 
ATOM      6  C   UNL     1      32.576  -6.478 -23.514  0.00  0.00    +0.016 C 
ATOM      7  C   UNL     1      33.877  -6.187 -25.843  0.00  0.00    +0.000 C 
ATOM      8  C   UNL     1      34.525  -5.204 -26.840  0.00  0.00    +0.002 C 
ATOM      9  C   UNL     1      31.873  -5.576 -22.429  0.00  0.00    +0.011 C 
ATOM     10  C   UNL     1      31.601  -3.613 -23.948  0.00  0.00    +0.000 C 
ATOM     11  C   UNL     1      32.290  -2.197 -26.588  0.00  0.00    +0.003 C 
ATOM     12  C   UNL     1      34.175  -2.918 -28.000  0.00  0.00    +0.110 C 
ATOM     13  C   UNL     1      30.889  -4.556 -22.999  0.00  0.00    +0.001 C 
ATOM     14  C   UNL     1      33.150  -1.786 -27.798  0.00  0.00    +0.029 C 
ATOM     15  C   UNL     1      32.450  -4.765 -28.193  0.00  0.00    +0.002 C 
ATOM     16  C   UNL     1      33.552  -7.397 -22.720  0.00  0.00    -0.042 C 
ATOM     17  C   UNL     1      31.564  -7.415 -24.218  0.00  0.00    +0.004 C 
ATOM     18  C   UNL     1      31.178  -6.384 -21.330  0.00  0.00    +0.069 C 
ATOM     19  C   UNL     1      33.338  -7.759 -21.440  0.00  0.00    +0.029 C 
ATOM     20  C   UNL     1      32.142  -7.333 -20.679  0.00  0.00    +0.173 C 
ATOM     21  C   UNL     1      34.773  -7.975 -23.378  0.00  0.00    +0.026 C 
ENDROOT
BRANCH  12  22
ATOM     22  O   UNL     1      34.429  -3.130 -29.375  0.00  0.00    -0.384 OA
ATOM     23  H   UNL     1      33.688  -3.616 -29.769  0.00  0.00    +0.210 HD
ENDBRANCH  12  22
TORSDOF 1
ENDMDL
MODEL 4
REMARK VINA RESULT:      -7.8      1.463      3.231
REMARK  Name = 3037705
REMARK  1 active torsions:
REMARK  status: ('A' for Active; 'I' for Inactive)
REMARK    1  A    between atoms: C_12  and  O_22
REMARK                            x       y       z     vdW  Elec       q    Type
REMARK                         _______ _______ _______ _____ _____    ______ ____
ROOT
ATOM      1  O   UNL     1      39.183 -24.170 -12.894  0.00  0.00    -0.291 OA
ATOM      2  C   UNL     1      32.854 -23.870 -14.385  0.00  0.00    +0.000 C 
ATOM      3  C   UNL     1      31.603 -23.048 -14.725  0.00  0.00    +0.002 C 
ATOM      4  C   UNL     1      34.072 -23.328 -15.230  0.00  0.00    +0.003 C 
ATOM      5  C   UNL     1      31.193 -23.175 -16.202  0.00  0.00    +0.025 C 
ATOM      6  C   UNL     1      35.450 -24.052 -14.855  0.00  0.00    +0.016 C 
ATOM      7  C   UNL     1      33.668 -23.363 -16.739  0.00  0.00    +0.000 C 
ATOM      8  C   UNL     1      32.344 -22.638 -17.053  0.00  0.00    +0.002 C 
ATOM      9  C   UNL     1      35.579 -24.033 -13.283  0.00  0.00    +0.011 C 
ATOM     10  C   UNL     1      33.122 -23.842 -12.883  0.00  0.00    +0.000 C 
ATOM     11  C   UNL     1      30.298 -23.307 -13.975  0.00  0.00    +0.003 C 
ATOM     12  C   UNL     1      29.929 -22.294 -16.189  0.00  0.00    +0.110 C 
ATOM     13  C   UNL     1      34.378 -24.620 -12.544  0.00  0.00    +0.001 C 
ATOM     14  C   UNL     1      29.219 -22.681 -14.878  0.00  0.00    +0.029 C 
ATOM     15  C   UNL     1      30.837 -24.614 -16.658  0.00  0.00    +0.002 C 
ATOM     16  C   UNL     1      36.748 -23.375 -15.386  0.00  0.00    -0.042 C 
ATOM     17  C   UNL     1      35.449 -25.498 -15.408  0.00  0.00    +0.004 C 
ATOM     18  C   UNL     1      36.858 -24.704 -12.775  0.00  0.00    +0.069 C 
ATOM     19  C   UNL     1      37.914 -23.397 -14.710  0.00  0.00    +0.029 C 
ATOM     20  C   UNL     1      38.070 -24.085 -13.410  0.00  0.00    +0.173 C 
ATOM     21  C   UNL     1      36.773 -22.702 -16.729  0.00  0.00    +0.026 C 
ENDROOT
BRANCH  12  22
ATOM     22  O   UNL     1      29.079 -22.497 -17.302  0.00  0.00    -0.384 OA
ATOM     23  H   UNL     1      28.898 -21.646 -17.730  0.00  0.00    +0.210 HD
ENDBRANCH  12  22
TORSDOF 1
ENDMDL
MODEL 5
REMARK VINA RESULT:      -7.5     12.259     14.821
REMARK  Name = 3037705
REMARK  1 active torsions:
REMARK  status: ('A' for Active; 'I' for Inactive)
REMARK    1  A    between atoms: C_12  and  O_22
REMARK                            x       y       z     vdW  Elec       q    Type
REMARK                         _______ _______ _______ _____ _____    ______ ____
ROOT
ATOM      1  O   UNL     1      31.475  -6.880 -22.362  0.00  0.00    -0.291 OA
ATOM      2  C   UNL     1      33.196 -13.147 -22.734  0.00  0.00    +0.000 C 
ATOM      3  C   UNL     1      34.175 -14.282 -22.401  0.00  0.00    +0.002 C 
ATOM      4  C   UNL     1      32.934 -12.293 -21.434  0.00  0.00    +0.003 C 
ATOM      5  C   UNL     1      33.615 -15.257 -21.351  0.00  0.00    +0.025 C 
ATOM      6  C   UNL     1      32.013 -11.014 -21.713  0.00  0.00    +0.016 C 
ATOM      7  C   UNL     1      32.439 -13.261 -20.311  0.00  0.00    +0.000 C 
ATOM      8  C   UNL     1      33.369 -14.467 -20.066  0.00  0.00    +0.002 C 
ATOM      9  C   UNL     1      32.608 -10.271 -22.971  0.00  0.00    +0.011 C 
ATOM     10  C   UNL     1      33.726 -12.305 -23.892  0.00  0.00    +0.000 C 
ATOM     11  C   UNL     1      34.671 -15.206 -23.510  0.00  0.00    +0.003 C 
ATOM     12  C   UNL     1      34.788 -16.255 -21.285  0.00  0.00    +0.110 C 
ATOM     13  C   UNL     1      32.784 -11.159 -24.202  0.00  0.00    +0.001 C 
ATOM     14  C   UNL     1      35.203 -16.440 -22.757  0.00  0.00    +0.029 C 
ATOM     15  C   UNL     1      32.314 -15.989 -21.770  0.00  0.00    +0.002 C 
ATOM     16  C   UNL     1      31.964  -9.942 -20.584  0.00  0.00    -0.042 C 
ATOM     17  C   UNL     1      30.552 -11.464 -21.957  0.00  0.00    +0.004 C 
ATOM     18  C   UNL     1      31.817  -9.021 -23.364  0.00  0.00    +0.069 C 
ATOM     19  C   UNL     1      31.835  -8.624 -20.832  0.00  0.00    +0.029 C 
ATOM     20  C   UNL     1      31.706  -8.077 -22.201  0.00  0.00    +0.173 C 
ATOM     21  C   UNL     1      32.006 -10.344 -19.137  0.00  0.00    +0.026 C 
ENDROOT
BRANCH  12  22
ATOM     22  O   UNL     1      34.450 -17.496 -20.696  0.00  0.00    -0.384 OA
ATOM     23  H   UNL     1      33.541 -17.458 -20.361  0.00  0.00    +0.210 HD
ENDBRANCH  12  22
TORSDOF 1
ENDMDL
MODEL 6
REMARK VINA RESULT:      -7.2      3.474      5.810
REMARK  Name = 3037705
REMARK  1 active torsions:
REMARK  status: ('A' for Active; 'I' for Inactive)
REMARK    1  A    between atoms: C_12  and  O_22
REMARK                            x       y       z     vdW  Elec       q    Type
REMARK                         _______ _______ _______ _____ _____    ______ ____
ROOT
ATOM      1  O   UNL     1      36.142 -18.933 -21.889  0.00  0.00    -0.291 OA
ATOM      2  C   UNL     1      35.656 -22.708 -16.608  0.00  0.00    +0.000 C 
ATOM      3  C   UNL     1      35.161 -22.933 -15.173  0.00  0.00    +0.002 C 
ATOM      4  C   UNL     1      34.484 -22.093 -17.467  0.00  0.00    +0.003 C 
ATOM      5  C   UNL     1      34.000 -23.938 -15.097  0.00  0.00    +0.025 C 
ATOM      6  C   UNL     1      34.943 -21.715 -18.953  0.00  0.00    +0.016 C 
ATOM      7  C   UNL     1      33.250 -23.045 -17.352  0.00  0.00    +0.000 C 
ATOM      8  C   UNL     1      32.834 -23.364 -15.902  0.00  0.00    +0.002 C 
ATOM      9  C   UNL     1      36.281 -20.888 -18.837  0.00  0.00    +0.011 C 
ATOM     10  C   UNL     1      36.909 -21.835 -16.614  0.00  0.00    +0.000 C 
ATOM     11  C   UNL     1      36.132 -23.437 -14.107  0.00  0.00    +0.003 C 
ATOM     12  C   UNL     1      33.786 -23.961 -13.571  0.00  0.00    +0.110 C 
ATOM     13  C   UNL     1      37.380 -21.576 -18.030  0.00  0.00    +0.001 C 
ATOM     14  C   UNL     1      35.214 -23.980 -12.995  0.00  0.00    +0.029 C 
ATOM     15  C   UNL     1      34.335 -25.362 -15.611  0.00  0.00    +0.002 C 
ATOM     16  C   UNL     1      33.968 -20.814 -19.766  0.00  0.00    -0.042 C 
ATOM     17  C   UNL     1      35.145 -23.007 -19.783  0.00  0.00    +0.004 C 
ATOM     18  C   UNL     1      36.847 -20.461 -20.193  0.00  0.00    +0.069 C 
ATOM     19  C   UNL     1      34.390 -19.904 -20.666  0.00  0.00    +0.029 C 
ATOM     20  C   UNL     1      35.821 -19.694 -20.978  0.00  0.00    +0.173 C 
ATOM     21  C   UNL     1      32.479 -20.961 -19.620  0.00  0.00    +0.026 C 
ENDROOT
BRANCH  12  22
ATOM     22  O   UNL     1      33.042 -25.074 -13.114  0.00  0.00    -0.384 OA
ATOM     23  H   UNL     1      32.600 -24.848 -12.281  0.00  0.00    +0.210 HD
ENDBRANCH  12  22
TORSDOF 1
ENDMDL
MODEL 7
REMARK VINA RESULT:      -7.2     14.263     16.522
REMARK  Name = 3037705
REMARK  1 active torsions:
REMARK  status: ('A' for Active; 'I' for Inactive)
REMARK    1  A    between atoms: C_12  and  O_22
REMARK                            x       y       z     vdW  Elec       q    Type
REMARK                         _______ _______ _______ _____ _____    ______ ____
ROOT
ATOM      1  O   UNL     1      33.220 -15.691 -20.695  0.00  0.00    -0.291 OA
ATOM      2  C   UNL     1      31.825  -9.372 -21.398  0.00  0.00    +0.000 C 
ATOM      3  C   UNL     1      32.284  -7.919 -21.586  0.00  0.00    +0.002 C 
ATOM      4  C   UNL     1      32.630 -10.299 -22.389  0.00  0.00    +0.003 C 
ATOM      5  C   UNL     1      32.001  -7.386 -23.000  0.00  0.00    +0.025 C 
ATOM      6  C   UNL     1      32.300 -11.852 -22.182  0.00  0.00    +0.016 C 
ATOM      7  C   UNL     1      32.436  -9.744 -23.836  0.00  0.00    +0.000 C 
ATOM      8  C   UNL     1      32.784  -8.249 -23.989  0.00  0.00    +0.002 C 
ATOM      9  C   UNL     1      32.411 -12.156 -20.639  0.00  0.00    +0.011 C 
ATOM     10  C   UNL     1      31.977  -9.798 -19.940  0.00  0.00    +0.000 C 
ATOM     11  C   UNL     1      31.726  -6.824 -20.679  0.00  0.00    +0.003 C 
ATOM     12  C   UNL     1      32.527  -5.947 -22.836  0.00  0.00    +0.110 C 
ATOM     13  C   UNL     1      31.562 -11.244 -19.754  0.00  0.00    +0.001 C 
ATOM     14  C   UNL     1      32.019  -5.521 -21.446  0.00  0.00    +0.029 C 
ATOM     15  C   UNL     1      30.503  -7.366 -23.401  0.00  0.00    +0.002 C 
ATOM     16  C   UNL     1      33.268 -12.858 -22.873  0.00  0.00    -0.042 C 
ATOM     17  C   UNL     1      30.883 -12.162 -22.723  0.00  0.00    +0.004 C 
ATOM     18  C   UNL     1      32.111 -13.615 -20.288  0.00  0.00    +0.069 C 
ATOM     19  C   UNL     1      33.573 -14.060 -22.345  0.00  0.00    +0.029 C 
ATOM     20  C   UNL     1      32.997 -14.542 -21.070  0.00  0.00    +0.173 C 
ATOM     21  C   UNL     1      33.875 -12.549 -24.213  0.00  0.00    +0.026 C 
ENDROOT
BRANCH  12  22
ATOM     22  O   UNL     1      32.071  -5.054 -23.835  0.00  0.00    -0.384 OA
ATOM     23  H   UNL     1      32.242  -5.434 -24.711  0.00  0.00    +0.210 HD
ENDBRANCH  12  22
TORSDOF 1
ENDMDL
MODEL 8
REMARK VINA RESULT:      -7.1      8.335     10.501
REMARK  Name = 3037705
REMARK  1 active torsions:
REMARK  status: ('A' for Active; 'I' for Inactive)
REMARK    1  A    between atoms: C_12  and  O_22
REMARK                            x       y       z     vdW  Elec       q    Type
REMARK                         _______ _______ _______ _____ _____    ______ ____
ROOT
ATOM      1  O   UNL     1      34.947 -22.557 -19.154  0.00  0.00    -0.291 OA
ATOM      2  C   UNL     1      33.191 -16.857 -21.763  0.00  0.00    +0.000 C 
ATOM      3  C   UNL     1      33.276 -15.325 -21.796  0.00  0.00    +0.002 C 
ATOM      4  C   UNL     1      34.647 -17.452 -21.632  0.00  0.00    +0.003 C 
ATOM      5  C   UNL     1      34.065 -14.801 -23.008  0.00  0.00    +0.025 C 
ATOM      6  C   UNL     1      34.648 -19.044 -21.472  0.00  0.00    +0.016 C 
ATOM      7  C   UNL     1      35.510 -16.879 -22.801  0.00  0.00    +0.000 C 
ATOM      8  C   UNL     1      35.492 -15.340 -22.903  0.00  0.00    +0.002 C 
ATOM      9  C   UNL     1      33.603 -19.406 -20.348  0.00  0.00    +0.011 C 
ATOM     10  C   UNL     1      32.265 -17.319 -20.640  0.00  0.00    +0.000 C 
ATOM     11  C   UNL     1      31.995 -14.495 -21.826  0.00  0.00    +0.003 C 
ATOM     12  C   UNL     1      33.925 -13.286 -22.764  0.00  0.00    +0.110 C 
ATOM     13  C   UNL     1      32.206 -18.832 -20.576  0.00  0.00    +0.001 C 
ATOM     14  C   UNL     1      32.457 -13.114 -22.328  0.00  0.00    +0.029 C 
ATOM     15  C   UNL     1      33.467 -15.178 -24.388  0.00  0.00    +0.002 C 
ATOM     16  C   UNL     1      35.990 -19.688 -21.013  0.00  0.00    -0.042 C 
ATOM     17  C   UNL     1      34.281 -19.706 -22.823  0.00  0.00    +0.004 C 
ATOM     18  C   UNL     1      33.490 -20.911 -20.089  0.00  0.00    +0.069 C 
ATOM     19  C   UNL     1      36.046 -20.787 -20.236  0.00  0.00    +0.029 C 
ATOM     20  C   UNL     1      34.835 -21.495 -19.765  0.00  0.00    +0.173 C 
ATOM     21  C   UNL     1      37.308 -19.132 -21.472  0.00  0.00    +0.026 C 
ENDROOT
BRANCH  12  22
ATOM     22  O   UNL     1      34.209 -12.495 -23.902  0.00  0.00    -0.384 OA
ATOM     23  H   UNL     1      34.451 -13.071 -24.643  0.00  0.00    +0.210 HD
ENDBRANCH  12  22
TORSDOF 1
ENDMDL
MODEL 9
REMARK VINA RESULT:      -6.4     10.047     12.907
REMARK  Name = 3037705
REMARK  1 active torsions:
REMARK  status: ('A' for Active; 'I' for Inactive)
REMARK    1  A    between atoms: C_12  and  O_22
REMARK                            x       y       z     vdW  Elec       q    Type
REMARK                         _______ _______ _______ _____ _____    ______ ____
ROOT
ATOM      1  O   UNL     1      31.080 -10.286 -21.446  0.00  0.00    -0.291 OA
ATOM      2  C   UNL     1      33.626 -16.277 -21.435  0.00  0.00    +0.000 C 
ATOM      3  C   UNL     1      33.656 -17.713 -21.978  0.00  0.00    +0.002 C 
ATOM      4  C   UNL     1      33.532 -15.270 -22.647  0.00  0.00    +0.003 C 
ATOM      5  C   UNL     1      34.884 -17.987 -22.862  0.00  0.00    +0.025 C 
ATOM      6  C   UNL     1      33.378 -13.750 -22.171  0.00  0.00    +0.016 C 
ATOM      7  C   UNL     1      34.720 -15.568 -23.617  0.00  0.00    +0.000 C 
ATOM      8  C   UNL     1      34.815 -17.042 -24.061  0.00  0.00    +0.002 C 
ATOM      9  C   UNL     1      32.230 -13.707 -21.090  0.00  0.00    +0.011 C 
ATOM     10  C   UNL     1      32.484 -16.104 -20.437  0.00  0.00    +0.000 C 
ATOM     11  C   UNL     1      33.653 -18.891 -21.006  0.00  0.00    +0.003 C 
ATOM     12  C   UNL     1      34.632 -19.471 -23.190  0.00  0.00    +0.110 C 
ATOM     13  C   UNL     1      32.424 -14.679 -19.927  0.00  0.00    +0.001 C 
ATOM     14  C   UNL     1      34.160 -20.073 -21.853  0.00  0.00    +0.029 C 
ATOM     15  C   UNL     1      36.251 -17.822 -22.148  0.00  0.00    +0.002 C 
ATOM     16  C   UNL     1      32.953 -12.726 -23.266  0.00  0.00    -0.042 C 
ATOM     17  C   UNL     1      34.722 -13.244 -21.593  0.00  0.00    +0.004 C 
ATOM     18  C   UNL     1      31.975 -12.304 -20.534  0.00  0.00    +0.069 C 
ATOM     19  C   UNL     1      32.181 -11.653 -23.004  0.00  0.00    +0.029 C 
ATOM     20  C   UNL     1      31.684 -11.338 -21.647  0.00  0.00    +0.173 C 
ATOM     21  C   UNL     1      33.441 -12.864 -24.680  0.00  0.00    +0.026 C 
ENDROOT
BRANCH  12  22
ATOM     22  O   UNL     1      35.773 -20.152 -23.676  0.00  0.00    -0.384 OA
ATOM     23  H   UNL     1      35.814 -20.066 -24.641  0.00  0.00    +0.210 HD
ENDBRANCH  12  22
TORSDOF 1
ENDMDL
