MODEL 1
REMARK VINA RESULT:     -10.9      0.000      0.000
REMARK  Name = 46937056
REMARK  8 active torsions:
REMARK  status: ('A' for Active; 'I' for Inactive)
REMARK    1  A    between atoms: N_2  and  C_13
REMARK    2  A    between atoms: N_4  and  C_29
REMARK    3  A    between atoms: C_5  and  O_11
REMARK    4  A    between atoms: C_13  and  C_16
REMARK    5  A    between atoms: N_15  and  C_18
REMARK    6  A    between atoms: C_18  and  C_21
REMARK    7  A    between atoms: C_29  and  C_30
REMARK    8  A    between atoms: C_30  and  C_32
REMARK                            x       y       z     vdW  Elec       q    Type
REMARK                         _______ _______ _______ _____ _____    ______ ____
ROOT
ATOM      1 CL   UNL     1      32.366 -16.490 -20.576  0.00  0.00    -0.136 Cl
ATOM      2  N   UNL     1      34.521 -16.883 -21.991  0.00  0.00    +0.427 N 
ATOM      3  N   UNL     1      33.545 -14.330 -22.746  0.00  0.00    -0.261 NA
ATOM      4  N   UNL     1      33.738 -15.135 -24.933  0.00  0.00    -0.321 N 
ATOM      5  C   UNL     1      35.117 -16.181 -23.134  0.00  0.00    +0.116 C 
ATOM      6  C   UNL     1      34.041 -15.965 -20.951  0.00  0.00    +0.055 C 
ATOM      7  C   UNL     1      34.075 -15.154 -23.602  0.00  0.00    +0.107 C 
ATOM      8  C   UNL     1      34.035 -14.493 -21.374  0.00  0.00    +0.122 C 
ATOM      9  H   UNL     1      33.702 -17.372 -22.355  0.00  0.00    -0.073 HD
ATOM     10  H   UNL     1      34.165 -15.781 -25.540  0.00  0.00    +0.148 HD
ENDROOT
BRANCH   5  11
ATOM     11  O   UNL     1      35.446 -17.059 -24.198  0.00  0.00    -0.398 OA
ATOM     12  H   UNL     1      36.410 -17.143 -24.262  0.00  0.00    +0.208 HD
ENDBRANCH   5  11
BRANCH   2  13
ATOM     13  C   UNL     1      35.428 -17.886 -21.436  0.00  0.00    +0.016 C 
BRANCH  13  16
ATOM     14  O   UNL     1      33.572 -19.407 -21.724  0.00  0.00    -0.277 OA
ATOM     15  N   UNL     1      35.313 -20.008 -20.309  0.00  0.00    -0.302 N 
ATOM     16  C   UNL     1      34.649 -19.161 -21.185  0.00  0.00    +0.202 C 
ATOM     17  H   UNL     1      36.174 -19.712 -19.934  0.00  0.00    +0.150 HD
BRANCH  15  18
ATOM     18  C   UNL     1      34.804 -21.304 -19.921  0.00  0.00    +0.117 C 
BRANCH  18  21
ATOM     19 CL   UNL     1      31.044 -23.853 -16.398  0.00  0.00    -0.082 Cl
ATOM     20  S   UNL     1      37.036 -22.215 -16.716  0.00  0.00    -0.087 S 
ATOM     21  C   UNL     1      35.375 -21.762 -18.610  0.00  0.00    +0.004 C 
ATOM     22  C   UNL     1      34.611 -22.420 -17.588  0.00  0.00    +0.005 C 
ATOM     23  C   UNL     1      35.407 -22.728 -16.481  0.00  0.00    +0.029 C 
ATOM     24  C   UNL     1      36.694 -21.592 -18.265  0.00  0.00    +0.033 C 
ATOM     25  C   UNL     1      33.241 -22.779 -17.549  0.00  0.00    +0.012 C 
ATOM     26  C   UNL     1      34.875 -23.378 -15.349  0.00  0.00    +0.007 C 
ATOM     27  C   UNL     1      32.712 -23.424 -16.429  0.00  0.00    +0.058 C 
ATOM     28  C   UNL     1      33.521 -23.719 -15.340  0.00  0.00    +0.012 C 
ENDBRANCH  18  21
ENDBRANCH  15  18
ENDBRANCH  13  16
ENDBRANCH   2  13
BRANCH   4  29
ATOM     29  C   UNL     1      32.789 -14.209 -25.465  0.00  0.00    +0.094 C 
BRANCH  29  30
ATOM     30  C   UNL     1      33.463 -13.222 -26.417  0.00  0.00    +0.067 C 
BRANCH  30  32
ATOM     31  N   UNL     1      33.408 -11.679 -24.533  0.00  0.00    -0.248 NA
ATOM     32  C   UNL     1      33.973 -11.984 -25.723  0.00  0.00    +0.061 C 
ATOM     33  C   UNL     1      34.973 -11.233 -26.321  0.00  0.00    +0.015 C 
ATOM     34  C   UNL     1      35.422 -10.098 -25.655  0.00  0.00    +0.003 C 
ATOM     35  C   UNL     1      33.870 -10.569 -23.915  0.00  0.00    +0.098 C 
ATOM     36  C   UNL     1      34.865  -9.753 -24.428  0.00  0.00    +0.021 C 
ENDBRANCH  30  32
ENDBRANCH  29  30
ENDBRANCH   4  29
TORSDOF 8
ENDMDL
MODEL 2
REMARK VINA RESULT:     -10.6      3.929     11.011
REMARK  Name = 46937056
REMARK  8 active torsions:
REMARK  status: ('A' for Active; 'I' for Inactive)
REMARK    1  A    between atoms: N_2  and  C_13
REMARK    2  A    between atoms: N_4  and  C_29
REMARK    3  A    between atoms: C_5  and  O_11
REMARK    4  A    between atoms: C_13  and  C_16
REMARK    5  A    between atoms: N_15  and  C_18
REMARK    6  A    between atoms: C_18  and  C_21
REMARK    7  A    between atoms: C_29  and  C_30
REMARK    8  A    between atoms: C_30  and  C_32
REMARK                            x       y       z     vdW  Elec       q    Type
REMARK                         _______ _______ _______ _____ _____    ______ ____
ROOT
ATOM      1 CL   UNL     1      33.819 -17.417 -25.354  0.00  0.00    -0.136 Cl
ATOM      2  N   UNL     1      34.338 -16.210 -23.101  0.00  0.00    +0.427 N 
ATOM      3  N   UNL     1      34.778 -18.971 -22.629  0.00  0.00    -0.261 NA
ATOM      4  N   UNL     1      33.388 -18.661 -20.775  0.00  0.00    -0.321 N 
ATOM      5  C   UNL     1      34.579 -16.689 -21.735  0.00  0.00    +0.116 C 
ATOM      6  C   UNL     1      35.047 -17.004 -24.112  0.00  0.00    +0.055 C 
ATOM      7  C   UNL     1      34.246 -18.188 -21.736  0.00  0.00    +0.107 C 
ATOM      8  C   UNL     1      35.677 -18.288 -23.565  0.00  0.00    +0.122 C 
ATOM      9  H   UNL     1      33.340 -16.335 -23.272  0.00  0.00    -0.073 HD
ATOM     10  H   UNL     1      33.008 -18.028 -20.124  0.00  0.00    +0.148 HD
ENDROOT
BRANCH   5  11
ATOM     11  O   UNL     1      33.781 -16.014 -20.775  0.00  0.00    -0.398 OA
ATOM     12  H   UNL     1      34.330 -15.386 -20.281  0.00  0.00    +0.208 HD
ENDBRANCH   5  11
BRANCH   2  13
ATOM     13  C   UNL     1      34.637 -14.786 -23.238  0.00  0.00    +0.016 C 
BRANCH  13  16
ATOM     14  O   UNL     1      32.746 -14.175 -24.612  0.00  0.00    -0.277 OA
ATOM     15  N   UNL     1      32.948 -13.243 -22.494  0.00  0.00    -0.302 N 
ATOM     16  C   UNL     1      33.353 -14.046 -23.551  0.00  0.00    +0.202 C 
ATOM     17  H   UNL     1      33.511 -13.213 -21.687  0.00  0.00    +0.150 HD
BRANCH  15  18
ATOM     18  C   UNL     1      31.739 -12.451 -22.518  0.00  0.00    +0.117 C 
BRANCH  18  21
ATOM     19 CL   UNL     1      33.665  -7.280 -24.131  0.00  0.00    -0.082 Cl
ATOM     20  S   UNL     1      31.409 -10.273 -19.167  0.00  0.00    -0.087 S 
ATOM     21  C   UNL     1      31.730 -11.407 -21.440  0.00  0.00    +0.004 C 
ATOM     22  C   UNL     1      32.169 -10.053 -21.629  0.00  0.00    +0.005 C 
ATOM     23  C   UNL     1      32.046  -9.312 -20.449  0.00  0.00    +0.029 C 
ATOM     24  C   UNL     1      31.297 -11.655 -20.159  0.00  0.00    +0.033 C 
ATOM     25  C   UNL     1      32.679  -9.403 -22.778  0.00  0.00    +0.012 C 
ATOM     26  C   UNL     1      32.416  -7.954 -20.390  0.00  0.00    +0.007 C 
ATOM     27  C   UNL     1      33.046  -8.056 -22.723  0.00  0.00    +0.058 C 
ATOM     28  C   UNL     1      32.916  -7.340 -21.541  0.00  0.00    +0.012 C 
ENDBRANCH  18  21
ENDBRANCH  15  18
ENDBRANCH  13  16
ENDBRANCH   2  13
BRANCH   4  29
ATOM     29  C   UNL     1      33.027 -20.041 -20.688  0.00  0.00    +0.094 C 
BRANCH  29  30
ATOM     30  C   UNL     1      34.247 -20.905 -20.370  0.00  0.00    +0.067 C 
BRANCH  30  32
ATOM     31  N   UNL     1      32.817 -22.090 -18.793  0.00  0.00    -0.248 NA
ATOM     32  C   UNL     1      34.079 -21.727 -19.116  0.00  0.00    +0.061 C 
ATOM     33  C   UNL     1      35.198 -22.065 -18.370  0.00  0.00    +0.015 C 
ATOM     34  C   UNL     1      35.009 -22.823 -17.221  0.00  0.00    +0.003 C 
ATOM     35  C   UNL     1      32.673 -22.827 -17.669  0.00  0.00    +0.098 C 
ATOM     36  C   UNL     1      33.726 -23.215 -16.856  0.00  0.00    +0.021 C 
ENDBRANCH  30  32
ENDBRANCH  29  30
ENDBRANCH   4  29
TORSDOF 8
ENDMDL
MODEL 3
REMARK VINA RESULT:     -10.4      3.616     11.459
REMARK  Name = 46937056
REMARK  8 active torsions:
REMARK  status: ('A' for Active; 'I' for Inactive)
REMARK    1  A    between atoms: N_2  and  C_13
REMARK    2  A    between atoms: N_4  and  C_29
REMARK    3  A    between atoms: C_5  and  O_11
REMARK    4  A    between atoms: C_13  and  C_16
REMARK    5  A    between atoms: N_15  and  C_18
REMARK    6  A    between atoms: C_18  and  C_21
REMARK    7  A    between atoms: C_29  and  C_30
REMARK    8  A    between atoms: C_30  and  C_32
REMARK                            x       y       z     vdW  Elec       q    Type
REMARK                         _______ _______ _______ _____ _____    ______ ____
ROOT
ATOM      1 CL   UNL     1      32.307 -21.227 -18.789  0.00  0.00    -0.136 Cl
ATOM      2  N   UNL     1      34.635 -20.789 -19.881  0.00  0.00    +0.427 N 
ATOM      3  N   UNL     1      35.036 -22.863 -17.989  0.00  0.00    -0.261 NA
ATOM      4  N   UNL     1      36.794 -21.530 -17.214  0.00  0.00    -0.321 N 
ATOM      5  C   UNL     1      35.997 -21.234 -19.560  0.00  0.00    +0.116 C 
ATOM      6  C   UNL     1      33.650 -21.874 -19.790  0.00  0.00    +0.055 C 
ATOM      7  C   UNL     1      35.915 -21.926 -18.192  0.00  0.00    +0.107 C 
ATOM      8  C   UNL     1      34.193 -23.156 -19.153  0.00  0.00    +0.122 C 
ATOM      9  H   UNL     1      34.386 -20.103 -19.168  0.00  0.00    -0.073 HD
ATOM     10  H   UNL     1      37.438 -20.814 -17.415  0.00  0.00    +0.148 HD
ENDROOT
BRANCH   5  11
ATOM     11  O   UNL     1      36.920 -20.157 -19.508  0.00  0.00    -0.398 OA
ATOM     12  H   UNL     1      37.786 -20.458 -19.822  0.00  0.00    +0.208 HD
ENDBRANCH   5  11
BRANCH   2  13
ATOM     13  C   UNL     1      34.572 -20.124 -21.181  0.00  0.00    +0.016 C 
BRANCH  13  16
ATOM     14  O   UNL     1      32.875 -18.439 -20.836  0.00  0.00    -0.277 OA
ATOM     15  N   UNL     1      35.101 -17.788 -20.953  0.00  0.00    -0.302 N 
ATOM     16  C   UNL     1      34.065 -18.710 -20.980  0.00  0.00    +0.202 C 
ATOM     17  H   UNL     1      36.021 -18.114 -21.080  0.00  0.00    +0.150 HD
BRANCH  15  18
ATOM     18  C   UNL     1      34.897 -16.372 -20.747  0.00  0.00    +0.117 C 
BRANCH  18  21
ATOM     19 CL   UNL     1      31.590 -11.788 -19.696  0.00  0.00    -0.082 Cl
ATOM     20  S   UNL     1      33.815 -15.172 -24.418  0.00  0.00    -0.087 S 
ATOM     21  C   UNL     1      34.338 -15.701 -21.968  0.00  0.00    +0.004 C 
ATOM     22  C   UNL     1      33.490 -14.543 -21.931  0.00  0.00    +0.005 C 
ATOM     23  C   UNL     1      33.124 -14.142 -23.219  0.00  0.00    +0.029 C 
ATOM     24  C   UNL     1      34.589 -16.139 -23.247  0.00  0.00    +0.033 C 
ATOM     25  C   UNL     1      33.001 -13.795 -20.833  0.00  0.00    +0.012 C 
ATOM     26  C   UNL     1      32.292 -13.026 -23.436  0.00  0.00    +0.007 C 
ATOM     27  C   UNL     1      32.176 -12.687 -21.044  0.00  0.00    +0.058 C 
ATOM     28  C   UNL     1      31.826 -12.308 -22.332  0.00  0.00    +0.012 C 
ENDBRANCH  18  21
ENDBRANCH  15  18
ENDBRANCH  13  16
ENDBRANCH   2  13
BRANCH   4  29
ATOM     29  C   UNL     1      36.803 -22.122 -15.914  0.00  0.00    +0.094 C 
BRANCH  29  30
ATOM     30  C   UNL     1      37.938 -23.138 -15.784  0.00  0.00    +0.067 C 
BRANCH  30  32
ATOM     31  N   UNL     1      37.993 -23.711 -13.417  0.00  0.00    -0.248 NA
ATOM     32  C   UNL     1      37.716 -24.133 -14.671  0.00  0.00    +0.061 C 
ATOM     33  C   UNL     1      37.251 -25.402 -14.977  0.00  0.00    +0.015 C 
ATOM     34  C   UNL     1      37.058 -26.294 -13.930  0.00  0.00    +0.003 C 
ATOM     35  C   UNL     1      37.792 -24.606 -12.424  0.00  0.00    +0.098 C 
ATOM     36  C   UNL     1      37.331 -25.897 -12.625  0.00  0.00    +0.021 C 
ENDBRANCH  30  32
ENDBRANCH  29  30
ENDBRANCH   4  29
TORSDOF 8
ENDMDL
MODEL 4
REMARK VINA RESULT:     -10.1      6.719     11.625
REMARK  Name = 46937056
REMARK  8 active torsions:
REMARK  status: ('A' for Active; 'I' for Inactive)
REMARK    1  A    between atoms: N_2  and  C_13
REMARK    2  A    between atoms: N_4  and  C_29
REMARK    3  A    between atoms: C_5  and  O_11
REMARK    4  A    between atoms: C_13  and  C_16
REMARK    5  A    between atoms: N_15  and  C_18
REMARK    6  A    between atoms: C_18  and  C_21
REMARK    7  A    between atoms: C_29  and  C_30
REMARK    8  A    between atoms: C_30  and  C_32
REMARK                            x       y       z     vdW  Elec       q    Type
REMARK                         _______ _______ _______ _____ _____    ______ ____
ROOT
ATOM      1 CL   UNL     1      37.428 -26.083 -13.355  0.00  0.00    -0.136 Cl
ATOM      2  N   UNL     1      36.504 -23.684 -13.799  0.00  0.00    +0.427 N 
ATOM      3  N   UNL     1      34.550 -24.994 -12.216  0.00  0.00    -0.261 NA
ATOM      4  N   UNL     1      33.046 -24.280 -13.858  0.00  0.00    -0.321 N 
ATOM      5  C   UNL     1      35.200 -23.051 -13.576  0.00  0.00    +0.116 C 
ATOM      6  C   UNL     1      36.938 -24.502 -12.659  0.00  0.00    +0.055 C 
ATOM      7  C   UNL     1      34.234 -24.176 -13.177  0.00  0.00    +0.107 C 
ATOM      8  C   UNL     1      35.853 -24.721 -11.601  0.00  0.00    +0.122 C 
ATOM      9  H   UNL     1      36.380 -24.319 -14.588  0.00  0.00    -0.073 HD
ATOM     10  H   UNL     1      32.854 -23.640 -14.579  0.00  0.00    +0.148 HD
ENDROOT
BRANCH   5  11
ATOM     11  O   UNL     1      34.717 -22.381 -14.730  0.00  0.00    -0.398 OA
ATOM     12  H   UNL     1      34.406 -21.497 -14.485  0.00  0.00    +0.208 HD
ENDBRANCH   5  11
BRANCH   2  13
ATOM     13  C   UNL     1      37.527 -22.707 -14.170  0.00  0.00    +0.016 C 
BRANCH  13  16
ATOM     14  O   UNL     1      38.700 -23.550 -16.107  0.00  0.00    -0.277 OA
ATOM     15  N   UNL     1      36.926 -22.083 -16.415  0.00  0.00    -0.302 N 
ATOM     16  C   UNL     1      37.808 -22.837 -15.653  0.00  0.00    +0.202 C 
ATOM     17  H   UNL     1      36.246 -21.546 -15.947  0.00  0.00    +0.150 HD
BRANCH  15  18
ATOM     18  C   UNL     1      36.954 -22.050 -17.859  0.00  0.00    +0.117 C 
BRANCH  18  21
ATOM     19 CL   UNL     1      36.621 -18.290 -22.196  0.00  0.00    -0.082 Cl
ATOM     20  S   UNL     1      33.070 -22.150 -18.852  0.00  0.00    -0.087 S 
ATOM     21  C   UNL     1      35.582 -21.878 -18.444  0.00  0.00    +0.004 C 
ATOM     22  C   UNL     1      35.278 -20.990 -19.531  0.00  0.00    +0.005 C 
ATOM     23  C   UNL     1      33.920 -21.041 -19.861  0.00  0.00    +0.029 C 
ATOM     24  C   UNL     1      34.480 -22.560 -17.988  0.00  0.00    +0.033 C 
ATOM     25  C   UNL     1      36.116 -20.122 -20.273  0.00  0.00    +0.012 C 
ATOM     26  C   UNL     1      33.385 -20.253 -20.900  0.00  0.00    +0.007 C 
ATOM     27  C   UNL     1      35.588 -19.341 -21.304  0.00  0.00    +0.058 C 
ATOM     28  C   UNL     1      34.236 -19.407 -21.613  0.00  0.00    +0.012 C 
ENDBRANCH  18  21
ENDBRANCH  15  18
ENDBRANCH  13  16
ENDBRANCH   2  13
BRANCH   4  29
ATOM     29  C   UNL     1      32.079 -25.286 -13.552  0.00  0.00    +0.094 C 
BRANCH  29  30
ATOM     30  C   UNL     1      30.701 -24.668 -13.320  0.00  0.00    +0.067 C 
BRANCH  30  32
ATOM     31  N   UNL     1      30.718 -23.028 -15.121  0.00  0.00    -0.248 NA
ATOM     32  C   UNL     1      30.091 -24.094 -14.576  0.00  0.00    +0.061 C 
ATOM     33  C   UNL     1      28.945 -24.671 -15.099  0.00  0.00    +0.015 C 
ATOM     34  C   UNL     1      28.408 -24.120 -16.256  0.00  0.00    +0.003 C 
ATOM     35  C   UNL     1      30.168 -22.519 -16.247  0.00  0.00    +0.098 C 
ATOM     36  C   UNL     1      29.025 -23.022 -16.848  0.00  0.00    +0.021 C 
ENDBRANCH  30  32
ENDBRANCH  29  30
ENDBRANCH   4  29
TORSDOF 8
ENDMDL
MODEL 5
REMARK VINA RESULT:     -10.1      3.401     11.469
REMARK  Name = 46937056
REMARK  8 active torsions:
REMARK  status: ('A' for Active; 'I' for Inactive)
REMARK    1  A    between atoms: N_2  and  C_13
REMARK    2  A    between atoms: N_4  and  C_29
REMARK    3  A    between atoms: C_5  and  O_11
REMARK    4  A    between atoms: C_13  and  C_16
REMARK    5  A    between atoms: N_15  and  C_18
REMARK    6  A    between atoms: C_18  and  C_21
REMARK    7  A    between atoms: C_29  and  C_30
REMARK    8  A    between atoms: C_30  and  C_32
REMARK                            x       y       z     vdW  Elec       q    Type
REMARK                         _______ _______ _______ _____ _____    ______ ____
ROOT
ATOM      1 CL   UNL     1      32.440 -20.505 -19.456  0.00  0.00    -0.136 Cl
ATOM      2  N   UNL     1      34.882 -20.675 -20.356  0.00  0.00    +0.427 N 
ATOM      3  N   UNL     1      34.662 -22.634 -18.319  0.00  0.00    -0.261 NA
ATOM      4  N   UNL     1      36.612 -21.664 -17.466  0.00  0.00    -0.321 N 
ATOM      5  C   UNL     1      36.081 -21.381 -19.888  0.00  0.00    +0.116 C 
ATOM      6  C   UNL     1      33.674 -21.506 -20.291  0.00  0.00    +0.055 C 
ATOM      7  C   UNL     1      35.743 -21.932 -18.495  0.00  0.00    +0.107 C 
ATOM      8  C   UNL     1      33.865 -22.823 -19.534  0.00  0.00    +0.122 C 
ATOM      9  H   UNL     1      34.742 -19.898 -19.710  0.00  0.00    -0.073 HD
ATOM     10  H   UNL     1      37.414 -21.125 -17.650  0.00  0.00    +0.148 HD
ENDROOT
BRANCH   5  11
ATOM     11  O   UNL     1      37.216 -20.533 -19.815  0.00  0.00    -0.398 OA
ATOM     12  H   UNL     1      37.356 -20.259 -18.896  0.00  0.00    +0.208 HD
ENDBRANCH   5  11
BRANCH   2  13
ATOM     13  C   UNL     1      35.069 -20.113 -21.693  0.00  0.00    +0.016 C 
BRANCH  13  16
ATOM     14  O   UNL     1      36.049 -18.183 -20.619  0.00  0.00    -0.277 OA
ATOM     15  N   UNL     1      34.926 -17.903 -22.633  0.00  0.00    -0.302 N 
ATOM     16  C   UNL     1      35.405 -18.642 -21.560  0.00  0.00    +0.202 C 
ATOM     17  H   UNL     1      34.421 -18.373 -23.336  0.00  0.00    +0.150 HD
BRANCH  15  18
ATOM     18  C   UNL     1      35.134 -16.480 -22.771  0.00  0.00    +0.117 C 
BRANCH  18  21
ATOM     19 CL   UNL     1      34.009 -11.353 -25.117  0.00  0.00    -0.082 Cl
ATOM     20  S   UNL     1      32.244 -15.014 -20.408  0.00  0.00    -0.087 S 
ATOM     21  C   UNL     1      34.065 -15.687 -22.077  0.00  0.00    +0.004 C 
ATOM     22  C   UNL     1      33.631 -14.384 -22.497  0.00  0.00    +0.005 C 
ATOM     23  C   UNL     1      32.624 -13.892 -21.661  0.00  0.00    +0.029 C 
ATOM     24  C   UNL     1      33.397 -16.139 -20.964  0.00  0.00    +0.033 C 
ATOM     25  C   UNL     1      34.056 -13.576 -23.580  0.00  0.00    +0.012 C 
ATOM     26  C   UNL     1      32.040 -12.627 -21.875  0.00  0.00    +0.007 C 
ATOM     27  C   UNL     1      33.479 -12.322 -23.796  0.00  0.00    +0.058 C 
ATOM     28  C   UNL     1      32.482 -11.854 -22.951  0.00  0.00    +0.012 C 
ENDBRANCH  18  21
ENDBRANCH  15  18
ENDBRANCH  13  16
ENDBRANCH   2  13
BRANCH   4  29
ATOM     29  C   UNL     1      36.390 -22.143 -16.139  0.00  0.00    +0.094 C 
BRANCH  29  30
ATOM     30  C   UNL     1      37.671 -22.728 -15.546  0.00  0.00    +0.067 C 
BRANCH  30  32
ATOM     31  N   UNL     1      36.358 -24.777 -15.457  0.00  0.00    -0.248 NA
ATOM     32  C   UNL     1      37.549 -24.192 -15.201  0.00  0.00    +0.061 C 
ATOM     33  C   UNL     1      38.637 -24.853 -14.652  0.00  0.00    +0.015 C 
ATOM     34  C   UNL     1      38.492 -26.201 -14.346  0.00  0.00    +0.003 C 
ATOM     35  C   UNL     1      36.255 -26.089 -15.147  0.00  0.00    +0.098 C 
ATOM     36  C   UNL     1      37.281 -26.839 -14.595  0.00  0.00    +0.021 C 
ENDBRANCH  30  32
ENDBRANCH  29  30
ENDBRANCH   4  29
TORSDOF 8
ENDMDL
MODEL 6
REMARK VINA RESULT:      -9.9      4.685     12.009
REMARK  Name = 46937056
REMARK  8 active torsions:
REMARK  status: ('A' for Active; 'I' for Inactive)
REMARK    1  A    between atoms: N_2  and  C_13
REMARK    2  A    between atoms: N_4  and  C_29
REMARK    3  A    between atoms: C_5  and  O_11
REMARK    4  A    between atoms: C_13  and  C_16
REMARK    5  A    between atoms: N_15  and  C_18
REMARK    6  A    between atoms: C_18  and  C_21
REMARK    7  A    between atoms: C_29  and  C_30
REMARK    8  A    between atoms: C_30  and  C_32
REMARK                            x       y       z     vdW  Elec       q    Type
REMARK                         _______ _______ _______ _____ _____    ______ ____
ROOT
ATOM      1 CL   UNL     1      33.119 -13.118 -20.260  0.00  0.00    -0.136 Cl
ATOM      2  N   UNL     1      33.062 -13.941 -22.734  0.00  0.00    +0.427 N 
ATOM      3  N   UNL     1      33.437 -16.260 -21.147  0.00  0.00    -0.261 NA
ATOM      4  N   UNL     1      35.224 -16.702 -22.588  0.00  0.00    -0.321 N 
ATOM      5  C   UNL     1      33.374 -15.224 -23.376  0.00  0.00    +0.116 C 
ATOM      6  C   UNL     1      32.276 -14.100 -21.505  0.00  0.00    +0.055 C 
ATOM      7  C   UNL     1      34.025 -16.101 -22.296  0.00  0.00    +0.107 C 
ATOM      8  C   UNL     1      32.161 -15.549 -21.023  0.00  0.00    +0.122 C 
ATOM      9  H   UNL     1      33.958 -13.535 -22.463  0.00  0.00    -0.073 HD
ATOM     10  H   UNL     1      35.631 -16.548 -23.471  0.00  0.00    +0.148 HD
ENDROOT
BRANCH   5  11
ATOM     11  O   UNL     1      34.254 -15.078 -24.480  0.00  0.00    -0.398 OA
ATOM     12  H   UNL     1      34.095 -14.224 -24.910  0.00  0.00    +0.208 HD
ENDBRANCH   5  11
BRANCH   2  13
ATOM     13  C   UNL     1      32.416 -13.013 -23.661  0.00  0.00    +0.016 C 
BRANCH  13  16
ATOM     14  O   UNL     1      34.348 -11.964 -24.664  0.00  0.00    -0.277 OA
ATOM     15  N   UNL     1      32.960 -10.697 -23.299  0.00  0.00    -0.302 N 
ATOM     16  C   UNL     1      33.362 -11.862 -23.937  0.00  0.00    +0.202 C 
ATOM     17  H   UNL     1      32.152 -10.727 -22.737  0.00  0.00    +0.150 HD
BRANCH  15  18
ATOM     18  C   UNL     1      33.669  -9.443 -23.418  0.00  0.00    +0.117 C 
BRANCH  18  21
ATOM     19 CL   UNL     1      32.687  -4.696 -26.508  0.00  0.00    -0.082 Cl
ATOM     20  S   UNL     1      31.845  -7.016 -20.798  0.00  0.00    -0.087 S 
ATOM     21  C   UNL     1      32.979  -8.336 -22.675  0.00  0.00    +0.004 C 
ATOM     22  C   UNL     1      32.641  -7.068 -23.257  0.00  0.00    +0.005 C 
ATOM     23  C   UNL     1      32.007  -6.237 -22.328  0.00  0.00    +0.029 C 
ATOM     24  C   UNL     1      32.605  -8.435 -21.356  0.00  0.00    +0.033 C 
ATOM     25  C   UNL     1      32.848  -6.571 -24.567  0.00  0.00    +0.012 C 
ATOM     26  C   UNL     1      31.581  -4.938 -22.670  0.00  0.00    +0.007 C 
ATOM     27  C   UNL     1      32.426  -5.284 -24.910  0.00  0.00    +0.058 C 
ATOM     28  C   UNL     1      31.800  -4.477 -23.970  0.00  0.00    +0.012 C 
ENDBRANCH  18  21
ENDBRANCH  15  18
ENDBRANCH  13  16
ENDBRANCH   2  13
BRANCH   4  29
ATOM     29  C   UNL     1      35.901 -17.545 -21.654  0.00  0.00    +0.094 C 
BRANCH  29  30
ATOM     30  C   UNL     1      35.814 -19.011 -22.077  0.00  0.00    +0.067 C 
BRANCH  30  32
ATOM     31  N   UNL     1      35.661 -20.739 -20.366  0.00  0.00    -0.248 NA
ATOM     32  C   UNL     1      34.989 -19.851 -21.133  0.00  0.00    +0.061 C 
ATOM     33  C   UNL     1      33.614 -19.679 -21.095  0.00  0.00    +0.015 C 
ATOM     34  C   UNL     1      32.883 -20.468 -20.214  0.00  0.00    +0.003 C 
ATOM     35  C   UNL     1      34.917 -21.488 -19.522  0.00  0.00    +0.098 C 
ATOM     36  C   UNL     1      33.540 -21.392 -19.409  0.00  0.00    +0.021 C 
ENDBRANCH  30  32
ENDBRANCH  29  30
ENDBRANCH   4  29
TORSDOF 8
ENDMDL
MODEL 7
REMARK VINA RESULT:      -9.9      2.101      2.628
REMARK  Name = 46937056
REMARK  8 active torsions:
REMARK  status: ('A' for Active; 'I' for Inactive)
REMARK    1  A    between atoms: N_2  and  C_13
REMARK    2  A    between atoms: N_4  and  C_29
REMARK    3  A    between atoms: C_5  and  O_11
REMARK    4  A    between atoms: C_13  and  C_16
REMARK    5  A    between atoms: N_15  and  C_18
REMARK    6  A    between atoms: C_18  and  C_21
REMARK    7  A    between atoms: C_29  and  C_30
REMARK    8  A    between atoms: C_30  and  C_32
REMARK                            x       y       z     vdW  Elec       q    Type
REMARK                         _______ _______ _______ _____ _____    ______ ____
ROOT
ATOM      1 CL   UNL     1      32.521 -16.976 -20.781  0.00  0.00    -0.136 Cl
ATOM      2  N   UNL     1      34.191 -17.029 -22.783  0.00  0.00    +0.427 N 
ATOM      3  N   UNL     1      34.296 -14.393 -21.747  0.00  0.00    -0.261 NA
ATOM      4  N   UNL     1      33.952 -13.732 -23.963  0.00  0.00    -0.321 N 
ATOM      5  C   UNL     1      34.924 -15.986 -23.511  0.00  0.00    +0.116 C 
ATOM      6  C   UNL     1      34.224 -16.834 -21.329  0.00  0.00    +0.055 C 
ATOM      7  C   UNL     1      34.364 -14.642 -23.021  0.00  0.00    +0.107 C 
ATOM      8  C   UNL     1      34.791 -15.479 -20.895  0.00  0.00    +0.122 C 
ATOM      9  H   UNL     1      33.216 -16.943 -23.071  0.00  0.00    -0.073 HD
ATOM     10  H   UNL     1      34.020 -13.970 -24.915  0.00  0.00    +0.148 HD
ENDROOT
BRANCH   5  11
ATOM     11  O   UNL     1      34.768 -16.095 -24.917  0.00  0.00    -0.398 OA
ATOM     12  H   UNL     1      34.766 -15.210 -25.312  0.00  0.00    +0.208 HD
ENDBRANCH   5  11
BRANCH   2  13
ATOM     13  C   UNL     1      34.646 -18.369 -23.149  0.00  0.00    +0.016 C 
BRANCH  13  16
ATOM     14  O   UNL     1      36.714 -18.325 -21.900  0.00  0.00    -0.277 OA
ATOM     15  N   UNL     1      35.122 -19.937 -21.387  0.00  0.00    -0.302 N 
ATOM     16  C   UNL     1      35.623 -18.856 -22.099  0.00  0.00    +0.202 C 
ATOM     17  H   UNL     1      34.234 -20.285 -21.629  0.00  0.00    +0.150 HD
BRANCH  15  18
ATOM     18  C   UNL     1      35.840 -20.576 -20.308  0.00  0.00    +0.117 C 
BRANCH  18  21
ATOM     19 CL   UNL     1      38.372 -22.877 -15.687  0.00  0.00    -0.082 Cl
ATOM     20  S   UNL     1      32.800 -22.376 -18.409  0.00  0.00    -0.087 S 
ATOM     21  C   UNL     1      34.920 -21.330 -19.391  0.00  0.00    +0.004 C 
ATOM     22  C   UNL     1      35.346 -21.981 -18.184  0.00  0.00    +0.005 C 
ATOM     23  C   UNL     1      34.272 -22.602 -17.539  0.00  0.00    +0.029 C 
ATOM     24  C   UNL     1      33.573 -21.468 -19.627  0.00  0.00    +0.033 C 
ATOM     25  C   UNL     1      36.629 -22.075 -17.592  0.00  0.00    +0.012 C 
ATOM     26  C   UNL     1      34.446 -23.306 -16.331  0.00  0.00    +0.007 C 
ATOM     27  C   UNL     1      36.804 -22.772 -16.394  0.00  0.00    +0.058 C 
ATOM     28  C   UNL     1      35.723 -23.381 -15.771  0.00  0.00    +0.012 C 
ENDBRANCH  18  21
ENDBRANCH  15  18
ENDBRANCH  13  16
ENDBRANCH   2  13
BRANCH   4  29
ATOM     29  C   UNL     1      33.429 -12.452 -23.606  0.00  0.00    +0.094 C 
BRANCH  29  30
ATOM     30  C   UNL     1      33.966 -11.363 -24.534  0.00  0.00    +0.067 C 
BRANCH  30  32
ATOM     31  N   UNL     1      32.843  -9.721 -23.129  0.00  0.00    -0.248 NA
ATOM     32  C   UNL     1      33.902  -9.983 -23.927  0.00  0.00    +0.061 C 
ATOM     33  C   UNL     1      34.906  -9.070 -24.209  0.00  0.00    +0.015 C 
ATOM     34  C   UNL     1      34.817  -7.808 -23.633  0.00  0.00    +0.003 C 
ATOM     35  C   UNL     1      32.791  -8.483 -22.587  0.00  0.00    +0.098 C 
ATOM     36  C   UNL     1      33.742  -7.500 -22.806  0.00  0.00    +0.021 C 
ENDBRANCH  30  32
ENDBRANCH  29  30
ENDBRANCH   4  29
TORSDOF 8
ENDMDL
MODEL 8
REMARK VINA RESULT:      -9.7      3.653     11.590
REMARK  Name = 46937056
REMARK  8 active torsions:
REMARK  status: ('A' for Active; 'I' for Inactive)
REMARK    1  A    between atoms: N_2  and  C_13
REMARK    2  A    between atoms: N_4  and  C_29
REMARK    3  A    between atoms: C_5  and  O_11
REMARK    4  A    between atoms: C_13  and  C_16
REMARK    5  A    between atoms: N_15  and  C_18
REMARK    6  A    between atoms: C_18  and  C_21
REMARK    7  A    between atoms: C_29  and  C_30
REMARK    8  A    between atoms: C_30  and  C_32
REMARK                            x       y       z     vdW  Elec       q    Type
REMARK                         _______ _______ _______ _____ _____    ______ ____
ROOT
ATOM      1 CL   UNL     1      32.652 -20.881 -19.460  0.00  0.00    -0.136 Cl
ATOM      2  N   UNL     1      35.182 -21.480 -19.251  0.00  0.00    +0.427 N 
ATOM      3  N   UNL     1      33.818 -23.221 -17.478  0.00  0.00    -0.261 NA
ATOM      4  N   UNL     1      35.374 -22.489 -15.895  0.00  0.00    -0.321 N 
ATOM      5  C   UNL     1      35.944 -22.318 -18.318  0.00  0.00    +0.116 C 
ATOM      6  C   UNL     1      33.935 -22.115 -19.693  0.00  0.00    +0.055 C 
ATOM      7  C   UNL     1      34.975 -22.703 -17.191  0.00  0.00    +0.107 C 
ATOM      8  C   UNL     1      33.573 -23.384 -18.915  0.00  0.00    +0.122 C 
ATOM      9  H   UNL     1      34.920 -20.643 -18.729  0.00  0.00    -0.073 HD
ATOM     10  H   UNL     1      36.258 -22.091 -15.729  0.00  0.00    +0.148 HD
ENDROOT
BRANCH   5  11
ATOM     11  O   UNL     1      37.073 -21.645 -17.782  0.00  0.00    -0.398 OA
ATOM     12  H   UNL     1      36.847 -21.275 -16.915  0.00  0.00    +0.208 HD
ENDBRANCH   5  11
BRANCH   2  13
ATOM     13  C   UNL     1      35.995 -21.057 -20.390  0.00  0.00    +0.016 C 
BRANCH  13  16
ATOM     14  O   UNL     1      37.216 -19.068 -19.766  0.00  0.00    -0.277 OA
ATOM     15  N   UNL     1      35.203 -18.844 -20.903  0.00  0.00    -0.302 N 
ATOM     16  C   UNL     1      36.224 -19.562 -20.297  0.00  0.00    +0.202 C 
ATOM     17  H   UNL     1      34.452 -19.342 -21.300  0.00  0.00    +0.150 HD
BRANCH  15  18
ATOM     18  C   UNL     1      35.188 -17.401 -20.982  0.00  0.00    +0.117 C 
BRANCH  18  21
ATOM     19 CL   UNL     1      32.032 -12.598 -21.130  0.00  0.00    -0.082 Cl
ATOM     20  S   UNL     1      34.673 -16.773 -24.910  0.00  0.00    -0.087 S 
ATOM     21  C   UNL     1      34.835 -16.917 -22.359  0.00  0.00    +0.004 C 
ATOM     22  C   UNL     1      34.055 -15.740 -22.621  0.00  0.00    +0.005 C 
ATOM     23  C   UNL     1      33.888 -15.540 -23.995  0.00  0.00    +0.029 C 
ATOM     24  C   UNL     1      35.229 -17.564 -23.506  0.00  0.00    +0.033 C 
ATOM     25  C   UNL     1      33.467 -14.808 -21.732  0.00  0.00    +0.012 C 
ATOM     26  C   UNL     1      33.155 -14.446 -24.496  0.00  0.00    +0.007 C 
ATOM     27  C   UNL     1      32.741 -13.722 -22.226  0.00  0.00    +0.058 C 
ATOM     28  C   UNL     1      32.587 -13.544 -23.594  0.00  0.00    +0.012 C 
ENDBRANCH  18  21
ENDBRANCH  15  18
ENDBRANCH  13  16
ENDBRANCH   2  13
BRANCH   4  29
ATOM     29  C   UNL     1      34.547 -22.825 -14.779  0.00  0.00    +0.094 C 
BRANCH  29  30
ATOM     30  C   UNL     1      34.855 -24.235 -14.275  0.00  0.00    +0.067 C 
BRANCH  30  32
ATOM     31  N   UNL     1      36.866 -25.433 -13.601  0.00  0.00    -0.248 NA
ATOM     32  C   UNL     1      36.127 -24.310 -13.467  0.00  0.00    +0.061 C 
ATOM     33  C   UNL     1      36.471 -23.249 -12.643  0.00  0.00    +0.015 C 
ATOM     34  C   UNL     1      37.649 -23.349 -11.912  0.00  0.00    +0.003 C 
ATOM     35  C   UNL     1      38.005 -25.495 -12.875  0.00  0.00    +0.098 C 
ATOM     36  C   UNL     1      38.436 -24.490 -12.024  0.00  0.00    +0.021 C 
ENDBRANCH  30  32
ENDBRANCH  29  30
ENDBRANCH   4  29
TORSDOF 8
ENDMDL
MODEL 9
REMARK VINA RESULT:      -9.7      3.470     10.959
REMARK  Name = 46937056
REMARK  8 active torsions:
REMARK  status: ('A' for Active; 'I' for Inactive)
REMARK    1  A    between atoms: N_2  and  C_13
REMARK    2  A    between atoms: N_4  and  C_29
REMARK    3  A    between atoms: C_5  and  O_11
REMARK    4  A    between atoms: C_13  and  C_16
REMARK    5  A    between atoms: N_15  and  C_18
REMARK    6  A    between atoms: C_18  and  C_21
REMARK    7  A    between atoms: C_29  and  C_30
REMARK    8  A    between atoms: C_30  and  C_32
REMARK                            x       y       z     vdW  Elec       q    Type
REMARK                         _______ _______ _______ _____ _____    ______ ____
ROOT
ATOM      1 CL   UNL     1      34.587 -15.147 -20.247  0.00  0.00    -0.136 Cl
ATOM      2  N   UNL     1      34.983 -16.464 -22.462  0.00  0.00    +0.427 N 
ATOM      3  N   UNL     1      33.373 -18.137 -20.836  0.00  0.00    -0.261 NA
ATOM      4  N   UNL     1      34.972 -19.777 -21.303  0.00  0.00    -0.321 N 
ATOM      5  C   UNL     1      34.724 -17.850 -22.870  0.00  0.00    +0.116 C 
ATOM      6  C   UNL     1      33.863 -15.874 -21.719  0.00  0.00    +0.055 C 
ATOM      7  C   UNL     1      34.317 -18.606 -21.597  0.00  0.00    +0.107 C 
ATOM      8  C   UNL     1      32.783 -16.883 -21.316  0.00  0.00    +0.122 C 
ATOM      9  H   UNL     1      35.777 -16.500 -21.822  0.00  0.00    -0.073 HD
ATOM     10  H   UNL     1      35.683 -20.089 -21.908  0.00  0.00    +0.148 HD
ENDROOT
BRANCH   5  11
ATOM     11  O   UNL     1      35.860 -18.463 -23.458  0.00  0.00    -0.398 OA
ATOM     12  H   UNL     1      36.599 -17.836 -23.466  0.00  0.00    +0.208 HD
ENDBRANCH   5  11
BRANCH   2  13
ATOM     13  C   UNL     1      35.366 -15.626 -23.598  0.00  0.00    +0.016 C 
BRANCH  13  16
ATOM     14  O   UNL     1      33.231 -15.464 -24.717  0.00  0.00    -0.277 OA
ATOM     15  N   UNL     1      34.155 -13.555 -23.770  0.00  0.00    -0.302 N 
ATOM     16  C   UNL     1      34.137 -14.901 -24.105  0.00  0.00    +0.202 C 
ATOM     17  H   UNL     1      34.932 -13.206 -23.277  0.00  0.00    +0.150 HD
BRANCH  15  18
ATOM     18  C   UNL     1      33.088 -12.639 -24.108  0.00  0.00    +0.117 C 
BRANCH  18  21
ATOM     19 CL   UNL     1      33.800  -6.935 -24.064  0.00  0.00    -0.082 Cl
ATOM     20  S   UNL     1      31.407 -11.541 -20.636  0.00  0.00    -0.087 S 
ATOM     21  C   UNL     1      32.542 -11.942 -22.896  0.00  0.00    +0.004 C 
ATOM     22  C   UNL     1      32.614 -10.524 -22.684  0.00  0.00    +0.005 C 
ATOM     23  C   UNL     1      32.023 -10.163 -21.470  0.00  0.00    +0.029 C 
ATOM     24  C   UNL     1      31.916 -12.605 -21.866  0.00  0.00    +0.033 C 
ATOM     25  C   UNL     1      33.168  -9.500 -23.490  0.00  0.00    +0.012 C 
ATOM     26  C   UNL     1      31.974  -8.820 -21.044  0.00  0.00    +0.007 C 
ATOM     27  C   UNL     1      33.120  -8.168 -23.071  0.00  0.00    +0.058 C 
ATOM     28  C   UNL     1      32.529  -7.833 -21.861  0.00  0.00    +0.012 C 
ENDBRANCH  18  21
ENDBRANCH  15  18
ENDBRANCH  13  16
ENDBRANCH   2  13
BRANCH   4  29
ATOM     29  C   UNL     1      34.657 -20.556 -20.148  0.00  0.00    +0.094 C 
BRANCH  29  30
ATOM     30  C   UNL     1      35.768 -21.560 -19.845  0.00  0.00    +0.067 C 
BRANCH  30  32
ATOM     31  N   UNL     1      34.769 -22.656 -17.912  0.00  0.00    -0.248 NA
ATOM     32  C   UNL     1      35.825 -21.960 -18.391  0.00  0.00    +0.061 C 
ATOM     33  C   UNL     1      36.928 -21.604 -17.632  0.00  0.00    +0.015 C 
ATOM     34  C   UNL     1      36.950 -21.988 -16.296  0.00  0.00    +0.003 C 
ATOM     35  C   UNL     1      34.826 -23.012 -16.609  0.00  0.00    +0.098 C 
ATOM     36  C   UNL     1      35.882 -22.705 -15.767  0.00  0.00    +0.021 C 
ENDBRANCH  30  32
ENDBRANCH  29  30
ENDBRANCH   4  29
TORSDOF 8
ENDMDL
