MODEL 1
REMARK VINA RESULT:      -9.3      0.000      0.000
REMARK  Name = 2762
REMARK  3 active torsions:
REMARK  status: ('A' for Active; 'I' for Inactive)
REMARK    1  A    between atoms: N_4  and  C_19
REMARK    2  A    between atoms: C_13  and  C_16
REMARK    3  A    between atoms: C_16  and  O_17
REMARK                            x       y       z     vdW  Elec       q    Type
REMARK                         _______ _______ _______ _____ _____    ______ ____
ROOT
ATOM      1  O   UNL     1      33.099 -13.532 -25.379  0.00  0.00    -0.435 OA
ATOM      2  O   UNL     1      33.521 -15.398 -26.844  0.00  0.00    -0.435 OA
ATOM      3  O   UNL     1      35.317 -19.192 -23.763  0.00  0.00    -0.285 OA
ATOM      4  N   UNL     1      34.582 -16.042 -21.432  0.00  0.00    -0.250 N 
ATOM      5  N   UNL     1      35.066 -17.189 -20.884  0.00  0.00    -0.159 NA
ATOM      6  C   UNL     1      34.316 -15.885 -22.800  0.00  0.00    +0.084 A 
ATOM      7  C   UNL     1      34.550 -16.955 -23.691  0.00  0.00    +0.061 A 
ATOM      8  C   UNL     1      33.580 -14.618 -24.711  0.00  0.00    +0.178 C 
ATOM      9  C   UNL     1      33.815 -14.689 -23.349  0.00  0.00    +0.059 C 
ATOM     10  C   UNL     1      33.819 -15.680 -25.547  0.00  0.00    +0.177 C 
ATOM     11  C   UNL     1      34.308 -16.873 -25.068  0.00  0.00    +0.045 C 
ATOM     12  C   UNL     1      35.070 -18.192 -23.111  0.00  0.00    +0.223 A 
ATOM     13  C   UNL     1      35.307 -18.216 -21.633  0.00  0.00    +0.215 A 
ATOM     14  C   UNL     1      33.062 -14.036 -26.730  0.00  0.00    +0.429 C 
ENDROOT
BRANCH  13  16
ATOM     15  O   UNL     1      36.909 -19.439 -20.374  0.00  0.00    -0.243 OA
ATOM     16  C   UNL     1      35.834 -19.410 -20.914  0.00  0.00    +0.361 C 
BRANCH  16  17
ATOM     17  O   UNL     1      34.921 -20.390 -20.986  0.00  0.00    -0.476 OA
ATOM     18  H   UNL     1      35.187 -21.263 -21.198  0.00  0.00    +0.295 HD
ENDBRANCH  16  17
ENDBRANCH  13  16
BRANCH   4  19
ATOM     19  C   UNL     1      34.347 -14.953 -20.496  0.00  0.00    +0.128 C 
ATOM     20  C   UNL     1      32.882 -14.845 -20.128  0.00  0.00    +0.028 C 
ENDBRANCH   4  19
TORSDOF 3
ENDMDL
MODEL 2
REMARK VINA RESULT:      -9.0      8.098     11.149
REMARK  Name = 2762
REMARK  3 active torsions:
REMARK  status: ('A' for Active; 'I' for Inactive)
REMARK    1  A    between atoms: N_4  and  C_19
REMARK    2  A    between atoms: C_13  and  C_16
REMARK    3  A    between atoms: C_16  and  O_17
REMARK                            x       y       z     vdW  Elec       q    Type
REMARK                         _______ _______ _______ _____ _____    ______ ____
ROOT
ATOM      1  O   UNL     1      34.574 -22.432 -18.512  0.00  0.00    -0.435 OA
ATOM      2  O   UNL     1      36.847 -21.792 -18.032  0.00  0.00    -0.435 OA
ATOM      3  O   UNL     1      37.591 -22.996 -13.022  0.00  0.00    -0.285 OA
ATOM      4  N   UNL     1      33.845 -24.018 -13.927  0.00  0.00    -0.250 N 
ATOM      5  N   UNL     1      34.316 -24.223 -12.666  0.00  0.00    -0.159 NA
ATOM      6  C   UNL     1      34.609 -23.455 -14.960  0.00  0.00    +0.084 A 
ATOM      7  C   UNL     1      35.944 -23.067 -14.718  0.00  0.00    +0.061 A 
ATOM      8  C   UNL     1      34.924 -22.688 -17.220  0.00  0.00    +0.178 C 
ATOM      9  C   UNL     1      34.103 -23.250 -16.258  0.00  0.00    +0.059 C 
ATOM     10  C   UNL     1      36.219 -22.323 -16.949  0.00  0.00    +0.177 C 
ATOM     11  C   UNL     1      36.767 -22.499 -15.700  0.00  0.00    +0.045 C 
ATOM     12  C   UNL     1      36.458 -23.284 -13.367  0.00  0.00    +0.223 A 
ATOM     13  C   UNL     1      35.530 -23.894 -12.365  0.00  0.00    +0.215 A 
ATOM     14  C   UNL     1      35.800 -21.865 -19.020  0.00  0.00    +0.429 C 
ENDROOT
BRANCH  13  16
ATOM     15  O   UNL     1      35.444 -25.051 -10.290  0.00  0.00    -0.243 OA
ATOM     16  C   UNL     1      35.924 -24.170 -10.954  0.00  0.00    +0.361 C 
BRANCH  16  17
ATOM     17  O   UNL     1      36.868 -23.287 -10.594  0.00  0.00    -0.476 OA
ATOM     18  H   UNL     1      37.774 -23.511 -10.671  0.00  0.00    +0.295 HD
ENDBRANCH  16  17
ENDBRANCH  13  16
BRANCH   4  19
ATOM     19  C   UNL     1      32.467 -24.426 -14.153  0.00  0.00    +0.128 C 
ATOM     20  C   UNL     1      31.491 -23.361 -13.698  0.00  0.00    +0.028 C 
ENDBRANCH   4  19
TORSDOF 3
ENDMDL
MODEL 3
REMARK VINA RESULT:      -8.7     10.098     12.140
REMARK  Name = 2762
REMARK  3 active torsions:
REMARK  status: ('A' for Active; 'I' for Inactive)
REMARK    1  A    between atoms: N_4  and  C_19
REMARK    2  A    between atoms: C_13  and  C_16
REMARK    3  A    between atoms: C_16  and  O_17
REMARK                            x       y       z     vdW  Elec       q    Type
REMARK                         _______ _______ _______ _____ _____    ______ ____
ROOT
ATOM      1  O   UNL     1      31.030 -23.844 -16.241  0.00  0.00    -0.435 OA
ATOM      2  O   UNL     1      30.538 -24.953 -14.159  0.00  0.00    -0.435 OA
ATOM      3  O   UNL     1      34.989 -24.853 -11.459  0.00  0.00    -0.285 OA
ATOM      4  N   UNL     1      35.691 -23.037 -14.938  0.00  0.00    -0.250 N 
ATOM      5  N   UNL     1      36.693 -23.156 -14.025  0.00  0.00    -0.159 NA
ATOM      6  C   UNL     1      34.391 -23.523 -14.735  0.00  0.00    +0.084 A 
ATOM      7  C   UNL     1      34.064 -24.178 -13.529  0.00  0.00    +0.061 A 
ATOM      8  C   UNL     1      32.112 -23.899 -15.415  0.00  0.00    +0.178 C 
ATOM      9  C   UNL     1      33.368 -23.390 -15.694  0.00  0.00    +0.059 C 
ATOM     10  C   UNL     1      31.830 -24.530 -14.229  0.00  0.00    +0.177 C 
ATOM     11  C   UNL     1      32.788 -24.689 -13.256  0.00  0.00    +0.045 C 
ATOM     12  C   UNL     1      35.133 -24.311 -12.541  0.00  0.00    +0.223 A 
ATOM     13  C   UNL     1      36.473 -23.744 -12.893  0.00  0.00    +0.215 A 
ATOM     14  C   UNL     1      30.036 -24.512 -15.437  0.00  0.00    +0.429 C 
ENDROOT
BRANCH  13  16
ATOM     15  O   UNL     1      38.272 -22.843 -11.629  0.00  0.00    -0.243 OA
ATOM     16  C   UNL     1      37.649 -23.811 -11.980  0.00  0.00    +0.361 C 
BRANCH  16  17
ATOM     17  O   UNL     1      37.861 -25.093 -11.648  0.00  0.00    -0.476 OA
ATOM     18  H   UNL     1      37.944 -25.743 -12.317  0.00  0.00    +0.295 HD
ENDBRANCH  16  17
ENDBRANCH  13  16
BRANCH   4  19
ATOM     19  C   UNL     1      36.050 -22.358 -16.173  0.00  0.00    +0.128 C 
ATOM     20  C   UNL     1      37.552 -22.308 -16.363  0.00  0.00    +0.028 C 
ENDBRANCH   4  19
TORSDOF 3
ENDMDL
MODEL 4
REMARK VINA RESULT:      -8.7      8.252     10.425
REMARK  Name = 2762
REMARK  3 active torsions:
REMARK  status: ('A' for Active; 'I' for Inactive)
REMARK    1  A    between atoms: N_4  and  C_19
REMARK    2  A    between atoms: C_13  and  C_16
REMARK    3  A    between atoms: C_16  and  O_17
REMARK                            x       y       z     vdW  Elec       q    Type
REMARK                         _______ _______ _______ _____ _____    ______ ____
ROOT
ATOM      1  O   UNL     1      29.395 -22.603 -16.929  0.00  0.00    -0.435 OA
ATOM      2  O   UNL     1      29.515 -23.375 -14.649  0.00  0.00    -0.435 OA
ATOM      3  O   UNL     1      34.581 -24.116 -13.708  0.00  0.00    -0.285 OA
ATOM      4  N   UNL     1      34.266 -22.832 -17.469  0.00  0.00    -0.250 N 
ATOM      5  N   UNL     1      35.494 -23.110 -16.950  0.00  0.00    -0.159 NA
ATOM      6  C   UNL     1      33.069 -22.971 -16.751  0.00  0.00    +0.084 A 
ATOM      7  C   UNL     1      33.098 -23.421 -15.414  0.00  0.00    +0.061 A 
ATOM      8  C   UNL     1      30.675 -22.844 -16.529  0.00  0.00    +0.178 C 
ATOM      9  C   UNL     1      31.808 -22.680 -17.306  0.00  0.00    +0.059 C 
ATOM     10  C   UNL     1      30.741 -23.283 -15.230  0.00  0.00    +0.177 C 
ATOM     11  C   UNL     1      31.944 -23.584 -14.635  0.00  0.00    +0.045 C 
ATOM     12  C   UNL     1      34.412 -23.721 -14.848  0.00  0.00    +0.223 A 
ATOM     13  C   UNL     1      35.604 -23.527 -15.731  0.00  0.00    +0.215 A 
ATOM     14  C   UNL     1      28.666 -22.939 -15.730  0.00  0.00    +0.429 C 
ENDROOT
BRANCH  13  16
ATOM     15  O   UNL     1      37.746 -22.938 -14.886  0.00  0.00    -0.243 OA
ATOM     16  C   UNL     1      37.000 -23.795 -15.282  0.00  0.00    +0.361 C 
BRANCH  16  17
ATOM     17  O   UNL     1      37.243 -25.108 -15.402  0.00  0.00    -0.476 OA
ATOM     18  H   UNL     1      36.533 -25.707 -15.519  0.00  0.00    +0.295 HD
ENDBRANCH  16  17
ENDBRANCH  13  16
BRANCH   4  19
ATOM     19  C   UNL     1      34.261 -22.370 -18.848  0.00  0.00    +0.128 C 
ATOM     20  C   UNL     1      35.575 -21.714 -19.219  0.00  0.00    +0.028 C 
ENDBRANCH   4  19
TORSDOF 3
ENDMDL
MODEL 5
REMARK VINA RESULT:      -8.6      8.001     11.651
REMARK  Name = 2762
REMARK  3 active torsions:
REMARK  status: ('A' for Active; 'I' for Inactive)
REMARK    1  A    between atoms: N_4  and  C_19
REMARK    2  A    between atoms: C_13  and  C_16
REMARK    3  A    between atoms: C_16  and  O_17
REMARK                            x       y       z     vdW  Elec       q    Type
REMARK                         _______ _______ _______ _____ _____    ______ ____
ROOT
ATOM      1  O   UNL     1      34.965 -24.284 -11.369  0.00  0.00    -0.435 OA
ATOM      2  O   UNL     1      37.044 -23.602 -12.379  0.00  0.00    -0.435 OA
ATOM      3  O   UNL     1      35.885 -22.554 -17.346  0.00  0.00    -0.285 OA
ATOM      4  N   UNL     1      32.503 -23.697 -15.572  0.00  0.00    -0.250 N 
ATOM      5  N   UNL     1      32.493 -23.359 -16.890  0.00  0.00    -0.159 NA
ATOM      6  C   UNL     1      33.654 -23.671 -14.770  0.00  0.00    +0.084 A 
ATOM      7  C   UNL     1      34.890 -23.277 -15.325  0.00  0.00    +0.061 A 
ATOM      8  C   UNL     1      34.824 -23.972 -12.688  0.00  0.00    +0.178 C 
ATOM      9  C   UNL     1      33.643 -24.026 -13.408  0.00  0.00    +0.059 C 
ATOM     10  C   UNL     1      36.008 -23.583 -13.261  0.00  0.00    +0.177 C 
ATOM     11  C   UNL     1      36.080 -23.227 -14.588  0.00  0.00    +0.045 C 
ATOM     12  C   UNL     1      34.889 -22.912 -16.741  0.00  0.00    +0.223 A 
ATOM     13  C   UNL     1      33.587 -22.987 -17.473  0.00  0.00    +0.215 A 
ATOM     14  C   UNL     1      36.376 -24.044 -11.181  0.00  0.00    +0.429 C 
ENDROOT
BRANCH  13  16
ATOM     15  O   UNL     1      32.786 -21.719 -19.317  0.00  0.00    -0.243 OA
ATOM     16  C   UNL     1      33.444 -22.643 -18.916  0.00  0.00    +0.361 C 
BRANCH  16  17
ATOM     17  O   UNL     1      34.156 -23.523 -19.637  0.00  0.00    -0.476 OA
ATOM     18  H   UNL     1      34.521 -23.266 -20.460  0.00  0.00    +0.295 HD
ENDBRANCH  16  17
ENDBRANCH  13  16
BRANCH   4  19
ATOM     19  C   UNL     1      31.218 -24.099 -15.021  0.00  0.00    +0.128 C 
ATOM     20  C   UNL     1      30.269 -22.923 -14.911  0.00  0.00    +0.028 C 
ENDBRANCH   4  19
TORSDOF 3
ENDMDL
MODEL 6
REMARK VINA RESULT:      -8.5      2.530      6.077
REMARK  Name = 2762
REMARK  3 active torsions:
REMARK  status: ('A' for Active; 'I' for Inactive)
REMARK    1  A    between atoms: N_4  and  C_19
REMARK    2  A    between atoms: C_13  and  C_16
REMARK    3  A    between atoms: C_16  and  O_17
REMARK                            x       y       z     vdW  Elec       q    Type
REMARK                         _______ _______ _______ _____ _____    ______ ____
ROOT
ATOM      1  O   UNL     1      35.709 -18.635 -22.926  0.00  0.00    -0.435 OA
ATOM      2  O   UNL     1      35.501 -18.090 -20.587  0.00  0.00    -0.435 OA
ATOM      3  O   UNL     1      32.947 -13.555 -20.450  0.00  0.00    -0.285 OA
ATOM      4  N   UNL     1      33.349 -14.555 -24.288  0.00  0.00    -0.250 N 
ATOM      5  N   UNL     1      32.711 -13.400 -23.954  0.00  0.00    -0.159 NA
ATOM      6  C   UNL     1      33.890 -15.444 -23.348  0.00  0.00    +0.084 A 
ATOM      7  C   UNL     1      33.788 -15.161 -21.970  0.00  0.00    +0.061 A 
ATOM      8  C   UNL     1      35.053 -17.458 -22.723  0.00  0.00    +0.178 C 
ATOM      9  C   UNL     1      34.547 -16.635 -23.714  0.00  0.00    +0.059 C 
ATOM     10  C   UNL     1      34.935 -17.150 -21.391  0.00  0.00    +0.177 C 
ATOM     11  C   UNL     1      34.305 -16.000 -20.974  0.00  0.00    +0.045 C 
ATOM     12  C   UNL     1      33.105 -13.922 -21.601  0.00  0.00    +0.223 A 
ATOM     13  C   UNL     1      32.577 -13.068 -22.711  0.00  0.00    +0.215 A 
ATOM     14  C   UNL     1      35.987 -19.030 -21.566  0.00  0.00    +0.429 C 
ENDROOT
BRANCH  13  16
ATOM     15  O   UNL     1      32.245 -10.722 -22.898  0.00  0.00    -0.243 OA
ATOM     16  C   UNL     1      31.861 -11.782 -22.477  0.00  0.00    +0.361 C 
BRANCH  16  17
ATOM     17  O   UNL     1      30.766 -12.030 -21.743  0.00  0.00    -0.476 OA
ATOM     18  H   UNL     1      30.386 -11.349 -21.225  0.00  0.00    +0.295 HD
ENDBRANCH  16  17
ENDBRANCH  13  16
BRANCH   4  19
ATOM     19  C   UNL     1      33.441 -14.828 -25.714  0.00  0.00    +0.128 C 
ATOM     20  C   UNL     1      33.104 -13.601 -26.537  0.00  0.00    +0.028 C 
ENDBRANCH   4  19
TORSDOF 3
ENDMDL
MODEL 7
REMARK VINA RESULT:      -8.5      8.276     11.688
REMARK  Name = 2762
REMARK  3 active torsions:
REMARK  status: ('A' for Active; 'I' for Inactive)
REMARK    1  A    between atoms: N_4  and  C_19
REMARK    2  A    between atoms: C_13  and  C_16
REMARK    3  A    between atoms: C_16  and  O_17
REMARK                            x       y       z     vdW  Elec       q    Type
REMARK                         _______ _______ _______ _____ _____    ______ ____
ROOT
ATOM      1  O   UNL     1      36.739 -24.033 -14.363  0.00  0.00    -0.435 OA
ATOM      2  O   UNL     1      35.349 -24.466 -12.443  0.00  0.00    -0.435 OA
ATOM      3  O   UNL     1      30.463 -23.726 -14.084  0.00  0.00    -0.285 OA
ATOM      4  N   UNL     1      32.859 -23.033 -17.194  0.00  0.00    -0.250 N 
ATOM      5  N   UNL     1      31.512 -22.911 -17.339  0.00  0.00    -0.159 NA
ATOM      6  C   UNL     1      33.482 -23.395 -15.991  0.00  0.00    +0.084 A 
ATOM      7  C   UNL     1      32.702 -23.657 -14.844  0.00  0.00    +0.061 A 
ATOM      8  C   UNL     1      35.414 -23.878 -14.636  0.00  0.00    +0.178 C 
ATOM      9  C   UNL     1      34.879 -23.515 -15.860  0.00  0.00    +0.059 C 
ATOM     10  C   UNL     1      34.623 -24.126 -13.542  0.00  0.00    +0.177 C 
ATOM     11  C   UNL     1      33.253 -24.024 -13.609  0.00  0.00    +0.045 C 
ATOM     12  C   UNL     1      31.254 -23.529 -14.991  0.00  0.00    +0.223 A 
ATOM     13  C   UNL     1      30.728 -23.134 -16.334  0.00  0.00    +0.215 A 
ATOM     14  C   UNL     1      36.690 -24.408 -12.970  0.00  0.00    +0.429 C 
ENDROOT
BRANCH  13  16
ATOM     15  O   UNL     1      28.786 -21.933 -16.996  0.00  0.00    -0.243 OA
ATOM     16  C   UNL     1      29.275 -22.967 -16.622  0.00  0.00    +0.361 C 
BRANCH  16  17
ATOM     17  O   UNL     1      28.657 -24.136 -16.392  0.00  0.00    -0.476 OA
ATOM     18  H   UNL     1      28.117 -24.239 -15.634  0.00  0.00    +0.295 HD
ENDBRANCH  16  17
ENDBRANCH  13  16
BRANCH   4  19
ATOM     19  C   UNL     1      33.643 -22.759 -18.388  0.00  0.00    +0.128 C 
ATOM     20  C   UNL     1      33.081 -21.586 -19.165  0.00  0.00    +0.028 C 
ENDBRANCH   4  19
TORSDOF 3
ENDMDL
MODEL 8
REMARK VINA RESULT:      -8.5      9.334     11.814
REMARK  Name = 2762
REMARK  3 active torsions:
REMARK  status: ('A' for Active; 'I' for Inactive)
REMARK    1  A    between atoms: N_4  and  C_19
REMARK    2  A    between atoms: C_13  and  C_16
REMARK    3  A    between atoms: C_16  and  O_17
REMARK                            x       y       z     vdW  Elec       q    Type
REMARK                         _______ _______ _______ _____ _____    ______ ____
ROOT
ATOM      1  O   UNL     1      32.499 -22.789 -14.703  0.00  0.00    -0.435 OA
ATOM      2  O   UNL     1      32.645 -24.829 -13.428  0.00  0.00    -0.435 OA
ATOM      3  O   UNL     1      37.650 -26.246 -13.665  0.00  0.00    -0.285 OA
ATOM      4  N   UNL     1      37.291 -22.867 -15.749  0.00  0.00    -0.250 N 
ATOM      5  N   UNL     1      38.507 -23.468 -15.643  0.00  0.00    -0.159 NA
ATOM      6  C   UNL     1      36.121 -23.368 -15.161  0.00  0.00    +0.084 A 
ATOM      7  C   UNL     1      36.166 -24.560 -14.407  0.00  0.00    +0.061 A 
ATOM      8  C   UNL     1      33.765 -23.291 -14.671  0.00  0.00    +0.178 C 
ATOM      9  C   UNL     1      34.871 -22.730 -15.284  0.00  0.00    +0.059 C 
ATOM     10  C   UNL     1      33.846 -24.453 -13.944  0.00  0.00    +0.177 C 
ATOM     11  C   UNL     1      35.039 -25.120 -13.790  0.00  0.00    +0.045 C 
ATOM     12  C   UNL     1      37.468 -25.213 -14.286  0.00  0.00    +0.223 A 
ATOM     13  C   UNL     1      38.632 -24.565 -14.968  0.00  0.00    +0.215 A 
ATOM     14  C   UNL     1      31.795 -23.769 -13.911  0.00  0.00    +0.429 C 
ENDROOT
BRANCH  13  16
ATOM     15  O   UNL     1      40.777 -24.939 -14.015  0.00  0.00    -0.243 OA
ATOM     16  C   UNL     1      40.013 -25.124 -14.926  0.00  0.00    +0.361 C 
BRANCH  16  17
ATOM     17  O   UNL     1      40.221 -25.835 -16.045  0.00  0.00    -0.476 OA
ATOM     18  H   UNL     1      39.764 -26.641 -16.180  0.00  0.00    +0.295 HD
ENDBRANCH  16  17
ENDBRANCH  13  16
BRANCH   4  19
ATOM     19  C   UNL     1      37.269 -21.639 -16.530  0.00  0.00    +0.128 C 
ATOM     20  C   UNL     1      36.784 -21.889 -17.943  0.00  0.00    +0.028 C 
ENDBRANCH   4  19
TORSDOF 3
ENDMDL
MODEL 9
REMARK VINA RESULT:      -8.4      6.719     10.394
REMARK  Name = 2762
REMARK  3 active torsions:
REMARK  status: ('A' for Active; 'I' for Inactive)
REMARK    1  A    between atoms: N_4  and  C_19
REMARK    2  A    between atoms: C_13  and  C_16
REMARK    3  A    between atoms: C_16  and  O_17
REMARK                            x       y       z     vdW  Elec       q    Type
REMARK                         _______ _______ _______ _____ _____    ______ ____
ROOT
ATOM      1  O   UNL     1      31.955 -24.733 -13.433  0.00  0.00    -0.435 OA
ATOM      2  O   UNL     1      30.222 -24.286 -15.047  0.00  0.00    -0.435 OA
ATOM      3  O   UNL     1      32.655 -22.161 -19.130  0.00  0.00    -0.285 OA
ATOM      4  N   UNL     1      35.440 -22.944 -16.387  0.00  0.00    -0.250 N 
ATOM      5  N   UNL     1      35.799 -22.378 -17.571  0.00  0.00    -0.159 NA
ATOM      6  C   UNL     1      34.120 -23.281 -16.054  0.00  0.00    +0.084 A 
ATOM      7  C   UNL     1      33.077 -23.035 -16.973  0.00  0.00    +0.061 A 
ATOM      8  C   UNL     1      32.441 -24.168 -14.573  0.00  0.00    +0.178 C 
ATOM      9  C   UNL     1      33.769 -23.866 -14.822  0.00  0.00    +0.059 C 
ATOM     10  C   UNL     1      31.453 -23.914 -15.491  0.00  0.00    +0.177 C 
ATOM     11  C   UNL     1      31.736 -23.344 -16.710  0.00  0.00    +0.045 C 
ATOM     12  C   UNL     1      33.453 -22.427 -18.248  0.00  0.00    +0.223 A 
ATOM     13  C   UNL     1      34.901 -22.121 -18.466  0.00  0.00    +0.215 A 
ATOM     14  C   UNL     1      30.548 -24.807 -13.742  0.00  0.00    +0.429 C 
ENDROOT
BRANCH  13  16
ATOM     15  O   UNL     1      36.436 -21.852 -20.261  0.00  0.00    -0.243 OA
ATOM     16  C   UNL     1      35.421 -21.502 -19.719  0.00  0.00    +0.361 C 
BRANCH  16  17
ATOM     17  O   UNL     1      34.578 -20.529 -20.097  0.00  0.00    -0.476 OA
ATOM     18  H   UNL     1      34.573 -20.233 -20.985  0.00  0.00    +0.295 HD
ENDBRANCH  16  17
ENDBRANCH  13  16
BRANCH   4  19
ATOM     19  C   UNL     1      36.531 -23.190 -15.456  0.00  0.00    +0.128 C 
ATOM     20  C   UNL     1      37.855 -22.708 -16.013  0.00  0.00    +0.028 C 
ENDBRANCH   4  19
TORSDOF 3
ENDMDL
