MODEL 1
REMARK VINA RESULT:      -9.5      0.000      0.000
REMARK  Name = 11508736
REMARK  6 active torsions:
REMARK  status: ('A' for Active; 'I' for Inactive)
REMARK    1  A    between atoms: N_1  and  C_11
REMARK    2  A    between atoms: C_4  and  C_22
REMARK    3  A    between atoms: C_11  and  C_12
REMARK    4  A    between atoms: C_15  and  S_18
REMARK    5  A    between atoms: C_22  and  C_24
REMARK    6  A    between atoms: C_24  and  O_25
REMARK                            x       y       z     vdW  Elec       q    Type
REMARK                         _______ _______ _______ _____ _____    ______ ____
ROOT
ATOM      1  N   UNL     1      35.076 -16.797 -22.981  0.00  0.00    -0.312 N 
ATOM      2  N   UNL     1      34.783 -15.823 -20.797  0.00  0.00    -0.227 NA
ATOM      3  C   UNL     1      34.538 -16.631 -24.230  0.00  0.00    +0.036 A 
ATOM      4  C   UNL     1      33.588 -15.635 -24.158  0.00  0.00    +0.004 A 
ATOM      5  C   UNL     1      33.546 -15.178 -22.814  0.00  0.00    +0.032 A 
ATOM      6  C   UNL     1      34.485 -15.923 -22.106  0.00  0.00    +0.143 A 
ATOM      7  C   UNL     1      34.978 -17.441 -25.386  0.00  0.00    +0.050 C 
ATOM      8  C   UNL     1      32.818 -14.211 -22.101  0.00  0.00    +0.004 C 
ATOM      9  C   UNL     1      33.087 -14.066 -20.741  0.00  0.00    +0.021 C 
ATOM     10  C   UNL     1      34.052 -14.877 -20.161  0.00  0.00    +0.101 C 
ENDROOT
BRANCH   1  11
ATOM     11  C   UNL     1      36.106 -17.752 -22.631  0.00  0.00    +0.134 C 
BRANCH  11  12
ATOM     12  C   UNL     1      35.564 -18.852 -21.760  0.00  0.00    +0.000 C 
ATOM     13  C   UNL     1      34.221 -19.191 -21.843  0.00  0.00    -0.001 C 
ATOM     14  C   UNL     1      36.415 -19.512 -20.884  0.00  0.00    -0.001 C 
ATOM     15  C   UNL     1      34.564 -20.882 -20.153  0.00  0.00    +0.106 C 
ATOM     16  C   UNL     1      33.718 -20.211 -21.035  0.00  0.00    +0.018 C 
ATOM     17  C   UNL     1      35.912 -20.533 -20.077  0.00  0.00    +0.018 C 
BRANCH  15  18
ATOM     18  S   UNL     1      33.935 -22.161 -19.143  0.00  0.00    +0.010 S 
ATOM     19  O   UNL     1      32.625 -21.748 -18.659  0.00  0.00    -0.169 OA
ATOM     20  O   UNL     1      34.080 -23.430 -19.843  0.00  0.00    -0.169 OA
ATOM     21  C   UNL     1      35.042 -22.208 -17.751  0.00  0.00    +0.182 C 
ENDBRANCH  15  18
ENDBRANCH  11  12
ENDBRANCH   1  11
BRANCH   4  22
ATOM     22  C   UNL     1      32.762 -15.134 -25.276  0.00  0.00    +0.137 C 
BRANCH  22  24
ATOM     23  O   UNL     1      33.552 -12.852 -25.431  0.00  0.00    -0.250 OA
ATOM     24  C   UNL     1      33.409 -13.948 -25.958  0.00  0.00    +0.318 C 
BRANCH  24  25
ATOM     25  O   UNL     1      33.777 -14.213 -27.237  0.00  0.00    -0.480 OA
ATOM     26  H   UNL     1      33.663 -13.562 -27.901  0.00  0.00    +0.295 HD
ENDBRANCH  24  25
ENDBRANCH  22  24
ENDBRANCH   4  22
TORSDOF 6
ENDMDL
MODEL 2
REMARK VINA RESULT:      -9.4      4.624      9.960
REMARK  Name = 11508736
REMARK  6 active torsions:
REMARK  status: ('A' for Active; 'I' for Inactive)
REMARK    1  A    between atoms: N_1  and  C_11
REMARK    2  A    between atoms: C_4  and  C_22
REMARK    3  A    between atoms: C_11  and  C_12
REMARK    4  A    between atoms: C_15  and  S_18
REMARK    5  A    between atoms: C_22  and  C_24
REMARK    6  A    between atoms: C_24  and  O_25
REMARK                            x       y       z     vdW  Elec       q    Type
REMARK                         _______ _______ _______ _____ _____    ______ ____
ROOT
ATOM      1  N   UNL     1      33.755 -23.470 -16.942  0.00  0.00    -0.312 N 
ATOM      2  N   UNL     1      36.117 -23.476 -16.470  0.00  0.00    -0.227 NA
ATOM      3  C   UNL     1      32.593 -23.345 -16.227  0.00  0.00    +0.036 A 
ATOM      4  C   UNL     1      32.922 -23.183 -14.898  0.00  0.00    +0.004 A 
ATOM      5  C   UNL     1      34.339 -23.210 -14.801  0.00  0.00    +0.032 A 
ATOM      6  C   UNL     1      34.827 -23.391 -16.092  0.00  0.00    +0.143 A 
ATOM      7  C   UNL     1      31.265 -23.393 -16.877  0.00  0.00    +0.050 C 
ATOM      8  C   UNL     1      35.279 -23.102 -13.764  0.00  0.00    +0.004 C 
ATOM      9  C   UNL     1      36.630 -23.183 -14.099  0.00  0.00    +0.021 C 
ATOM     10  C   UNL     1      36.978 -23.366 -15.431  0.00  0.00    +0.101 C 
ENDROOT
BRANCH   1  11
ATOM     11  C   UNL     1      33.842 -23.662 -18.374  0.00  0.00    +0.134 C 
BRANCH  11  12
ATOM     12  C   UNL     1      34.049 -22.357 -19.092  0.00  0.00    +0.000 C 
ATOM     13  C   UNL     1      35.339 -21.938 -19.390  0.00  0.00    -0.001 C 
ATOM     14  C   UNL     1      32.949 -21.590 -19.448  0.00  0.00    -0.001 C 
ATOM     15  C   UNL     1      34.433 -19.950 -20.420  0.00  0.00    +0.106 C 
ATOM     16  C   UNL     1      35.531 -20.728 -20.057  0.00  0.00    +0.018 C 
ATOM     17  C   UNL     1      33.142 -20.380 -20.115  0.00  0.00    +0.018 C 
BRANCH  15  18
ATOM     18  S   UNL     1      34.674 -18.436 -21.256  0.00  0.00    +0.010 S 
ATOM     19  O   UNL     1      33.483 -17.620 -21.061  0.00  0.00    -0.169 OA
ATOM     20  O   UNL     1      35.981 -17.902 -20.899  0.00  0.00    -0.169 OA
ATOM     21  C   UNL     1      34.750 -18.888 -22.975  0.00  0.00    +0.182 C 
ENDBRANCH  15  18
ENDBRANCH  11  12
ENDBRANCH   1  11
BRANCH   4  22
ATOM     22  C   UNL     1      31.974 -23.012 -13.778  0.00  0.00    +0.137 C 
BRANCH  22  24
ATOM     23  O   UNL     1      30.050 -24.448 -13.475  0.00  0.00    -0.250 OA
ATOM     24  C   UNL     1      31.266 -24.308 -13.447  0.00  0.00    +0.318 C 
BRANCH  24  25
ATOM     25  O   UNL     1      32.120 -25.292 -13.069  0.00  0.00    -0.480 OA
ATOM     26  H   UNL     1      32.329 -25.409 -12.163  0.00  0.00    +0.295 HD
ENDBRANCH  24  25
ENDBRANCH  22  24
ENDBRANCH   4  22
TORSDOF 6
ENDMDL
MODEL 3
REMARK VINA RESULT:      -9.1      4.634     10.001
REMARK  Name = 11508736
REMARK  6 active torsions:
REMARK  status: ('A' for Active; 'I' for Inactive)
REMARK    1  A    between atoms: N_1  and  C_11
REMARK    2  A    between atoms: C_4  and  C_22
REMARK    3  A    between atoms: C_11  and  C_12
REMARK    4  A    between atoms: C_15  and  S_18
REMARK    5  A    between atoms: C_22  and  C_24
REMARK    6  A    between atoms: C_24  and  O_25
REMARK                            x       y       z     vdW  Elec       q    Type
REMARK                         _______ _______ _______ _____ _____    ______ ____
ROOT
ATOM      1  N   UNL     1      33.643 -23.453 -16.937  0.00  0.00    -0.312 N 
ATOM      2  N   UNL     1      31.241 -23.271 -16.934  0.00  0.00    -0.227 NA
ATOM      3  C   UNL     1      34.651 -23.399 -16.010  0.00  0.00    +0.036 A 
ATOM      4  C   UNL     1      34.084 -23.182 -14.772  0.00  0.00    +0.004 A 
ATOM      5  C   UNL     1      32.678 -23.101 -14.953  0.00  0.00    +0.032 A 
ATOM      6  C   UNL     1      32.437 -23.273 -16.313  0.00  0.00    +0.143 A 
ATOM      7  C   UNL     1      36.072 -23.558 -16.388  0.00  0.00    +0.050 C 
ATOM      8  C   UNL     1      31.566 -22.900 -14.120  0.00  0.00    +0.004 C 
ATOM      9  C   UNL     1      30.303 -22.888 -14.711  0.00  0.00    +0.021 C 
ATOM     10  C   UNL     1      30.207 -23.074 -16.083  0.00  0.00    +0.101 C 
ENDROOT
BRANCH   1  11
ATOM     11  C   UNL     1      33.821 -23.662 -18.358  0.00  0.00    +0.134 C 
BRANCH  11  12
ATOM     12  C   UNL     1      34.033 -22.361 -19.083  0.00  0.00    +0.000 C 
ATOM     13  C   UNL     1      35.323 -21.953 -19.393  0.00  0.00    -0.001 C 
ATOM     14  C   UNL     1      32.936 -21.585 -19.432  0.00  0.00    -0.001 C 
ATOM     15  C   UNL     1      34.425 -19.961 -20.422  0.00  0.00    +0.106 C 
ATOM     16  C   UNL     1      35.520 -20.747 -20.066  0.00  0.00    +0.018 C 
ATOM     17  C   UNL     1      33.133 -20.380 -20.105  0.00  0.00    +0.018 C 
BRANCH  15  18
ATOM     18  S   UNL     1      34.671 -18.452 -21.266  0.00  0.00    +0.010 S 
ATOM     19  O   UNL     1      33.471 -17.644 -21.101  0.00  0.00    -0.169 OA
ATOM     20  O   UNL     1      35.967 -17.905 -20.886  0.00  0.00    -0.169 OA
ATOM     21  C   UNL     1      34.787 -18.918 -22.979  0.00  0.00    +0.182 C 
ENDBRANCH  15  18
ENDBRANCH  11  12
ENDBRANCH   1  11
BRANCH   4  22
ATOM     22  C   UNL     1      34.808 -23.055 -13.490  0.00  0.00    +0.137 C 
BRANCH  22  24
ATOM     23  O   UNL     1      36.242 -24.980 -13.178  0.00  0.00    -0.250 OA
ATOM     24  C   UNL     1      35.187 -24.409 -12.930  0.00  0.00    +0.318 C 
BRANCH  24  25
ATOM     25  O   UNL     1      34.213 -24.949 -12.155  0.00  0.00    -0.480 OA
ATOM     26  H   UNL     1      34.433 -25.580 -11.498  0.00  0.00    +0.295 HD
ENDBRANCH  24  25
ENDBRANCH  22  24
ENDBRANCH   4  22
TORSDOF 6
ENDMDL
MODEL 4
REMARK VINA RESULT:      -9.0      1.313      3.034
REMARK  Name = 11508736
REMARK  6 active torsions:
REMARK  status: ('A' for Active; 'I' for Inactive)
REMARK    1  A    between atoms: N_1  and  C_11
REMARK    2  A    between atoms: C_4  and  C_22
REMARK    3  A    between atoms: C_11  and  C_12
REMARK    4  A    between atoms: C_15  and  S_18
REMARK    5  A    between atoms: C_22  and  C_24
REMARK    6  A    between atoms: C_24  and  O_25
REMARK                            x       y       z     vdW  Elec       q    Type
REMARK                         _______ _______ _______ _____ _____    ______ ____
ROOT
ATOM      1  N   UNL     1      35.027 -16.604 -22.417  0.00  0.00    -0.312 N 
ATOM      2  N   UNL     1      34.885 -16.960 -24.795  0.00  0.00    -0.227 NA
ATOM      3  C   UNL     1      34.424 -15.796 -21.489  0.00  0.00    +0.036 A 
ATOM      4  C   UNL     1      33.507 -15.002 -22.144  0.00  0.00    +0.004 A 
ATOM      5  C   UNL     1      33.555 -15.339 -23.523  0.00  0.00    +0.032 A 
ATOM      6  C   UNL     1      34.512 -16.341 -23.659  0.00  0.00    +0.143 A 
ATOM      7  C   UNL     1      34.778 -15.852 -20.054  0.00  0.00    +0.050 C 
ATOM      8  C   UNL     1      32.894 -14.914 -24.687  0.00  0.00    +0.004 C 
ATOM      9  C   UNL     1      33.243 -15.522 -25.892  0.00  0.00    +0.021 C 
ATOM     10  C   UNL     1      34.217 -16.510 -25.884  0.00  0.00    +0.101 C 
ENDROOT
BRANCH   1  11
ATOM     11  C   UNL     1      36.055 -17.583 -22.134  0.00  0.00    +0.134 C 
BRANCH  11  12
ATOM     12  C   UNL     1      35.500 -18.761 -21.380  0.00  0.00    +0.000 C 
ATOM     13  C   UNL     1      36.356 -19.557 -20.631  0.00  0.00    -0.001 C 
ATOM     14  C   UNL     1      34.141 -19.037 -21.444  0.00  0.00    -0.001 C 
ATOM     15  C   UNL     1      34.478 -20.934 -19.987  0.00  0.00    +0.106 C 
ATOM     16  C   UNL     1      35.842 -20.649 -19.931  0.00  0.00    +0.018 C 
ATOM     17  C   UNL     1      33.628 -20.128 -20.744  0.00  0.00    +0.018 C 
BRANCH  15  18
ATOM     18  S   UNL     1      33.835 -22.300 -19.110  0.00  0.00    +0.010 S 
ATOM     19  O   UNL     1      32.490 -21.957 -18.669  0.00  0.00    -0.169 OA
ATOM     20  O   UNL     1      34.052 -23.509 -19.894  0.00  0.00    -0.169 OA
ATOM     21  C   UNL     1      34.868 -22.425 -17.667  0.00  0.00    +0.182 C 
ENDBRANCH  15  18
ENDBRANCH  11  12
ENDBRANCH   1  11
BRANCH   4  22
ATOM     22  C   UNL     1      32.634 -13.983 -21.524  0.00  0.00    +0.137 C 
BRANCH  22  24
ATOM     23  O   UNL     1      33.480 -12.208 -22.935  0.00  0.00    -0.250 OA
ATOM     24  C   UNL     1      32.526 -12.745 -22.387  0.00  0.00    +0.318 C 
BRANCH  24  25
ATOM     25  O   UNL     1      31.260 -12.261 -22.456  0.00  0.00    -0.480 OA
ATOM     26  H   UNL     1      30.532 -12.835 -22.322  0.00  0.00    +0.295 HD
ENDBRANCH  24  25
ENDBRANCH  22  24
ENDBRANCH   4  22
TORSDOF 6
ENDMDL
MODEL 5
REMARK VINA RESULT:      -8.9      3.950      9.068
REMARK  Name = 11508736
REMARK  6 active torsions:
REMARK  status: ('A' for Active; 'I' for Inactive)
REMARK    1  A    between atoms: N_1  and  C_11
REMARK    2  A    between atoms: C_4  and  C_22
REMARK    3  A    between atoms: C_11  and  C_12
REMARK    4  A    between atoms: C_15  and  S_18
REMARK    5  A    between atoms: C_22  and  C_24
REMARK    6  A    between atoms: C_24  and  O_25
REMARK                            x       y       z     vdW  Elec       q    Type
REMARK                         _______ _______ _______ _____ _____    ______ ____
ROOT
ATOM      1  N   UNL     1      34.609 -22.435 -18.459  0.00  0.00    -0.312 N 
ATOM      2  N   UNL     1      32.377 -23.060 -17.802  0.00  0.00    -0.227 NA
ATOM      3  C   UNL     1      35.817 -22.242 -17.840  0.00  0.00    +0.036 A 
ATOM      4  C   UNL     1      35.651 -22.481 -16.493  0.00  0.00    +0.004 A 
ATOM      5  C   UNL     1      34.291 -22.834 -16.284  0.00  0.00    +0.032 A 
ATOM      6  C   UNL     1      33.669 -22.795 -17.529  0.00  0.00    +0.143 A 
ATOM      7  C   UNL     1      37.026 -21.843 -18.592  0.00  0.00    +0.050 C 
ATOM      8  C   UNL     1      33.501 -23.185 -15.178  0.00  0.00    +0.004 C 
ATOM      9  C   UNL     1      32.155 -23.470 -15.404  0.00  0.00    +0.021 C 
ATOM     10  C   UNL     1      31.664 -23.393 -16.700  0.00  0.00    +0.101 C 
ENDROOT
BRANCH   1  11
ATOM     11  C   UNL     1      34.358 -22.279 -19.876  0.00  0.00    +0.134 C 
BRANCH  11  12
ATOM     12  C   UNL     1      34.280 -20.828 -20.264  0.00  0.00    +0.000 C 
ATOM     13  C   UNL     1      35.436 -20.156 -20.636  0.00  0.00    -0.001 C 
ATOM     14  C   UNL     1      33.052 -20.180 -20.245  0.00  0.00    -0.001 C 
ATOM     15  C   UNL     1      34.136 -18.150 -20.983  0.00  0.00    +0.106 C 
ATOM     16  C   UNL     1      35.364 -18.810 -20.997  0.00  0.00    +0.018 C 
ATOM     17  C   UNL     1      32.980 -18.835 -20.607  0.00  0.00    +0.018 C 
BRANCH  15  18
ATOM     18  S   UNL     1      34.045 -16.466 -21.436  0.00  0.00    +0.010 S 
ATOM     19  O   UNL     1      34.984 -15.726 -20.605  0.00  0.00    -0.169 OA
ATOM     20  O   UNL     1      34.126 -16.363 -22.887  0.00  0.00    -0.169 OA
ATOM     21  C   UNL     1      32.399 -15.973 -20.973  0.00  0.00    +0.182 C 
ENDBRANCH  15  18
ENDBRANCH  11  12
ENDBRANCH   1  11
BRANCH   4  22
ATOM     22  C   UNL     1      36.698 -22.388 -15.454  0.00  0.00    +0.137 C 
BRANCH  22  24
ATOM     23  O   UNL     1      37.032 -24.700 -14.823  0.00  0.00    -0.250 OA
ATOM     24  C   UNL     1      37.477 -23.679 -15.332  0.00  0.00    +0.318 C 
BRANCH  24  25
ATOM     25  O   UNL     1      38.743 -23.576 -15.809  0.00  0.00    -0.480 OA
ATOM     26  H   UNL     1      39.459 -23.924 -15.315  0.00  0.00    +0.295 HD
ENDBRANCH  24  25
ENDBRANCH  22  24
ENDBRANCH   4  22
TORSDOF 6
ENDMDL
MODEL 6
REMARK VINA RESULT:      -8.5      4.488      6.462
REMARK  Name = 11508736
REMARK  6 active torsions:
REMARK  status: ('A' for Active; 'I' for Inactive)
REMARK    1  A    between atoms: N_1  and  C_11
REMARK    2  A    between atoms: C_4  and  C_22
REMARK    3  A    between atoms: C_11  and  C_12
REMARK    4  A    between atoms: C_15  and  S_18
REMARK    5  A    between atoms: C_22  and  C_24
REMARK    6  A    between atoms: C_24  and  O_25
REMARK                            x       y       z     vdW  Elec       q    Type
REMARK                         _______ _______ _______ _____ _____    ______ ____
ROOT
ATOM      1  N   UNL     1      32.328 -11.633 -23.335  0.00  0.00    -0.312 N 
ATOM      2  N   UNL     1      33.980 -11.572 -25.087  0.00  0.00    -0.227 NA
ATOM      3  C   UNL     1      31.932 -10.820 -22.305  0.00  0.00    +0.036 A 
ATOM      4  C   UNL     1      32.719  -9.689 -22.325  0.00  0.00    +0.004 A 
ATOM      5  C   UNL     1      33.628  -9.818 -23.409  0.00  0.00    +0.032 A 
ATOM      6  C   UNL     1      33.358 -11.041 -24.017  0.00  0.00    +0.143 A 
ATOM      7  C   UNL     1      30.835 -11.197 -21.387  0.00  0.00    +0.050 C 
ATOM      8  C   UNL     1      34.659  -9.038 -23.957  0.00  0.00    +0.004 C 
ATOM      9  C   UNL     1      35.337  -9.541 -25.066  0.00  0.00    +0.021 C 
ATOM     10  C   UNL     1      34.963 -10.778 -25.572  0.00  0.00    +0.101 C 
ENDROOT
BRANCH   1  11
ATOM     11  C   UNL     1      31.753 -12.922 -23.654  0.00  0.00    +0.134 C 
BRANCH  11  12
ATOM     12  C   UNL     1      32.602 -14.048 -23.130  0.00  0.00    +0.000 C 
ATOM     13  C   UNL     1      32.569 -14.357 -21.777  0.00  0.00    -0.001 C 
ATOM     14  C   UNL     1      33.408 -14.763 -24.006  0.00  0.00    -0.001 C 
ATOM     15  C   UNL     1      34.168 -16.126 -22.163  0.00  0.00    +0.106 C 
ATOM     16  C   UNL     1      33.357 -15.401 -21.291  0.00  0.00    +0.018 C 
ATOM     17  C   UNL     1      34.194 -15.807 -23.520  0.00  0.00    +0.018 C 
BRANCH  15  18
ATOM     18  S   UNL     1      35.152 -17.435 -21.555  0.00  0.00    +0.010 S 
ATOM     19  O   UNL     1      36.116 -17.789 -22.587  0.00  0.00    -0.169 OA
ATOM     20  O   UNL     1      35.618 -17.093 -20.217  0.00  0.00    -0.169 OA
ATOM     21  C   UNL     1      34.018 -18.794 -21.376  0.00  0.00    +0.182 C 
ENDBRANCH  15  18
ENDBRANCH  11  12
ENDBRANCH   1  11
BRANCH   4  22
ATOM     22  C   UNL     1      32.633  -8.548 -21.390  0.00  0.00    +0.137 C 
BRANCH  22  24
ATOM     23  O   UNL     1      31.059  -7.494 -22.895  0.00  0.00    -0.250 OA
ATOM     24  C   UNL     1      31.888  -7.382 -22.001  0.00  0.00    +0.318 C 
BRANCH  24  25
ATOM     25  O   UNL     1      32.267  -6.186 -21.484  0.00  0.00    -0.480 OA
ATOM     26  H   UNL     1      31.739  -5.425 -21.627  0.00  0.00    +0.295 HD
ENDBRANCH  24  25
ENDBRANCH  22  24
ENDBRANCH   4  22
TORSDOF 6
ENDMDL
MODEL 7
REMARK VINA RESULT:      -8.5      1.497      2.125
REMARK  Name = 11508736
REMARK  6 active torsions:
REMARK  status: ('A' for Active; 'I' for Inactive)
REMARK    1  A    between atoms: N_1  and  C_11
REMARK    2  A    between atoms: C_4  and  C_22
REMARK    3  A    between atoms: C_11  and  C_12
REMARK    4  A    between atoms: C_15  and  S_18
REMARK    5  A    between atoms: C_22  and  C_24
REMARK    6  A    between atoms: C_24  and  O_25
REMARK                            x       y       z     vdW  Elec       q    Type
REMARK                         _______ _______ _______ _____ _____    ______ ____
ROOT
ATOM      1  N   UNL     1      35.557 -18.040 -22.157  0.00  0.00    -0.312 N 
ATOM      2  N   UNL     1      35.112 -16.313 -20.537  0.00  0.00    -0.227 NA
ATOM      3  C   UNL     1      35.125 -18.363 -23.417  0.00  0.00    +0.036 A 
ATOM      4  C   UNL     1      34.197 -17.422 -23.807  0.00  0.00    +0.004 A 
ATOM      5  C   UNL     1      34.058 -16.490 -22.744  0.00  0.00    +0.032 A 
ATOM      6  C   UNL     1      34.919 -16.904 -21.732  0.00  0.00    +0.143 A 
ATOM      7  C   UNL     1      35.637 -19.548 -24.140  0.00  0.00    +0.050 C 
ATOM      8  C   UNL     1      33.299 -15.331 -22.514  0.00  0.00    +0.004 C 
ATOM      9  C   UNL     1      33.461 -14.680 -21.292  0.00  0.00    +0.021 C 
ATOM     10  C   UNL     1      34.357 -15.203 -20.370  0.00  0.00    +0.101 C 
ENDROOT
BRANCH   1  11
ATOM     11  C   UNL     1      36.531 -18.783 -21.388  0.00  0.00    +0.134 C 
BRANCH  11  12
ATOM     12  C   UNL     1      35.881 -19.872 -20.580  0.00  0.00    +0.000 C 
ATOM     13  C   UNL     1      36.671 -20.731 -19.829  0.00  0.00    -0.001 C 
ATOM     14  C   UNL     1      34.499 -20.004 -20.598  0.00  0.00    -0.001 C 
ATOM     15  C   UNL     1      34.680 -21.882 -19.088  0.00  0.00    +0.106 C 
ATOM     16  C   UNL     1      36.067 -21.741 -19.078  0.00  0.00    +0.018 C 
ATOM     17  C   UNL     1      33.896 -21.014 -19.847  0.00  0.00    +0.018 C 
BRANCH  15  18
ATOM     18  S   UNL     1      33.925 -23.145 -18.148  0.00  0.00    +0.010 S 
ATOM     19  O   UNL     1      33.662 -24.269 -19.036  0.00  0.00    -0.169 OA
ATOM     20  O   UNL     1      34.695 -23.352 -16.929  0.00  0.00    -0.169 OA
ATOM     21  C   UNL     1      32.359 -22.456 -17.661  0.00  0.00    +0.182 C 
ENDBRANCH  15  18
ENDBRANCH  11  12
ENDBRANCH   1  11
BRANCH   4  22
ATOM     22  C   UNL     1      33.476 -17.388 -25.097  0.00  0.00    +0.137 C 
BRANCH  22  24
ATOM     23  O   UNL     1      34.955 -15.664 -25.931  0.00  0.00    -0.250 OA
ATOM     24  C   UNL     1      33.836 -16.159 -25.903  0.00  0.00    +0.318 C 
BRANCH  24  25
ATOM     25  O   UNL     1      32.772 -15.632 -26.561  0.00  0.00    -0.480 OA
ATOM     26  H   UNL     1      32.153 -16.198 -26.979  0.00  0.00    +0.295 HD
ENDBRANCH  24  25
ENDBRANCH  22  24
ENDBRANCH   4  22
TORSDOF 6
ENDMDL
MODEL 8
REMARK VINA RESULT:      -8.4      4.425      6.058
REMARK  Name = 11508736
REMARK  6 active torsions:
REMARK  status: ('A' for Active; 'I' for Inactive)
REMARK    1  A    between atoms: N_1  and  C_11
REMARK    2  A    between atoms: C_4  and  C_22
REMARK    3  A    between atoms: C_11  and  C_12
REMARK    4  A    between atoms: C_15  and  S_18
REMARK    5  A    between atoms: C_22  and  C_24
REMARK    6  A    between atoms: C_24  and  O_25
REMARK                            x       y       z     vdW  Elec       q    Type
REMARK                         _______ _______ _______ _____ _____    ______ ____
ROOT
ATOM      1  N   UNL     1      33.505 -11.367 -24.282  0.00  0.00    -0.312 N 
ATOM      2  N   UNL     1      31.734 -11.840 -22.717  0.00  0.00    -0.227 NA
ATOM      3  C   UNL     1      34.360 -10.327 -24.539  0.00  0.00    +0.036 A 
ATOM      4  C   UNL     1      34.092  -9.318 -23.639  0.00  0.00    +0.004 A 
ATOM      5  C   UNL     1      33.033  -9.761 -22.802  0.00  0.00    +0.032 A 
ATOM      6  C   UNL     1      32.690 -11.041 -23.229  0.00  0.00    +0.143 A 
ATOM      7  C   UNL     1      35.360 -10.388 -25.627  0.00  0.00    +0.050 C 
ATOM      8  C   UNL     1      32.315  -9.227 -21.720  0.00  0.00    +0.004 C 
ATOM      9  C   UNL     1      31.314 -10.012 -21.152  0.00  0.00    +0.021 C 
ATOM     10  C   UNL     1      31.076 -11.275 -21.678  0.00  0.00    +0.101 C 
ENDROOT
BRANCH   1  11
ATOM     11  C   UNL     1      33.460 -12.617 -25.010  0.00  0.00    +0.134 C 
BRANCH  11  12
ATOM     12  C   UNL     1      33.803 -13.783 -24.123  0.00  0.00    +0.000 C 
ATOM     13  C   UNL     1      34.222 -13.551 -22.820  0.00  0.00    -0.001 C 
ATOM     14  C   UNL     1      33.697 -15.074 -24.619  0.00  0.00    -0.001 C 
ATOM     15  C   UNL     1      34.435 -15.934 -22.485  0.00  0.00    +0.106 C 
ATOM     16  C   UNL     1      34.539 -14.632 -21.997  0.00  0.00    +0.018 C 
ATOM     17  C   UNL     1      34.013 -16.155 -23.796  0.00  0.00    +0.018 C 
BRANCH  15  18
ATOM     18  S   UNL     1      34.831 -17.287 -21.455  0.00  0.00    +0.010 S 
ATOM     19  O   UNL     1      35.406 -16.761 -20.225  0.00  0.00    -0.169 OA
ATOM     20  O   UNL     1      33.684 -18.183 -21.392  0.00  0.00    -0.169 OA
ATOM     21  C   UNL     1      36.115 -18.150 -22.333  0.00  0.00    +0.182 C 
ENDBRANCH  15  18
ENDBRANCH  11  12
ENDBRANCH   1  11
BRANCH   4  22
ATOM     22  C   UNL     1      34.780  -8.014 -23.560  0.00  0.00    +0.137 C 
BRANCH  22  24
ATOM     23  O   UNL     1      32.876  -6.558 -23.897  0.00  0.00    -0.250 OA
ATOM     24  C   UNL     1      33.989  -6.925 -24.252  0.00  0.00    +0.318 C 
BRANCH  24  25
ATOM     25  O   UNL     1      34.625  -6.424 -25.342  0.00  0.00    -0.480 OA
ATOM     26  H   UNL     1      34.425  -5.561 -25.645  0.00  0.00    +0.295 HD
ENDBRANCH  24  25
ENDBRANCH  22  24
ENDBRANCH   4  22
TORSDOF 6
ENDMDL
MODEL 9
REMARK VINA RESULT:      -8.2      7.522     11.890
REMARK  Name = 11508736
REMARK  6 active torsions:
REMARK  status: ('A' for Active; 'I' for Inactive)
REMARK    1  A    between atoms: N_1  and  C_11
REMARK    2  A    between atoms: C_4  and  C_22
REMARK    3  A    between atoms: C_11  and  C_12
REMARK    4  A    between atoms: C_15  and  S_18
REMARK    5  A    between atoms: C_22  and  C_24
REMARK    6  A    between atoms: C_24  and  O_25
REMARK                            x       y       z     vdW  Elec       q    Type
REMARK                         _______ _______ _______ _____ _____    ______ ____
ROOT
ATOM      1  N   UNL     1      34.157  -9.196 -23.588  0.00  0.00    -0.312 N 
ATOM      2  N   UNL     1      32.621  -8.869 -21.761  0.00  0.00    -0.227 NA
ATOM      3  C   UNL     1      34.424 -10.178 -24.506  0.00  0.00    +0.036 A 
ATOM      4  C   UNL     1      33.557 -11.226 -24.278  0.00  0.00    +0.004 A 
ATOM      5  C   UNL     1      32.732 -10.868 -23.178  0.00  0.00    +0.032 A 
ATOM      6  C   UNL     1      33.132  -9.598 -22.772  0.00  0.00    +0.143 A 
ATOM      7  C   UNL     1      35.487 -10.030 -25.524  0.00  0.00    +0.050 C 
ATOM      8  C   UNL     1      31.682 -11.472 -22.469  0.00  0.00    +0.004 C 
ATOM      9  C   UNL     1      31.116 -10.761 -21.412  0.00  0.00    +0.021 C 
ATOM     10  C   UNL     1      31.613  -9.500 -21.114  0.00  0.00    +0.101 C 
ENDROOT
BRANCH   1  11
ATOM     11  C   UNL     1      34.852  -7.931 -23.488  0.00  0.00    +0.134 C 
BRANCH  11  12
ATOM     12  C   UNL     1      34.254  -6.900 -24.406  0.00  0.00    +0.000 C 
ATOM     13  C   UNL     1      32.977  -6.418 -24.152  0.00  0.00    -0.001 C 
ATOM     14  C   UNL     1      34.986  -6.446 -25.494  0.00  0.00    -0.001 C 
ATOM     15  C   UNL     1      33.149  -4.997 -26.099  0.00  0.00    +0.106 C 
ATOM     16  C   UNL     1      32.422  -5.461 -25.003  0.00  0.00    +0.018 C 
ATOM     17  C   UNL     1      34.431  -5.489 -26.344  0.00  0.00    +0.018 C 
BRANCH  15  18
ATOM     18  S   UNL     1      32.455  -3.799 -27.163  0.00  0.00    +0.010 S 
ATOM     19  O   UNL     1      32.380  -4.375 -28.498  0.00  0.00    -0.169 OA
ATOM     20  O   UNL     1      31.255  -3.255 -26.542  0.00  0.00    -0.169 OA
ATOM     21  C   UNL     1      33.659  -2.490 -27.199  0.00  0.00    +0.182 C 
ENDBRANCH  15  18
ENDBRANCH  11  12
ENDBRANCH   1  11
BRANCH   4  22
ATOM     22  C   UNL     1      33.498 -12.491 -25.037  0.00  0.00    +0.137 C 
BRANCH  22  24
ATOM     23  O   UNL     1      33.090 -14.752 -24.277  0.00  0.00    -0.250 OA
ATOM     24  C   UNL     1      33.684 -13.691 -24.134  0.00  0.00    +0.318 C 
BRANCH  24  25
ATOM     25  O   UNL     1      34.550 -13.455 -23.117  0.00  0.00    -0.480 OA
ATOM     26  H   UNL     1      34.265 -12.982 -22.359  0.00  0.00    +0.295 HD
ENDBRANCH  24  25
ENDBRANCH  22  24
ENDBRANCH   4  22
TORSDOF 6
ENDMDL
