MODEL 1
REMARK VINA RESULT:      -9.2      0.000      0.000
REMARK  Name = 5288130
REMARK  9 active torsions:
REMARK  status: ('A' for Active; 'I' for Inactive)
REMARK    1  A    between atoms: CA_1  and  C_2
REMARK    2  A    between atoms: CA_1  and  C_4
REMARK    3  A    between atoms: C_2  and  C_20
REMARK    4  A    between atoms: C_2  and  C_27
REMARK    5  A    between atoms: C_4  and  O_5
REMARK    6  A    between atoms: N_7  and  C_10
REMARK    7  A    between atoms: C_12  and  C_19
REMARK    8  A    between atoms: C_21  and  C_24
REMARK    9  A    between atoms: C_27  and  S_28
REMARK                            x       y       z     vdW  Elec       q    Type
REMARK                         _______ _______ _______ _____ _____    ______ ____
ROOT
ATOM      1  CA  UNL     1      35.934 -23.833 -14.346  0.00  0.00    +0.116 C 
ATOM      2  N   UNL     1      35.073 -22.867 -14.794  0.00  0.00    -0.339 N 
ATOM      3  H   UNL     1      35.251 -21.959 -14.461  0.00  0.00    +0.167 HD
ENDROOT
BRANCH   2   5
ATOM      4  N   UNL     1      32.746 -23.214 -15.145  0.00  0.00    -0.251 N 
ATOM      5  C   UNL     1      34.008 -22.980 -15.633  0.00  0.00    +0.120 C 
ATOM      6  C   UNL     1      31.867 -23.279 -16.222  0.00  0.00    +0.057 C 
ATOM      7  C   UNL     1      33.944 -22.896 -17.003  0.00  0.00    +0.074 C 
ATOM      8  C   UNL     1      32.592 -23.084 -17.379  0.00  0.00    +0.021 C 
ATOM      9  C   UNL     1      32.338 -23.371 -13.820  0.00  0.00    +0.071 C 
ATOM     10  C   UNL     1      30.491 -23.516 -15.936  0.00  0.00    +0.015 C 
ATOM     11  C   UNL     1      31.040 -23.594 -13.555  0.00  0.00    +0.017 C 
ATOM     12  C   UNL     1      30.095 -23.668 -14.657  0.00  0.00    +0.003 C 
BRANCH   7  14
ATOM     13  O   UNL     1      36.191 -22.310 -17.495  0.00  0.00    -0.283 OA
ATOM     14  C   UNL     1      35.063 -22.657 -17.871  0.00  0.00    +0.237 C 
ENDBRANCH   7  14
ENDBRANCH   2   5
BRANCH   1  16
ATOM     15  OXT UNL     1      36.192 -25.738 -15.806  0.00  0.00    -0.244 OA
ATOM     16  C   UNL     1      35.621 -25.189 -14.878  0.00  0.00    +0.350 C 
BRANCH  16  17
ATOM     17  O   UNL     1      34.611 -25.736 -14.161  0.00  0.00    -0.476 OA
ATOM     18  H   UNL     1      34.787 -26.431 -13.557  0.00  0.00    +0.295 HD
ENDBRANCH  16  17
ENDBRANCH   1  16
BRANCH   1  19
ATOM     19  C   UNL     1      36.993 -23.688 -13.506  0.00  0.00    +0.090 C 
BRANCH  19  20
ATOM     20  C   UNL     1      38.350 -24.059 -13.951  0.00  0.00    -0.014 C 
ATOM     21  C   UNL     1      38.986 -25.223 -13.741  0.00  0.00    +0.053 C 
BRANCH  21  24
ATOM     22  O   UNL     1      41.068 -24.512 -14.690  0.00  0.00    -0.270 OA
ATOM     23  N   UNL     1      40.760 -26.741 -14.212  0.00  0.00    -0.325 N 
ATOM     24  C   UNL     1      40.366 -25.423 -14.264  0.00  0.00    +0.243 C 
ATOM     25  H   UNL     1      41.654 -27.000 -14.530  0.00  0.00    +0.145 HD
ATOM     26  H   UNL     1      40.146 -27.424 -13.857  0.00  0.00    +0.145 HD
ENDBRANCH  21  24
ENDBRANCH  19  20
BRANCH  19  27
ATOM     27  C   UNL     1      36.845 -23.215 -12.074  0.00  0.00    +0.157 C 
BRANCH  27  28
ATOM     28  S   UNL     1      35.964 -24.444 -11.162  0.00  0.00    -0.030 S 
ATOM     29  O   UNL     1      36.389 -25.750 -11.628  0.00  0.00    -0.176 OA
ATOM     30  O   UNL     1      36.010 -24.092  -9.757  0.00  0.00    -0.176 OA
ATOM     31  H   UNL     1      34.623 -24.507 -11.378  0.00  0.00    +0.210 HD
ENDBRANCH  27  28
ENDBRANCH  19  27
ENDBRANCH   1  19
TORSDOF 9
ENDMDL
MODEL 2
REMARK VINA RESULT:      -9.0      1.148      2.838
REMARK  Name = 5288130
REMARK  9 active torsions:
REMARK  status: ('A' for Active; 'I' for Inactive)
REMARK    1  A    between atoms: CA_1  and  C_2
REMARK    2  A    between atoms: CA_1  and  C_4
REMARK    3  A    between atoms: C_2  and  C_20
REMARK    4  A    between atoms: C_2  and  C_27
REMARK    5  A    between atoms: C_4  and  O_5
REMARK    6  A    between atoms: N_7  and  C_10
REMARK    7  A    between atoms: C_12  and  C_19
REMARK    8  A    between atoms: C_21  and  C_24
REMARK    9  A    between atoms: C_27  and  S_28
REMARK                            x       y       z     vdW  Elec       q    Type
REMARK                         _______ _______ _______ _____ _____    ______ ____
ROOT
ATOM      1  CA  UNL     1      36.117 -23.839 -14.225  0.00  0.00    +0.116 C 
ATOM      2  N   UNL     1      35.269 -22.855 -14.656  0.00  0.00    -0.339 N 
ATOM      3  H   UNL     1      35.421 -21.966 -14.261  0.00  0.00    +0.167 HD
ENDROOT
BRANCH   2   5
ATOM      4  N   UNL     1      34.445 -22.632 -16.876  0.00  0.00    -0.251 N 
ATOM      5  C   UNL     1      34.246 -22.926 -15.550  0.00  0.00    +0.120 C 
ATOM      6  C   UNL     1      33.234 -22.791 -17.545  0.00  0.00    +0.057 C 
ATOM      7  C   UNL     1      32.927 -23.267 -15.366  0.00  0.00    +0.074 C 
ATOM      8  C   UNL     1      32.285 -23.183 -16.625  0.00  0.00    +0.021 C 
ATOM      9  C   UNL     1      35.621 -22.239 -17.516  0.00  0.00    +0.071 C 
ATOM     10  C   UNL     1      33.218 -22.535 -18.946  0.00  0.00    +0.015 C 
ATOM     11  C   UNL     1      35.600 -21.999 -18.838  0.00  0.00    +0.017 C 
ATOM     12  C   UNL     1      34.352 -22.155 -19.566  0.00  0.00    +0.003 C 
BRANCH   7  14
ATOM     13  O   UNL     1      32.967 -24.016 -13.113  0.00  0.00    -0.283 OA
ATOM     14  C   UNL     1      32.337 -23.639 -14.110  0.00  0.00    +0.237 C 
ENDBRANCH   7  14
ENDBRANCH   2   5
BRANCH   1  16
ATOM     15  OXT UNL     1      36.398 -25.611 -15.840  0.00  0.00    -0.244 OA
ATOM     16  C   UNL     1      35.844 -25.164 -14.849  0.00  0.00    +0.350 C 
BRANCH  16  17
ATOM     17  O   UNL     1      34.893 -25.814 -14.138  0.00  0.00    -0.476 OA
ATOM     18  H   UNL     1      34.605 -25.470 -13.315  0.00  0.00    +0.295 HD
ENDBRANCH  16  17
ENDBRANCH   1  16
BRANCH   1  19
ATOM     19  C   UNL     1      37.133 -23.736 -13.328  0.00  0.00    +0.090 C 
BRANCH  19  20
ATOM     20  C   UNL     1      38.510 -24.093 -13.720  0.00  0.00    -0.014 C 
ATOM     21  C   UNL     1      39.056 -25.320 -13.752  0.00  0.00    +0.053 C 
BRANCH  21  24
ATOM     22  O   UNL     1      41.166 -24.584 -14.616  0.00  0.00    -0.270 OA
ATOM     23  N   UNL     1      40.912 -26.789 -14.014  0.00  0.00    -0.325 N 
ATOM     24  C   UNL     1      40.473 -25.495 -14.175  0.00  0.00    +0.243 C 
ATOM     25  H   UNL     1      41.834 -27.031 -14.259  0.00  0.00    +0.145 HD
ATOM     26  H   UNL     1      40.303 -27.474 -13.654  0.00  0.00    +0.145 HD
ENDBRANCH  21  24
ENDBRANCH  19  20
BRANCH  19  27
ATOM     27  C   UNL     1      36.916 -23.326 -11.885  0.00  0.00    +0.157 C 
BRANCH  27  28
ATOM     28  S   UNL     1      35.951 -24.569 -11.084  0.00  0.00    -0.030 S 
ATOM     29  O   UNL     1      36.420 -25.868 -11.530  0.00  0.00    -0.176 OA
ATOM     30  O   UNL     1      35.861 -24.242  -9.675  0.00  0.00    -0.176 OA
ATOM     31  H   UNL     1      34.638 -24.627 -11.430  0.00  0.00    +0.210 HD
ENDBRANCH  27  28
ENDBRANCH  19  27
ENDBRANCH   1  19
TORSDOF 9
ENDMDL
MODEL 3
REMARK VINA RESULT:      -7.6      1.856      3.113
REMARK  Name = 5288130
REMARK  9 active torsions:
REMARK  status: ('A' for Active; 'I' for Inactive)
REMARK    1  A    between atoms: CA_1  and  C_2
REMARK    2  A    between atoms: CA_1  and  C_4
REMARK    3  A    between atoms: C_2  and  C_20
REMARK    4  A    between atoms: C_2  and  C_27
REMARK    5  A    between atoms: C_4  and  O_5
REMARK    6  A    between atoms: N_7  and  C_10
REMARK    7  A    between atoms: C_12  and  C_19
REMARK    8  A    between atoms: C_21  and  C_24
REMARK    9  A    between atoms: C_27  and  S_28
REMARK                            x       y       z     vdW  Elec       q    Type
REMARK                         _______ _______ _______ _____ _____    ______ ____
ROOT
ATOM      1  CA  UNL     1      35.825 -24.096 -14.879  0.00  0.00    +0.116 C 
ATOM      2  N   UNL     1      35.089 -23.029 -15.319  0.00  0.00    -0.339 N 
ATOM      3  H   UNL     1      35.429 -22.145 -15.050  0.00  0.00    +0.167 HD
ENDROOT
BRANCH   2   5
ATOM      4  N   UNL     1      32.719 -23.135 -15.494  0.00  0.00    -0.251 N 
ATOM      5  C   UNL     1      33.958 -23.011 -16.074  0.00  0.00    +0.120 C 
ATOM      6  C   UNL     1      31.759 -23.080 -16.500  0.00  0.00    +0.057 C 
ATOM      7  C   UNL     1      33.798 -22.879 -17.433  0.00  0.00    +0.074 C 
ATOM      8  C   UNL     1      32.410 -22.922 -17.705  0.00  0.00    +0.021 C 
ATOM      9  C   UNL     1      32.399 -23.291 -14.145  0.00  0.00    +0.071 C 
ATOM     10  C   UNL     1      30.392 -23.190 -16.112  0.00  0.00    +0.015 C 
ATOM     11  C   UNL     1      31.109 -23.394 -13.784  0.00  0.00    +0.017 C 
ATOM     12  C   UNL     1      30.081 -23.341 -14.810  0.00  0.00    +0.003 C 
BRANCH   7  14
ATOM     13  O   UNL     1      35.986 -22.265 -18.118  0.00  0.00    -0.283 OA
ATOM     14  C   UNL     1      34.867 -22.725 -18.380  0.00  0.00    +0.237 C 
ENDBRANCH   7  14
ENDBRANCH   2   5
BRANCH   1  16
ATOM     15  OXT UNL     1      35.757 -26.147 -16.151  0.00  0.00    -0.244 OA
ATOM     16  C   UNL     1      35.269 -25.409 -15.311  0.00  0.00    +0.350 C 
BRANCH  16  17
ATOM     17  O   UNL     1      34.138 -25.675 -14.614  0.00  0.00    -0.476 OA
ATOM     18  H   UNL     1      33.386 -25.126 -14.713  0.00  0.00    +0.295 HD
ENDBRANCH  16  17
ENDBRANCH   1  16
BRANCH   1  19
ATOM     19  C   UNL     1      36.955 -24.082 -14.124  0.00  0.00    +0.090 C 
BRANCH  19  20
ATOM     20  C   UNL     1      36.865 -24.013 -12.653  0.00  0.00    -0.014 C 
ATOM     21  C   UNL     1      35.812 -24.335 -11.886  0.00  0.00    +0.053 C 
BRANCH  21  24
ATOM     22  O   UNL     1      35.288 -24.920  -9.622  0.00  0.00    -0.270 OA
ATOM     23  N   UNL     1      36.739 -23.180 -10.020  0.00  0.00    -0.325 N 
ATOM     24  C   UNL     1      35.898 -24.199 -10.405  0.00  0.00    +0.243 C 
ATOM     25  H   UNL     1      36.879 -22.991  -9.064  0.00  0.00    +0.145 HD
ATOM     26  H   UNL     1      37.200 -22.639 -10.702  0.00  0.00    +0.145 HD
ENDBRANCH  21  24
ENDBRANCH  19  20
BRANCH  19  27
ATOM     27  C   UNL     1      38.345 -24.065 -14.728  0.00  0.00    +0.157 C 
BRANCH  27  28
ATOM     28  S   UNL     1      39.272 -25.405 -14.048  0.00  0.00    -0.030 S 
ATOM     29  O   UNL     1      38.798 -26.638 -14.648  0.00  0.00    -0.176 OA
ATOM     30  O   UNL     1      40.676 -25.048 -14.067  0.00  0.00    -0.176 OA
ATOM     31  H   UNL     1      39.079 -25.660 -12.727  0.00  0.00    +0.210 HD
ENDBRANCH  27  28
ENDBRANCH  19  27
ENDBRANCH   1  19
TORSDOF 9
ENDMDL
MODEL 4
REMARK VINA RESULT:      -7.6      2.881      6.394
REMARK  Name = 5288130
REMARK  9 active torsions:
REMARK  status: ('A' for Active; 'I' for Inactive)
REMARK    1  A    between atoms: CA_1  and  C_2
REMARK    2  A    between atoms: CA_1  and  C_4
REMARK    3  A    between atoms: C_2  and  C_20
REMARK    4  A    between atoms: C_2  and  C_27
REMARK    5  A    between atoms: C_4  and  O_5
REMARK    6  A    between atoms: N_7  and  C_10
REMARK    7  A    between atoms: C_12  and  C_19
REMARK    8  A    between atoms: C_21  and  C_24
REMARK    9  A    between atoms: C_27  and  S_28
REMARK                            x       y       z     vdW  Elec       q    Type
REMARK                         _______ _______ _______ _____ _____    ______ ____
ROOT
ATOM      1  CA  UNL     1      33.770 -24.017 -15.118  0.00  0.00    +0.116 C 
ATOM      2  N   UNL     1      35.084 -24.237 -15.431  0.00  0.00    -0.339 N 
ATOM      3  H   UNL     1      35.388 -23.835 -16.276  0.00  0.00    +0.167 HD
ENDROOT
BRANCH   2   5
ATOM      4  N   UNL     1      36.704 -24.357 -13.693  0.00  0.00    -0.251 N 
ATOM      5  C   UNL     1      36.032 -24.931 -14.744  0.00  0.00    +0.120 C 
ATOM      6  C   UNL     1      37.602 -25.293 -13.187  0.00  0.00    +0.057 C 
ATOM      7  C   UNL     1      36.489 -26.215 -14.913  0.00  0.00    +0.074 C 
ATOM      8  C   UNL     1      37.482 -26.448 -13.930  0.00  0.00    +0.021 C 
ATOM      9  C   UNL     1      36.568 -23.072 -13.167  0.00  0.00    +0.071 C 
ATOM     10  C   UNL     1      38.408 -24.899 -12.079  0.00  0.00    +0.015 C 
ATOM     11  C   UNL     1      37.330 -22.706 -12.123  0.00  0.00    +0.017 C 
ATOM     12  C   UNL     1      38.278 -23.659 -11.570  0.00  0.00    +0.003 C 
BRANCH   7  14
ATOM     13  O   UNL     1      36.740 -27.673 -16.770  0.00  0.00    -0.283 OA
ATOM     14  C   UNL     1      36.025 -27.134 -15.914  0.00  0.00    +0.237 C 
ENDBRANCH   7  14
ENDBRANCH   2   5
BRANCH   1  16
ATOM     15  OXT UNL     1      33.693 -24.276 -12.719  0.00  0.00    -0.244 OA
ATOM     16  C   UNL     1      33.359 -24.647 -13.832  0.00  0.00    +0.350 C 
BRANCH  16  17
ATOM     17  O   UNL     1      32.537 -25.695 -14.081  0.00  0.00    -0.476 OA
ATOM     18  H   UNL     1      32.881 -26.566 -14.106  0.00  0.00    +0.295 HD
ENDBRANCH  16  17
ENDBRANCH   1  16
BRANCH   1  19
ATOM     19  C   UNL     1      32.845 -23.317 -15.828  0.00  0.00    +0.090 C 
BRANCH  19  20
ATOM     20  C   UNL     1      33.080 -23.007 -17.251  0.00  0.00    -0.014 C 
ATOM     21  C   UNL     1      34.236 -22.636 -17.824  0.00  0.00    +0.053 C 
BRANCH  21  24
ATOM     22  O   UNL     1      35.318 -22.415 -19.950  0.00  0.00    -0.270 OA
ATOM     23  N   UNL     1      33.054 -22.035 -19.803  0.00  0.00    -0.325 N 
ATOM     24  C   UNL     1      34.288 -22.359 -19.286  0.00  0.00    +0.243 C 
ATOM     25  H   UNL     1      32.959 -21.830 -20.761  0.00  0.00    +0.145 HD
ATOM     26  H   UNL     1      32.266 -22.008 -19.213  0.00  0.00    +0.145 HD
ENDBRANCH  21  24
ENDBRANCH  19  20
BRANCH  19  27
ATOM     27  C   UNL     1      31.580 -22.763 -15.204  0.00  0.00    +0.157 C 
BRANCH  27  28
ATOM     28  S   UNL     1      30.189 -23.418 -16.074  0.00  0.00    -0.030 S 
ATOM     29  O   UNL     1      29.380 -24.174 -15.137  0.00  0.00    -0.176 OA
ATOM     30  O   UNL     1      29.617 -22.362 -16.885  0.00  0.00    -0.176 OA
ATOM     31  H   UNL     1      30.459 -24.362 -17.015  0.00  0.00    +0.210 HD
ENDBRANCH  27  28
ENDBRANCH  19  27
ENDBRANCH   1  19
TORSDOF 9
ENDMDL
MODEL 5
REMARK VINA RESULT:      -7.3      7.971     11.317
REMARK  Name = 5288130
REMARK  9 active torsions:
REMARK  status: ('A' for Active; 'I' for Inactive)
REMARK    1  A    between atoms: CA_1  and  C_2
REMARK    2  A    between atoms: CA_1  and  C_4
REMARK    3  A    between atoms: C_2  and  C_20
REMARK    4  A    between atoms: C_2  and  C_27
REMARK    5  A    between atoms: C_4  and  O_5
REMARK    6  A    between atoms: N_7  and  C_10
REMARK    7  A    between atoms: C_12  and  C_19
REMARK    8  A    between atoms: C_21  and  C_24
REMARK    9  A    between atoms: C_27  and  S_28
REMARK                            x       y       z     vdW  Elec       q    Type
REMARK                         _______ _______ _______ _____ _____    ______ ____
ROOT
ATOM      1  CA  UNL     1      34.771 -17.505 -22.309  0.00  0.00    +0.116 C 
ATOM      2  N   UNL     1      35.075 -17.955 -21.053  0.00  0.00    -0.339 N 
ATOM      3  H   UNL     1      34.970 -17.293 -20.333  0.00  0.00    +0.167 HD
ENDROOT
BRANCH   2   5
ATOM      4  N   UNL     1      34.611 -20.125 -20.196  0.00  0.00    -0.251 N 
ATOM      5  C   UNL     1      35.500 -19.184 -20.654  0.00  0.00    +0.120 C 
ATOM      6  C   UNL     1      35.324 -21.274 -19.865  0.00  0.00    +0.057 C 
ATOM      7  C   UNL     1      36.766 -19.717 -20.618  0.00  0.00    +0.074 C 
ATOM      8  C   UNL     1      36.659 -21.038 -20.120  0.00  0.00    +0.021 C 
ATOM      9  C   UNL     1      33.227 -20.024 -20.058  0.00  0.00    +0.071 C 
ATOM     10  C   UNL     1      34.586 -22.386 -19.365  0.00  0.00    +0.015 C 
ATOM     11  C   UNL     1      32.535 -21.074 -19.586  0.00  0.00    +0.017 C 
ATOM     12  C   UNL     1      33.249 -22.290 -19.231  0.00  0.00    +0.003 C 
BRANCH   7  14
ATOM     13  O   UNL     1      38.207 -18.649 -22.172  0.00  0.00    -0.283 OA
ATOM     14  C   UNL     1      37.963 -19.034 -21.021  0.00  0.00    +0.237 C 
ENDBRANCH   7  14
ENDBRANCH   2   5
BRANCH   1  16
ATOM     15  OXT UNL     1      34.131 -19.400 -23.661  0.00  0.00    -0.244 OA
ATOM     16  C   UNL     1      34.947 -18.543 -23.363  0.00  0.00    +0.350 C 
BRANCH  16  17
ATOM     17  O   UNL     1      36.152 -18.385 -23.960  0.00  0.00    -0.476 OA
ATOM     18  H   UNL     1      36.200 -18.149 -24.865  0.00  0.00    +0.295 HD
ENDBRANCH  16  17
ENDBRANCH   1  16
BRANCH   1  19
ATOM     19  C   UNL     1      34.346 -16.267 -22.676  0.00  0.00    +0.090 C 
BRANCH  19  20
ATOM     20  C   UNL     1      33.838 -16.030 -24.041  0.00  0.00    -0.014 C 
ATOM     21  C   UNL     1      33.708 -14.850 -24.668  0.00  0.00    +0.053 C 
BRANCH  21  24
ATOM     22  O   UNL     1      32.789 -15.788 -26.672  0.00  0.00    -0.270 OA
ATOM     23  N   UNL     1      33.148 -13.518 -26.562  0.00  0.00    -0.325 N 
ATOM     24  C   UNL     1      33.170 -14.798 -26.056  0.00  0.00    +0.243 C 
ATOM     25  H   UNL     1      32.813 -13.355 -27.474  0.00  0.00    +0.145 HD
ATOM     26  H   UNL     1      33.469 -12.767 -26.013  0.00  0.00    +0.145 HD
ENDBRANCH  21  24
ENDBRANCH  19  20
BRANCH  19  27
ATOM     27  C   UNL     1      34.429 -15.065 -21.756  0.00  0.00    +0.157 C 
BRANCH  27  28
ATOM     28  S   UNL     1      32.857 -14.836 -20.986  0.00  0.00    -0.030 S 
ATOM     29  O   UNL     1      32.113 -13.851 -21.748  0.00  0.00    -0.176 OA
ATOM     30  O   UNL     1      32.298 -16.140 -20.688  0.00  0.00    -0.176 OA
ATOM     31  H   UNL     1      32.870 -14.264 -19.752  0.00  0.00    +0.210 HD
ENDBRANCH  27  28
ENDBRANCH  19  27
ENDBRANCH   1  19
TORSDOF 9
ENDMDL
MODEL 6
REMARK VINA RESULT:      -7.2     12.764     15.775
REMARK  Name = 5288130
REMARK  9 active torsions:
REMARK  status: ('A' for Active; 'I' for Inactive)
REMARK    1  A    between atoms: CA_1  and  C_2
REMARK    2  A    between atoms: CA_1  and  C_4
REMARK    3  A    between atoms: C_2  and  C_20
REMARK    4  A    between atoms: C_2  and  C_27
REMARK    5  A    between atoms: C_4  and  O_5
REMARK    6  A    between atoms: N_7  and  C_10
REMARK    7  A    between atoms: C_12  and  C_19
REMARK    8  A    between atoms: C_21  and  C_24
REMARK    9  A    between atoms: C_27  and  S_28
REMARK                            x       y       z     vdW  Elec       q    Type
REMARK                         _______ _______ _______ _____ _____    ______ ____
ROOT
ATOM      1  CA  UNL     1      32.573 -11.845 -23.329  0.00  0.00    +0.116 C 
ATOM      2  N   UNL     1      32.334 -13.186 -23.190  0.00  0.00    -0.339 N 
ATOM      3  H   UNL     1      31.535 -13.417 -22.665  0.00  0.00    +0.167 HD
ENDROOT
BRANCH   2   5
ATOM      4  N   UNL     1      33.754 -15.059 -22.830  0.00  0.00    -0.251 N 
ATOM      5  C   UNL     1      33.039 -14.244 -23.673  0.00  0.00    +0.120 C 
ATOM      6  C   UNL     1      34.366 -16.048 -23.596  0.00  0.00    +0.057 C 
ATOM      7  C   UNL     1      33.188 -14.699 -24.961  0.00  0.00    +0.074 C 
ATOM      8  C   UNL     1      34.025 -15.840 -24.916  0.00  0.00    +0.021 C 
ATOM      9  C   UNL     1      33.892 -14.977 -21.445  0.00  0.00    +0.071 C 
ATOM     10  C   UNL     1      35.164 -17.010 -22.912  0.00  0.00    +0.015 C 
ATOM     11  C   UNL     1      34.646 -15.886 -20.804  0.00  0.00    +0.017 C 
ATOM     12  C   UNL     1      35.299 -16.932 -21.574  0.00  0.00    +0.003 C 
BRANCH   7  14
ATOM     13  O   UNL     1      33.175 -13.886 -27.190  0.00  0.00    -0.283 OA
ATOM     14  C   UNL     1      32.588 -14.106 -26.122  0.00  0.00    +0.237 C 
ENDBRANCH   7  14
ENDBRANCH   2   5
BRANCH   1  16
ATOM     15  OXT UNL     1      33.822 -11.341 -25.333  0.00  0.00    -0.244 OA
ATOM     16  C   UNL     1      33.793 -11.547 -24.131  0.00  0.00    +0.350 C 
BRANCH  16  17
ATOM     17  O   UNL     1      34.876 -11.520 -23.317  0.00  0.00    -0.476 OA
ATOM     18  H   UNL     1      35.418 -10.756 -23.283  0.00  0.00    +0.295 HD
ENDBRANCH  16  17
ENDBRANCH   1  16
BRANCH   1  19
ATOM     19  C   UNL     1      31.847 -10.808 -22.834  0.00  0.00    +0.090 C 
BRANCH  19  20
ATOM     20  C   UNL     1      32.142  -9.425 -23.257  0.00  0.00    -0.014 C 
ATOM     21  C   UNL     1      31.287  -8.392 -23.317  0.00  0.00    +0.053 C 
BRANCH  21  24
ATOM     22  O   UNL     1      31.085  -6.294 -24.456  0.00  0.00    -0.270 OA
ATOM     23  N   UNL     1      33.039  -6.779 -23.343  0.00  0.00    -0.325 N 
ATOM     24  C   UNL     1      31.762  -7.057 -23.774  0.00  0.00    +0.243 C 
ATOM     25  H   UNL     1      33.464  -5.924 -23.582  0.00  0.00    +0.145 HD
ATOM     26  H   UNL     1      33.528  -7.436 -22.797  0.00  0.00    +0.145 HD
ENDBRANCH  21  24
ENDBRANCH  19  20
BRANCH  19  27
ATOM     27  C   UNL     1      30.763 -10.990 -21.790  0.00  0.00    +0.157 C 
BRANCH  27  28
ATOM     28  S   UNL     1      31.525 -11.114 -20.202  0.00  0.00    -0.030 S 
ATOM     29  O   UNL     1      30.669 -10.456 -19.233  0.00  0.00    -0.176 OA
ATOM     30  O   UNL     1      31.967 -12.482 -20.012  0.00  0.00    -0.176 OA
ATOM     31  H   UNL     1      32.689 -10.432 -20.038  0.00  0.00    +0.210 HD
ENDBRANCH  27  28
ENDBRANCH  19  27
ENDBRANCH   1  19
TORSDOF 9
ENDMDL
MODEL 7
REMARK VINA RESULT:      -7.2     13.296     16.301
REMARK  Name = 5288130
REMARK  9 active torsions:
REMARK  status: ('A' for Active; 'I' for Inactive)
REMARK    1  A    between atoms: CA_1  and  C_2
REMARK    2  A    between atoms: CA_1  and  C_4
REMARK    3  A    between atoms: C_2  and  C_20
REMARK    4  A    between atoms: C_2  and  C_27
REMARK    5  A    between atoms: C_4  and  O_5
REMARK    6  A    between atoms: N_7  and  C_10
REMARK    7  A    between atoms: C_12  and  C_19
REMARK    8  A    between atoms: C_21  and  C_24
REMARK    9  A    between atoms: C_27  and  S_28
REMARK                            x       y       z     vdW  Elec       q    Type
REMARK                         _______ _______ _______ _____ _____    ______ ____
ROOT
ATOM      1  CA  UNL     1      33.105 -11.006 -23.821  0.00  0.00    +0.116 C 
ATOM      2  N   UNL     1      32.611 -12.277 -23.689  0.00  0.00    -0.339 N 
ATOM      3  H   UNL     1      31.784 -12.353 -23.161  0.00  0.00    +0.167 HD
ENDROOT
BRANCH   2   5
ATOM      4  N   UNL     1      33.739 -14.346 -23.364  0.00  0.00    -0.251 N 
ATOM      5  C   UNL     1      33.096 -13.448 -24.182  0.00  0.00    +0.120 C 
ATOM      6  C   UNL     1      34.120 -15.441 -24.135  0.00  0.00    +0.057 C 
ATOM      7  C   UNL     1      33.065 -13.956 -25.458  0.00  0.00    +0.074 C 
ATOM      8  C   UNL     1      33.711 -15.215 -25.432  0.00  0.00    +0.021 C 
ATOM      9  C   UNL     1      34.000 -14.249 -21.997  0.00  0.00    +0.071 C 
ATOM     10  C   UNL     1      34.807 -16.501 -23.476  0.00  0.00    +0.015 C 
ATOM     11  C   UNL     1      34.648 -15.252 -21.381  0.00  0.00    +0.017 C 
ATOM     12  C   UNL     1      35.061 -16.410 -22.156  0.00  0.00    +0.003 C 
BRANCH   7  14
ATOM     13  O   UNL     1      32.941 -13.317 -27.741  0.00  0.00    -0.283 OA
ATOM     14  C   UNL     1      32.476 -13.304 -26.594  0.00  0.00    +0.237 C 
ENDBRANCH   7  14
ENDBRANCH   2   5
BRANCH   1  16
ATOM     15  OXT UNL     1      34.480 -11.326 -25.779  0.00  0.00    -0.244 OA
ATOM     16  C   UNL     1      34.356 -10.944 -24.627  0.00  0.00    +0.350 C 
BRANCH  16  17
ATOM     17  O   UNL     1      35.343 -10.379 -23.891  0.00  0.00    -0.476 OA
ATOM     18  H   UNL     1      35.442  -9.448 -23.875  0.00  0.00    +0.295 HD
ENDBRANCH  16  17
ENDBRANCH   1  16
BRANCH   1  19
ATOM     19  C   UNL     1      32.594  -9.852 -23.316  0.00  0.00    +0.090 C 
BRANCH  19  20
ATOM     20  C   UNL     1      32.388  -9.705 -21.862  0.00  0.00    -0.014 C 
ATOM     21  C   UNL     1      31.635 -10.479 -21.064  0.00  0.00    +0.053 C 
BRANCH  21  24
ATOM     22  O   UNL     1      30.745 -10.730 -18.854  0.00  0.00    -0.270 OA
ATOM     23  N   UNL     1      32.440  -9.217 -19.211  0.00  0.00    -0.325 N 
ATOM     24  C   UNL     1      31.539 -10.178 -19.609  0.00  0.00    +0.243 C 
ATOM     25  H   UNL     1      32.474  -8.932 -18.270  0.00  0.00    +0.145 HD
ATOM     26  H   UNL     1      33.051  -8.814 -19.870  0.00  0.00    +0.145 HD
ENDBRANCH  21  24
ENDBRANCH  19  20
BRANCH  19  27
ATOM     27  C   UNL     1      32.151  -8.698 -24.192  0.00  0.00    +0.157 C 
BRANCH  27  28
ATOM     28  S   UNL     1      33.038  -7.249 -23.709  0.00  0.00    -0.030 S 
ATOM     29  O   UNL     1      34.458  -7.532 -23.797  0.00  0.00    -0.176 OA
ATOM     30  O   UNL     1      32.452  -6.107 -24.383  0.00  0.00    -0.176 OA
ATOM     31  H   UNL     1      32.920  -6.879 -22.406  0.00  0.00    +0.210 HD
ENDBRANCH  27  28
ENDBRANCH  19  27
ENDBRANCH   1  19
TORSDOF 9
ENDMDL
MODEL 8
REMARK VINA RESULT:      -7.1     16.456     19.096
REMARK  Name = 5288130
REMARK  9 active torsions:
REMARK  status: ('A' for Active; 'I' for Inactive)
REMARK    1  A    between atoms: CA_1  and  C_2
REMARK    2  A    between atoms: CA_1  and  C_4
REMARK    3  A    between atoms: C_2  and  C_20
REMARK    4  A    between atoms: C_2  and  C_27
REMARK    5  A    between atoms: C_4  and  O_5
REMARK    6  A    between atoms: N_7  and  C_10
REMARK    7  A    between atoms: C_12  and  C_19
REMARK    8  A    between atoms: C_21  and  C_24
REMARK    9  A    between atoms: C_27  and  S_28
REMARK                            x       y       z     vdW  Elec       q    Type
REMARK                         _______ _______ _______ _____ _____    ______ ____
ROOT
ATOM      1  CA  UNL     1      32.813  -7.878 -23.872  0.00  0.00    +0.116 C 
ATOM      2  N   UNL     1      32.318  -9.111 -24.203  0.00  0.00    -0.339 N 
ATOM      3  H   UNL     1      31.545  -9.102 -24.811  0.00  0.00    +0.167 HD
ENDROOT
BRANCH   2   5
ATOM      4  N   UNL     1      32.230 -10.941 -22.686  0.00  0.00    -0.251 N 
ATOM      5  C   UNL     1      32.739 -10.344 -23.814  0.00  0.00    +0.120 C 
ATOM      6  C   UNL     1      32.838 -12.185 -22.540  0.00  0.00    +0.057 C 
ATOM      7  C   UNL     1      33.660 -11.189 -24.385  0.00  0.00    +0.074 C 
ATOM      8  C   UNL     1      33.725 -12.354 -23.582  0.00  0.00    +0.021 C 
ATOM      9  C   UNL     1      31.274 -10.452 -21.796  0.00  0.00    +0.071 C 
ATOM     10  C   UNL     1      32.450 -12.979 -21.422  0.00  0.00    +0.015 C 
ATOM     11  C   UNL     1      30.911 -11.205 -20.744  0.00  0.00    +0.017 C 
ATOM     12  C   UNL     1      31.527 -12.509 -20.561  0.00  0.00    +0.003 C 
BRANCH   7  14
ATOM     13  O   UNL     1      35.494 -10.326 -25.619  0.00  0.00    -0.283 OA
ATOM     14  C   UNL     1      34.405 -10.914 -25.581  0.00  0.00    +0.237 C 
ENDBRANCH   7  14
ENDBRANCH   2   5
BRANCH   1  16
ATOM     15  OXT UNL     1      35.145  -8.089 -23.283  0.00  0.00    -0.244 OA
ATOM     16  C   UNL     1      33.981  -7.944 -22.949  0.00  0.00    +0.350 C 
BRANCH  16  17
ATOM     17  O   UNL     1      33.558  -7.799 -21.670  0.00  0.00    -0.476 OA
ATOM     18  H   UNL     1      33.510  -6.946 -21.285  0.00  0.00    +0.295 HD
ENDBRANCH  16  17
ENDBRANCH   1  16
BRANCH   1  19
ATOM     19  C   UNL     1      32.370  -6.659 -24.279  0.00  0.00    +0.090 C 
BRANCH  19  20
ATOM     20  C   UNL     1      33.231  -5.793 -25.106  0.00  0.00    -0.014 C 
ATOM     21  C   UNL     1      32.864  -5.048 -26.161  0.00  0.00    +0.053 C 
BRANCH  21  24
ATOM     22  O   UNL     1      34.988  -4.647 -27.194  0.00  0.00    -0.270 OA
ATOM     23  N   UNL     1      33.422  -2.962 -27.167  0.00  0.00    -0.325 N 
ATOM     24  C   UNL     1      33.876  -4.230 -26.885  0.00  0.00    +0.243 C 
ATOM     25  H   UNL     1      34.002  -2.326 -27.645  0.00  0.00    +0.145 HD
ATOM     26  H   UNL     1      32.516  -2.691 -26.891  0.00  0.00    +0.145 HD
ENDBRANCH  21  24
ENDBRANCH  19  20
BRANCH  19  27
ATOM     27  C   UNL     1      31.026  -6.095 -23.864  0.00  0.00    +0.157 C 
BRANCH  27  28
ATOM     28  S   UNL     1      31.249  -5.118 -22.410  0.00  0.00    -0.030 S 
ATOM     29  O   UNL     1      30.265  -4.052 -22.420  0.00  0.00    -0.176 OA
ATOM     30  O   UNL     1      31.385  -6.010 -21.275  0.00  0.00    -0.176 OA
ATOM     31  H   UNL     1      32.408  -4.410 -22.333  0.00  0.00    +0.210 HD
ENDBRANCH  27  28
ENDBRANCH  19  27
ENDBRANCH   1  19
TORSDOF 9
ENDMDL
MODEL 9
REMARK VINA RESULT:      -7.0      2.246      4.397
REMARK  Name = 5288130
REMARK  9 active torsions:
REMARK  status: ('A' for Active; 'I' for Inactive)
REMARK    1  A    between atoms: CA_1  and  C_2
REMARK    2  A    between atoms: CA_1  and  C_4
REMARK    3  A    between atoms: C_2  and  C_20
REMARK    4  A    between atoms: C_2  and  C_27
REMARK    5  A    between atoms: C_4  and  O_5
REMARK    6  A    between atoms: N_7  and  C_10
REMARK    7  A    between atoms: C_12  and  C_19
REMARK    8  A    between atoms: C_21  and  C_24
REMARK    9  A    between atoms: C_27  and  S_28
REMARK                            x       y       z     vdW  Elec       q    Type
REMARK                         _______ _______ _______ _____ _____    ______ ____
ROOT
ATOM      1  CA  UNL     1      36.398 -24.231 -14.762  0.00  0.00    +0.116 C 
ATOM      2  N   UNL     1      35.700 -23.131 -15.185  0.00  0.00    -0.339 N 
ATOM      3  H   UNL     1      35.989 -22.275 -14.794  0.00  0.00    +0.167 HD
ENDROOT
BRANCH   2   5
ATOM      4  N   UNL     1      34.860 -22.573 -17.339  0.00  0.00    -0.251 N 
ATOM      5  C   UNL     1      34.667 -23.049 -16.066  0.00  0.00    +0.120 C 
ATOM      6  C   UNL     1      33.639 -22.606 -18.007  0.00  0.00    +0.057 C 
ATOM      7  C   UNL     1      33.342 -23.382 -15.915  0.00  0.00    +0.074 C 
ATOM      8  C   UNL     1      32.690 -23.103 -17.140  0.00  0.00    +0.021 C 
ATOM      9  C   UNL     1      36.039 -22.119 -17.931  0.00  0.00    +0.071 C 
ATOM     10  C   UNL     1      33.616 -22.151 -19.357  0.00  0.00    +0.015 C 
ATOM     11  C   UNL     1      36.012 -21.692 -19.205  0.00  0.00    +0.017 C 
ATOM     12  C   UNL     1      34.752 -21.712 -19.931  0.00  0.00    +0.003 C 
BRANCH   7  14
ATOM     13  O   UNL     1      33.162 -23.699 -13.569  0.00  0.00    -0.283 OA
ATOM     14  C   UNL     1      32.755 -23.917 -14.718  0.00  0.00    +0.237 C 
ENDBRANCH   7  14
ENDBRANCH   2   5
BRANCH   1  16
ATOM     15  OXT UNL     1      34.803 -25.971 -15.267  0.00  0.00    -0.244 OA
ATOM     16  C   UNL     1      35.922 -25.500 -15.380  0.00  0.00    +0.350 C 
BRANCH  16  17
ATOM     17  O   UNL     1      36.921 -26.052 -16.109  0.00  0.00    -0.476 OA
ATOM     18  H   UNL     1      37.809 -25.789 -15.964  0.00  0.00    +0.295 HD
ENDBRANCH  16  17
ENDBRANCH   1  16
BRANCH   1  19
ATOM     19  C   UNL     1      37.429 -24.280 -13.878  0.00  0.00    +0.090 C 
BRANCH  19  20
ATOM     20  C   UNL     1      37.163 -24.303 -12.426  0.00  0.00    -0.014 C 
ATOM     21  C   UNL     1      35.969 -24.244 -11.816  0.00  0.00    +0.053 C 
BRANCH  21  24
ATOM     22  O   UNL     1      35.215 -25.090  -9.706  0.00  0.00    -0.270 OA
ATOM     23  N   UNL     1      36.655 -23.297  -9.741  0.00  0.00    -0.325 N 
ATOM     24  C   UNL     1      35.888 -24.278 -10.330  0.00  0.00    +0.243 C 
ATOM     25  H   UNL     1      36.684 -23.217  -8.761  0.00  0.00    +0.145 HD
ATOM     26  H   UNL     1      37.173 -22.676 -10.302  0.00  0.00    +0.145 HD
ENDBRANCH  21  24
ENDBRANCH  19  20
BRANCH  19  27
ATOM     27  C   UNL     1      38.882 -24.245 -14.309  0.00  0.00    +0.157 C 
BRANCH  27  28
ATOM     28  S   UNL     1      39.638 -25.779 -13.869  0.00  0.00    -0.030 S 
ATOM     29  O   UNL     1      38.787 -26.858 -14.335  0.00  0.00    -0.176 OA
ATOM     30  O   UNL     1      41.041 -25.717 -14.225  0.00  0.00    -0.176 OA
ATOM     31  H   UNL     1      39.712 -26.053 -12.539  0.00  0.00    +0.210 HD
ENDBRANCH  27  28
ENDBRANCH  19  27
ENDBRANCH   1  19
TORSDOF 9
ENDMDL
