MODEL 1
REMARK VINA RESULT:     -10.1      0.000      0.000
REMARK  Name = 3025803
REMARK  8 active torsions:
REMARK  status: ('A' for Active; 'I' for Inactive)
REMARK    1  A    between atoms: C_3  and  C_16
REMARK    2  A    between atoms: C_4  and  C_7
REMARK    3  A    between atoms: CA_9  and  C_13
REMARK    4  A    between atoms: C_13  and  O_14
REMARK    5  A    between atoms: C_17  and  O_22
REMARK    6  A    between atoms: C_19  and  O_25
REMARK    7  A    between atoms: O_22  and  C_23
REMARK    8  A    between atoms: O_25  and  C_26
REMARK                            x       y       z     vdW  Elec       q    Type
REMARK                         _______ _______ _______ _____ _____    ______ ____
ROOT
ATOM      1  S   UNL     1      35.685 -18.490 -22.874  0.00  0.00    -0.075 S 
ATOM      2  N   UNL     1      33.891 -17.400 -21.366  0.00  0.00    -0.397 NA
ATOM      3  C   UNL     1      34.588 -18.499 -21.553  0.00  0.00    +0.157 C 
ATOM      4  C   UNL     1      34.242 -16.476 -22.331  0.00  0.00    +0.146 C 
ATOM      5  C   UNL     1      35.197 -16.886 -23.237  0.00  0.00    +0.126 C 
ENDROOT
BRANCH   4   7
ATOM      6  N   UNL     1      34.003 -14.401 -23.427  0.00  0.00    -0.397 NA
ATOM      7  C   UNL     1      33.642 -15.175 -22.378  0.00  0.00    +0.140 C 
ATOM      8  C   UNL     1      32.753 -14.777 -21.391  0.00  0.00    +0.087 C 
ATOM      9  CA  UNL     1      33.445 -13.170 -23.485  0.00  0.00    +0.206 C 
ATOM     10  C   UNL     1      32.201 -13.505 -21.487  0.00  0.00    -0.016 C 
ATOM     11  C   UNL     1      32.548 -12.680 -22.550  0.00  0.00    +0.035 C 
BRANCH   9  13
ATOM     12  OXT UNL     1      33.583 -12.589 -25.801  0.00  0.00    -0.242 OA
ATOM     13  C   UNL     1      33.845 -12.352 -24.617  0.00  0.00    +0.368 C 
BRANCH  13  14
ATOM     14  O   UNL     1      34.561 -11.256 -24.242  0.00  0.00    -0.475 OA
ATOM     15  H   UNL     1      35.476 -11.205 -24.437  0.00  0.00    +0.295 HD
ENDBRANCH  13  14
ENDBRANCH   9  13
ENDBRANCH   4   7
BRANCH   3  16
ATOM     16  C   UNL     1      34.493 -19.687 -20.741  0.00  0.00    +0.039 C 
ATOM     17  C   UNL     1      35.543 -21.358 -19.345  0.00  0.00    +0.172 C 
ATOM     18  C   UNL     1      35.635 -20.209 -20.131  0.00  0.00    +0.043 C 
ATOM     19  C   UNL     1      34.308 -21.984 -19.168  0.00  0.00    +0.172 C 
ATOM     20  C   UNL     1      33.260 -20.314 -20.563  0.00  0.00    +0.006 C 
ATOM     21  C   UNL     1      33.167 -21.462 -19.777  0.00  0.00    +0.040 C 
BRANCH  17  22
ATOM     22  O   UNL     1      36.664 -21.858 -18.756  0.00  0.00    -0.472 OA
BRANCH  22  23
ATOM     23  C   UNL     1      37.052 -21.284 -17.509  0.00  0.00    +0.206 C 
ATOM     24  C   UNL     1      37.282 -22.395 -16.506  0.00  0.00    +0.051 C 
ENDBRANCH  22  23
ENDBRANCH  17  22
BRANCH  19  25
ATOM     25  O   UNL     1      34.205 -23.106 -18.403  0.00  0.00    -0.472 OA
BRANCH  25  26
ATOM     26  C   UNL     1      33.174 -23.126 -17.417  0.00  0.00    +0.206 C 
ATOM     27  C   UNL     1      33.783 -23.461 -16.073  0.00  0.00    +0.051 C 
ENDBRANCH  25  26
ENDBRANCH  19  25
ENDBRANCH   3  16
TORSDOF 8
ENDMDL
MODEL 2
REMARK VINA RESULT:      -9.9      1.969      9.417
REMARK  Name = 3025803
REMARK  8 active torsions:
REMARK  status: ('A' for Active; 'I' for Inactive)
REMARK    1  A    between atoms: C_3  and  C_16
REMARK    2  A    between atoms: C_4  and  C_7
REMARK    3  A    between atoms: CA_9  and  C_13
REMARK    4  A    between atoms: C_13  and  O_14
REMARK    5  A    between atoms: C_17  and  O_22
REMARK    6  A    between atoms: C_19  and  O_25
REMARK    7  A    between atoms: O_22  and  C_23
REMARK    8  A    between atoms: O_25  and  C_26
REMARK                            x       y       z     vdW  Elec       q    Type
REMARK                         _______ _______ _______ _____ _____    ______ ____
ROOT
ATOM      1  S   UNL     1      34.474 -16.183 -24.449  0.00  0.00    -0.075 S 
ATOM      2  N   UNL     1      34.214 -16.467 -21.892  0.00  0.00    -0.397 NA
ATOM      3  C   UNL     1      33.996 -15.640 -22.891  0.00  0.00    +0.157 C 
ATOM      4  C   UNL     1      34.801 -17.617 -22.382  0.00  0.00    +0.146 C 
ATOM      5  C   UNL     1      35.022 -17.648 -23.743  0.00  0.00    +0.126 C 
ENDROOT
BRANCH   4   7
ATOM      6  N   UNL     1      34.122 -19.448 -21.057  0.00  0.00    -0.397 NA
ATOM      7  C   UNL     1      35.155 -18.706 -21.519  0.00  0.00    +0.140 C 
ATOM      8  C   UNL     1      36.483 -18.947 -21.204  0.00  0.00    +0.087 C 
ATOM      9  CA  UNL     1      34.440 -20.479 -20.242  0.00  0.00    +0.206 C 
ATOM     10  C   UNL     1      36.769 -20.017 -20.364  0.00  0.00    -0.016 C 
ATOM     11  C   UNL     1      35.734 -20.802 -19.869  0.00  0.00    +0.035 C 
BRANCH   9  13
ATOM     12  OXT UNL     1      33.317 -22.489 -19.594  0.00  0.00    -0.242 OA
ATOM     13  C   UNL     1      33.319 -21.263 -19.754  0.00  0.00    +0.368 C 
BRANCH  13  14
ATOM     14  O   UNL     1      32.228 -20.498 -19.475  0.00  0.00    -0.475 OA
ATOM     15  H   UNL     1      32.292 -19.563 -19.502  0.00  0.00    +0.295 HD
ENDBRANCH  13  14
ENDBRANCH   9  13
ENDBRANCH   4   7
BRANCH   3  16
ATOM     16  C   UNL     1      33.397 -14.334 -22.769  0.00  0.00    +0.039 C 
ATOM     17  C   UNL     1      33.117 -12.074 -23.579  0.00  0.00    +0.172 C 
ATOM     18  C   UNL     1      33.699 -13.337 -23.697  0.00  0.00    +0.043 C 
ATOM     19  C   UNL     1      32.233 -11.809 -22.532  0.00  0.00    +0.172 C 
ATOM     20  C   UNL     1      32.513 -14.068 -21.723  0.00  0.00    +0.006 C 
ATOM     21  C   UNL     1      31.932 -12.806 -21.605  0.00  0.00    +0.040 C 
BRANCH  17  22
ATOM     22  O   UNL     1      33.420 -11.110 -24.491  0.00  0.00    -0.472 OA
BRANCH  22  23
ATOM     23  C   UNL     1      34.611 -10.357 -24.267  0.00  0.00    +0.206 C 
ATOM     24  C   UNL     1      35.405 -10.296 -25.555  0.00  0.00    +0.051 C 
ENDBRANCH  22  23
ENDBRANCH  17  22
BRANCH  19  25
ATOM     25  O   UNL     1      31.660 -10.580 -22.405  0.00  0.00    -0.472 OA
BRANCH  25  26
ATOM     26  C   UNL     1      31.894  -9.879 -21.185  0.00  0.00    +0.206 C 
ATOM     27  C   UNL     1      32.162  -8.423 -21.496  0.00  0.00    +0.051 C 
ENDBRANCH  25  26
ENDBRANCH  19  25
ENDBRANCH   3  16
TORSDOF 8
ENDMDL
MODEL 3
REMARK VINA RESULT:      -9.8      3.993      9.978
REMARK  Name = 3025803
REMARK  8 active torsions:
REMARK  status: ('A' for Active; 'I' for Inactive)
REMARK    1  A    between atoms: C_3  and  C_16
REMARK    2  A    between atoms: C_4  and  C_7
REMARK    3  A    between atoms: CA_9  and  C_13
REMARK    4  A    between atoms: C_13  and  O_14
REMARK    5  A    between atoms: C_17  and  O_22
REMARK    6  A    between atoms: C_19  and  O_25
REMARK    7  A    between atoms: O_22  and  C_23
REMARK    8  A    between atoms: O_25  and  C_26
REMARK                            x       y       z     vdW  Elec       q    Type
REMARK                         _______ _______ _______ _____ _____    ______ ____
ROOT
ATOM      1  S   UNL     1      33.081 -13.479 -26.222  0.00  0.00    -0.075 S 
ATOM      2  N   UNL     1      33.953 -14.233 -23.909  0.00  0.00    -0.397 NA
ATOM      3  C   UNL     1      33.541 -13.189 -24.593  0.00  0.00    +0.157 C 
ATOM      4  C   UNL     1      33.906 -15.349 -24.721  0.00  0.00    +0.146 C 
ATOM      5  C   UNL     1      33.461 -15.138 -26.008  0.00  0.00    +0.126 C 
ENDROOT
BRANCH   4   7
ATOM      6  N   UNL     1      34.696 -16.695 -22.951  0.00  0.00    -0.397 NA
ATOM      7  C   UNL     1      34.298 -16.643 -24.242  0.00  0.00    +0.140 C 
ATOM      8  C   UNL     1      34.255 -17.743 -25.084  0.00  0.00    +0.087 C 
ATOM      9  CA  UNL     1      35.069 -17.908 -22.485  0.00  0.00    +0.206 C 
ATOM     10  C   UNL     1      34.646 -18.974 -24.568  0.00  0.00    -0.016 C 
ATOM     11  C   UNL     1      35.062 -19.066 -23.245  0.00  0.00    +0.035 C 
BRANCH   9  13
ATOM     12  OXT UNL     1      36.020 -18.913 -20.534  0.00  0.00    -0.242 OA
ATOM     13  C   UNL     1      35.495 -17.945 -21.097  0.00  0.00    +0.368 C 
BRANCH  13  14
ATOM     14  O   UNL     1      35.259 -16.773 -20.446  0.00  0.00    -0.475 OA
ATOM     15  H   UNL     1      35.464 -16.693 -19.536  0.00  0.00    +0.295 HD
ENDBRANCH  13  14
ENDBRANCH   9  13
ENDBRANCH   4   7
BRANCH   3  16
ATOM     16  C   UNL     1      33.453 -11.845 -24.079  0.00  0.00    +0.039 C 
ATOM     17  C   UNL     1      32.434 -10.235 -22.592  0.00  0.00    +0.172 C 
ATOM     18  C   UNL     1      32.518 -11.535 -23.090  0.00  0.00    +0.043 C 
ATOM     19  C   UNL     1      33.286  -9.244 -23.082  0.00  0.00    +0.172 C 
ATOM     20  C   UNL     1      34.304 -10.854 -24.568  0.00  0.00    +0.006 C 
ATOM     21  C   UNL     1      34.220  -9.554 -24.071  0.00  0.00    +0.040 C 
BRANCH  17  22
ATOM     22  O   UNL     1      31.517  -9.945 -21.627  0.00  0.00    -0.472 OA
BRANCH  22  23
ATOM     23  C   UNL     1      31.013 -11.039 -20.863  0.00  0.00    +0.206 C 
ATOM     24  C   UNL     1      31.315 -10.797 -19.399  0.00  0.00    +0.051 C 
ENDBRANCH  22  23
ENDBRANCH  17  22
BRANCH  19  25
ATOM     25  O   UNL     1      33.213  -7.970 -22.605  0.00  0.00    -0.472 OA
BRANCH  25  26
ATOM     26  C   UNL     1      32.604  -6.996 -23.450  0.00  0.00    +0.206 C 
ATOM     27  C   UNL     1      31.304  -6.541 -22.821  0.00  0.00    +0.051 C 
ENDBRANCH  25  26
ENDBRANCH  19  25
ENDBRANCH   3  16
TORSDOF 8
ENDMDL
MODEL 4
REMARK VINA RESULT:      -9.4      2.939      9.556
REMARK  Name = 3025803
REMARK  8 active torsions:
REMARK  status: ('A' for Active; 'I' for Inactive)
REMARK    1  A    between atoms: C_3  and  C_16
REMARK    2  A    between atoms: C_4  and  C_7
REMARK    3  A    between atoms: CA_9  and  C_13
REMARK    4  A    between atoms: C_13  and  O_14
REMARK    5  A    between atoms: C_17  and  O_22
REMARK    6  A    between atoms: C_19  and  O_25
REMARK    7  A    between atoms: O_22  and  C_23
REMARK    8  A    between atoms: O_25  and  C_26
REMARK                            x       y       z     vdW  Elec       q    Type
REMARK                         _______ _______ _______ _____ _____    ______ ____
ROOT
ATOM      1  S   UNL     1      33.026 -21.129 -20.292  0.00  0.00    -0.075 S 
ATOM      2  N   UNL     1      35.434 -20.622 -19.500  0.00  0.00    -0.397 NA
ATOM      3  C   UNL     1      34.519 -20.286 -20.383  0.00  0.00    +0.157 C 
ATOM      4  C   UNL     1      34.927 -21.617 -18.686  0.00  0.00    +0.146 C 
ATOM      5  C   UNL     1      33.639 -22.023 -18.963  0.00  0.00    +0.126 C 
ENDROOT
BRANCH   4   7
ATOM      6  N   UNL     1      35.090 -23.152 -16.902  0.00  0.00    -0.397 NA
ATOM      7  C   UNL     1      35.703 -22.186 -17.623  0.00  0.00    +0.140 C 
ATOM      8  C   UNL     1      36.995 -21.744 -17.386  0.00  0.00    +0.087 C 
ATOM      9  CA  UNL     1      35.810 -23.698 -15.895  0.00  0.00    +0.206 C 
ATOM     10  C   UNL     1      37.703 -22.331 -16.342  0.00  0.00    -0.016 C 
ATOM     11  C   UNL     1      37.106 -23.326 -15.578  0.00  0.00    +0.035 C 
BRANCH   9  13
ATOM     12  OXT UNL     1      34.270 -24.537 -14.269  0.00  0.00    -0.242 OA
ATOM     13  C   UNL     1      35.136 -24.732 -15.130  0.00  0.00    +0.368 C 
BRANCH  13  14
ATOM     14  O   UNL     1      35.558 -25.985 -15.458  0.00  0.00    -0.475 OA
ATOM     15  H   UNL     1      36.390 -26.105 -15.870  0.00  0.00    +0.295 HD
ENDBRANCH  13  14
ENDBRANCH   9  13
ENDBRANCH   4   7
BRANCH   3  16
ATOM     16  C   UNL     1      34.684 -19.280 -21.402  0.00  0.00    +0.039 C 
ATOM     17  C   UNL     1      34.885 -16.956 -22.037  0.00  0.00    +0.172 C 
ATOM     18  C   UNL     1      34.724 -17.930 -21.051  0.00  0.00    +0.043 C 
ATOM     19  C   UNL     1      35.007 -17.333 -23.375  0.00  0.00    +0.172 C 
ATOM     20  C   UNL     1      34.807 -19.655 -22.740  0.00  0.00    +0.006 C 
ATOM     21  C   UNL     1      34.968 -18.683 -23.726  0.00  0.00    +0.040 C 
BRANCH  17  22
ATOM     22  O   UNL     1      34.921 -15.642 -21.682  0.00  0.00    -0.472 OA
BRANCH  22  23
ATOM     23  C   UNL     1      34.074 -15.238 -20.608  0.00  0.00    +0.206 C 
ATOM     24  C   UNL     1      32.767 -14.727 -21.178  0.00  0.00    +0.051 C 
ENDBRANCH  22  23
ENDBRANCH  17  22
BRANCH  19  25
ATOM     25  O   UNL     1      35.164 -16.393 -24.348  0.00  0.00    -0.472 OA
BRANCH  25  26
ATOM     26  C   UNL     1      34.081 -16.216 -25.259  0.00  0.00    +0.206 C 
ATOM     27  C   UNL     1      33.395 -14.900 -24.962  0.00  0.00    +0.051 C 
ENDBRANCH  25  26
ENDBRANCH  19  25
ENDBRANCH   3  16
TORSDOF 8
ENDMDL
MODEL 5
REMARK VINA RESULT:      -9.4      2.460      9.181
REMARK  Name = 3025803
REMARK  8 active torsions:
REMARK  status: ('A' for Active; 'I' for Inactive)
REMARK    1  A    between atoms: C_3  and  C_16
REMARK    2  A    between atoms: C_4  and  C_7
REMARK    3  A    between atoms: CA_9  and  C_13
REMARK    4  A    between atoms: C_13  and  O_14
REMARK    5  A    between atoms: C_17  and  O_22
REMARK    6  A    between atoms: C_19  and  O_25
REMARK    7  A    between atoms: O_22  and  C_23
REMARK    8  A    between atoms: O_25  and  C_26
REMARK                            x       y       z     vdW  Elec       q    Type
REMARK                         _______ _______ _______ _____ _____    ______ ____
ROOT
ATOM      1  S   UNL     1      37.273 -19.491 -21.019  0.00  0.00    -0.075 S 
ATOM      2  N   UNL     1      34.781 -20.143 -20.802  0.00  0.00    -0.397 NA
ATOM      3  C   UNL     1      35.628 -19.426 -21.508  0.00  0.00    +0.157 C 
ATOM      4  C   UNL     1      35.471 -20.796 -19.800  0.00  0.00    +0.146 C 
ATOM      5  C   UNL     1      36.830 -20.566 -19.756  0.00  0.00    +0.126 C 
ENDROOT
BRANCH   4   7
ATOM      6  N   UNL     1      35.561 -22.104 -17.838  0.00  0.00    -0.397 NA
ATOM      7  C   UNL     1      34.805 -21.657 -18.867  0.00  0.00    +0.140 C 
ATOM      8  C   UNL     1      33.470 -21.984 -19.046  0.00  0.00    +0.087 C 
ATOM      9  CA  UNL     1      34.946 -22.917 -16.950  0.00  0.00    +0.206 C 
ATOM     10  C   UNL     1      32.874 -22.822 -18.110  0.00  0.00    -0.016 C 
ATOM     11  C   UNL     1      33.619 -23.302 -17.040  0.00  0.00    +0.035 C 
BRANCH   9  13
ATOM     12  OXT UNL     1      35.362 -23.718 -14.734  0.00  0.00    -0.242 OA
ATOM     13  C   UNL     1      35.774 -23.389 -15.853  0.00  0.00    +0.368 C 
BRANCH  13  14
ATOM     14  O   UNL     1      37.095 -23.442 -16.179  0.00  0.00    -0.475 OA
ATOM     15  H   UNL     1      37.371 -23.916 -16.939  0.00  0.00    +0.295 HD
ENDBRANCH  13  14
ENDBRANCH   9  13
ENDBRANCH   4   7
BRANCH   3  16
ATOM     16  C   UNL     1      35.275 -18.606 -22.640  0.00  0.00    +0.039 C 
ATOM     17  C   UNL     1      34.965 -16.421 -23.626  0.00  0.00    +0.172 C 
ATOM     18  C   UNL     1      35.305 -17.215 -22.530  0.00  0.00    +0.043 C 
ATOM     19  C   UNL     1      34.595 -17.019 -24.831  0.00  0.00    +0.172 C 
ATOM     20  C   UNL     1      34.906 -19.202 -23.845  0.00  0.00    +0.006 C 
ATOM     21  C   UNL     1      34.566 -18.409 -24.940  0.00  0.00    +0.040 C 
BRANCH  17  22
ATOM     22  O   UNL     1      34.998 -15.065 -23.506  0.00  0.00    -0.472 OA
BRANCH  22  23
ATOM     23  C   UNL     1      34.402 -14.502 -22.338  0.00  0.00    +0.206 C 
ATOM     24  C   UNL     1      32.897 -14.493 -22.509  0.00  0.00    +0.051 C 
ENDBRANCH  22  23
ENDBRANCH  17  22
BRANCH  19  25
ATOM     25  O   UNL     1      34.260 -16.255 -25.908  0.00  0.00    -0.472 OA
BRANCH  25  26
ATOM     26  C   UNL     1      32.911 -15.797 -25.983  0.00  0.00    +0.206 C 
ATOM     27  C   UNL     1      32.909 -14.319 -26.309  0.00  0.00    +0.051 C 
ENDBRANCH  25  26
ENDBRANCH  19  25
ENDBRANCH   3  16
TORSDOF 8
ENDMDL
MODEL 6
REMARK VINA RESULT:      -9.4      1.526      1.960
REMARK  Name = 3025803
REMARK  8 active torsions:
REMARK  status: ('A' for Active; 'I' for Inactive)
REMARK    1  A    between atoms: C_3  and  C_16
REMARK    2  A    between atoms: C_4  and  C_7
REMARK    3  A    between atoms: CA_9  and  C_13
REMARK    4  A    between atoms: C_13  and  O_14
REMARK    5  A    between atoms: C_17  and  O_22
REMARK    6  A    between atoms: C_19  and  O_25
REMARK    7  A    between atoms: O_22  and  C_23
REMARK    8  A    between atoms: O_25  and  C_26
REMARK                            x       y       z     vdW  Elec       q    Type
REMARK                         _______ _______ _______ _____ _____    ______ ____
ROOT
ATOM      1  S   UNL     1      36.460 -18.686 -22.118  0.00  0.00    -0.075 S 
ATOM      2  N   UNL     1      34.035 -17.892 -21.704  0.00  0.00    -0.397 NA
ATOM      3  C   UNL     1      34.900 -18.841 -21.418  0.00  0.00    +0.157 C 
ATOM      4  C   UNL     1      34.641 -16.969 -22.536  0.00  0.00    +0.146 C 
ATOM      5  C   UNL     1      35.952 -17.231 -22.871  0.00  0.00    +0.126 C 
ENDROOT
BRANCH   4   7
ATOM      6  N   UNL     1      33.375 -15.035 -22.064  0.00  0.00    -0.397 NA
ATOM      7  C   UNL     1      33.938 -15.815 -23.015  0.00  0.00    +0.140 C 
ATOM      8  C   UNL     1      33.865 -15.554 -24.374  0.00  0.00    +0.087 C 
ATOM      9  CA  UNL     1      32.709 -13.942 -22.501  0.00  0.00    +0.206 C 
ATOM     10  C   UNL     1      33.172 -14.420 -24.784  0.00  0.00    -0.016 C 
ATOM     11  C   UNL     1      32.579 -13.594 -23.836  0.00  0.00    +0.035 C 
BRANCH   9  13
ATOM     12  OXT UNL     1      32.332 -13.212 -20.255  0.00  0.00    -0.242 OA
ATOM     13  C   UNL     1      32.109 -13.117 -21.467  0.00  0.00    +0.368 C 
BRANCH  13  14
ATOM     14  O   UNL     1      31.247 -12.191 -21.972  0.00  0.00    -0.475 OA
ATOM     15  H   UNL     1      31.403 -11.818 -22.816  0.00  0.00    +0.295 HD
ENDBRANCH  13  14
ENDBRANCH   9  13
ENDBRANCH   4   7
BRANCH   3  16
ATOM     16  C   UNL     1      34.629 -19.979 -20.576  0.00  0.00    +0.039 C 
ATOM     17  C   UNL     1      35.408 -21.698 -19.065  0.00  0.00    +0.172 C 
ATOM     18  C   UNL     1      35.670 -20.597 -19.881  0.00  0.00    +0.043 C 
ATOM     19  C   UNL     1      34.104 -22.180 -18.943  0.00  0.00    +0.172 C 
ATOM     20  C   UNL     1      33.326 -20.462 -20.453  0.00  0.00    +0.006 C 
ATOM     21  C   UNL     1      33.064 -21.562 -19.638  0.00  0.00    +0.040 C 
BRANCH  17  22
ATOM     22  O   UNL     1      36.432 -22.292 -18.392  0.00  0.00    -0.472 OA
BRANCH  22  23
ATOM     23  C   UNL     1      37.021 -21.553 -17.324  0.00  0.00    +0.206 C 
ATOM     24  C   UNL     1      37.186 -22.465 -16.126  0.00  0.00    +0.051 C 
ENDBRANCH  22  23
ENDBRANCH  17  22
BRANCH  19  25
ATOM     25  O   UNL     1      33.835 -23.255 -18.150  0.00  0.00    -0.472 OA
BRANCH  25  26
ATOM     26  C   UNL     1      32.886 -23.065 -17.102  0.00  0.00    +0.206 C 
ATOM     27  C   UNL     1      33.536 -23.414 -15.780  0.00  0.00    +0.051 C 
ENDBRANCH  25  26
ENDBRANCH  19  25
ENDBRANCH   3  16
TORSDOF 8
ENDMDL
MODEL 7
REMARK VINA RESULT:      -9.3      4.487      7.277
REMARK  Name = 3025803
REMARK  8 active torsions:
REMARK  status: ('A' for Active; 'I' for Inactive)
REMARK    1  A    between atoms: C_3  and  C_16
REMARK    2  A    between atoms: C_4  and  C_7
REMARK    3  A    between atoms: CA_9  and  C_13
REMARK    4  A    between atoms: C_13  and  O_14
REMARK    5  A    between atoms: C_17  and  O_22
REMARK    6  A    between atoms: C_19  and  O_25
REMARK    7  A    between atoms: O_22  and  C_23
REMARK    8  A    between atoms: O_25  and  C_26
REMARK                            x       y       z     vdW  Elec       q    Type
REMARK                         _______ _______ _______ _____ _____    ______ ____
ROOT
ATOM      1  S   UNL     1      31.977 -12.458 -22.189  0.00  0.00    -0.075 S 
ATOM      2  N   UNL     1      33.480 -11.353 -23.979  0.00  0.00    -0.397 NA
ATOM      3  C   UNL     1      33.083 -12.512 -23.502  0.00  0.00    +0.157 C 
ATOM      4  C   UNL     1      32.871 -10.341 -23.263  0.00  0.00    +0.146 C 
ATOM      5  C   UNL     1      32.023 -10.744 -22.253  0.00  0.00    +0.126 C 
ENDROOT
BRANCH   4   7
ATOM      6  N   UNL     1      32.056  -8.131 -23.401  0.00  0.00    -0.397 NA
ATOM      7  C   UNL     1      33.113  -8.959 -23.561  0.00  0.00    +0.140 C 
ATOM      8  C   UNL     1      34.367  -8.543 -23.981  0.00  0.00    +0.087 C 
ATOM      9  CA  UNL     1      32.270  -6.824 -23.677  0.00  0.00    +0.206 C 
ATOM     10  C   UNL     1      34.547  -7.192 -24.255  0.00  0.00    -0.016 C 
ATOM     11  C   UNL     1      33.483  -6.310 -24.103  0.00  0.00    +0.035 C 
BRANCH   9  13
ATOM     12  OXT UNL     1      30.456  -5.840 -22.467  0.00  0.00    -0.242 OA
ATOM     13  C   UNL     1      31.123  -5.949 -23.503  0.00  0.00    +0.368 C 
BRANCH  13  14
ATOM     14  O   UNL     1      30.838  -5.231 -24.624  0.00  0.00    -0.475 OA
ATOM     15  H   UNL     1      30.549  -5.669 -25.399  0.00  0.00    +0.295 HD
ENDBRANCH  13  14
ENDBRANCH   9  13
ENDBRANCH   4   7
BRANCH   3  16
ATOM     16  C   UNL     1      33.507 -13.799 -23.995  0.00  0.00    +0.039 C 
ATOM     17  C   UNL     1      34.702 -15.875 -23.673  0.00  0.00    +0.172 C 
ATOM     18  C   UNL     1      34.293 -14.629 -23.195  0.00  0.00    +0.043 C 
ATOM     19  C   UNL     1      34.324 -16.290 -24.951  0.00  0.00    +0.172 C 
ATOM     20  C   UNL     1      33.130 -14.215 -25.272  0.00  0.00    +0.006 C 
ATOM     21  C   UNL     1      33.538 -15.459 -25.750  0.00  0.00    +0.040 C 
BRANCH  17  22
ATOM     22  O   UNL     1      35.469 -16.676 -22.883  0.00  0.00    -0.472 OA
BRANCH  22  23
ATOM     23  C   UNL     1      35.065 -16.823 -21.523  0.00  0.00    +0.206 C 
ATOM     24  C   UNL     1      34.663 -18.264 -21.281  0.00  0.00    +0.051 C 
ENDBRANCH  22  23
ENDBRANCH  17  22
BRANCH  19  25
ATOM     25  O   UNL     1      34.718 -17.503 -25.429  0.00  0.00    -0.472 OA
BRANCH  25  26
ATOM     26  C   UNL     1      33.949 -18.637 -25.029  0.00  0.00    +0.206 C 
ATOM     27  C   UNL     1      34.890 -19.756 -24.635  0.00  0.00    +0.051 C 
ENDBRANCH  25  26
ENDBRANCH  19  25
ENDBRANCH   3  16
TORSDOF 8
ENDMDL
MODEL 8
REMARK VINA RESULT:      -9.2      2.869      5.044
REMARK  Name = 3025803
REMARK  8 active torsions:
REMARK  status: ('A' for Active; 'I' for Inactive)
REMARK    1  A    between atoms: C_3  and  C_16
REMARK    2  A    between atoms: C_4  and  C_7
REMARK    3  A    between atoms: CA_9  and  C_13
REMARK    4  A    between atoms: C_13  and  O_14
REMARK    5  A    between atoms: C_17  and  O_22
REMARK    6  A    between atoms: C_19  and  O_25
REMARK    7  A    between atoms: O_22  and  C_23
REMARK    8  A    between atoms: O_25  and  C_26
REMARK                            x       y       z     vdW  Elec       q    Type
REMARK                         _______ _______ _______ _____ _____    ______ ____
ROOT
ATOM      1  S   UNL     1      33.450 -22.100 -19.055  0.00  0.00    -0.075 S 
ATOM      2  N   UNL     1      35.479 -20.558 -19.488  0.00  0.00    -0.397 NA
ATOM      3  C   UNL     1      35.028 -21.517 -18.710  0.00  0.00    +0.157 C 
ATOM      4  C   UNL     1      34.516 -20.254 -20.429  0.00  0.00    +0.146 C 
ATOM      5  C   UNL     1      33.348 -20.983 -20.353  0.00  0.00    +0.126 C 
ENDROOT
BRANCH   4   7
ATOM      6  N   UNL     1      34.689 -17.964 -20.971  0.00  0.00    -0.397 NA
ATOM      7  C   UNL     1      34.728 -19.239 -21.420  0.00  0.00    +0.140 C 
ATOM      8  C   UNL     1      34.956 -19.588 -22.742  0.00  0.00    +0.087 C 
ATOM      9  CA  UNL     1      34.888 -16.996 -21.894  0.00  0.00    +0.206 C 
ATOM     10  C   UNL     1      35.156 -18.564 -23.661  0.00  0.00    -0.016 C 
ATOM     11  C   UNL     1      35.123 -17.240 -23.237  0.00  0.00    +0.035 C 
BRANCH   9  13
ATOM     12  OXT UNL     1      34.838 -15.305 -20.202  0.00  0.00    -0.242 OA
ATOM     13  C   UNL     1      34.841 -15.632 -21.394  0.00  0.00    +0.368 C 
BRANCH  13  14
ATOM     14  O   UNL     1      34.800 -14.710 -22.396  0.00  0.00    -0.475 OA
ATOM     15  H   UNL     1      35.043 -14.954 -23.267  0.00  0.00    +0.295 HD
ENDBRANCH  13  14
ENDBRANCH   9  13
ENDBRANCH   4   7
BRANCH   3  16
ATOM     16  C   UNL     1      35.755 -22.099 -17.608  0.00  0.00    +0.039 C 
ATOM     17  C   UNL     1      35.825 -23.567 -15.690  0.00  0.00    +0.172 C 
ATOM     18  C   UNL     1      35.121 -23.003 -16.754  0.00  0.00    +0.043 C 
ATOM     19  C   UNL     1      37.162 -23.227 -15.480  0.00  0.00    +0.172 C 
ATOM     20  C   UNL     1      37.091 -21.761 -17.398  0.00  0.00    +0.006 C 
ATOM     21  C   UNL     1      37.794 -22.324 -16.334  0.00  0.00    +0.040 C 
BRANCH  17  22
ATOM     22  O   UNL     1      35.196 -24.448 -14.863  0.00  0.00    -0.472 OA
BRANCH  22  23
ATOM     23  C   UNL     1      34.371 -23.898 -13.837  0.00  0.00    +0.206 C 
ATOM     24  C   UNL     1      34.991 -24.207 -12.489  0.00  0.00    +0.051 C 
ENDBRANCH  22  23
ENDBRANCH  17  22
BRANCH  19  25
ATOM     25  O   UNL     1      37.859 -23.770 -14.443  0.00  0.00    -0.472 OA
BRANCH  25  26
ATOM     26  C   UNL     1      38.482 -25.033 -14.673  0.00  0.00    +0.206 C 
ATOM     27  C   UNL     1      38.309 -25.899 -13.444  0.00  0.00    +0.051 C 
ENDBRANCH  25  26
ENDBRANCH  19  25
ENDBRANCH   3  16
TORSDOF 8
ENDMDL
MODEL 9
REMARK VINA RESULT:      -9.2      0.815      2.137
REMARK  Name = 3025803
REMARK  8 active torsions:
REMARK  status: ('A' for Active; 'I' for Inactive)
REMARK    1  A    between atoms: C_3  and  C_16
REMARK    2  A    between atoms: C_4  and  C_7
REMARK    3  A    between atoms: CA_9  and  C_13
REMARK    4  A    between atoms: C_13  and  O_14
REMARK    5  A    between atoms: C_17  and  O_22
REMARK    6  A    between atoms: C_19  and  O_25
REMARK    7  A    between atoms: O_22  and  C_23
REMARK    8  A    between atoms: O_25  and  C_26
REMARK                            x       y       z     vdW  Elec       q    Type
REMARK                         _______ _______ _______ _____ _____    ______ ____
ROOT
ATOM      1  S   UNL     1      35.037 -18.780 -23.654  0.00  0.00    -0.075 S 
ATOM      2  N   UNL     1      34.465 -17.221 -21.673  0.00  0.00    -0.397 NA
ATOM      3  C   UNL     1      34.945 -18.406 -21.980  0.00  0.00    +0.157 C 
ATOM      4  C   UNL     1      34.145 -16.550 -22.837  0.00  0.00    +0.146 C 
ATOM      5  C   UNL     1      34.383 -17.234 -24.010  0.00  0.00    +0.126 C 
ENDROOT
BRANCH   4   7
ATOM      6  N   UNL     1      33.975 -14.418 -23.832  0.00  0.00    -0.397 NA
ATOM      7  C   UNL     1      33.598 -15.225 -22.815  0.00  0.00    +0.140 C 
ATOM      8  C   UNL     1      32.740 -14.839 -21.797  0.00  0.00    +0.087 C 
ATOM      9  CA  UNL     1      33.468 -13.165 -23.825  0.00  0.00    +0.206 C 
ATOM     10  C   UNL     1      32.238 -13.543 -21.825  0.00  0.00    -0.016 C 
ATOM     11  C   UNL     1      32.604 -12.683 -22.854  0.00  0.00    +0.035 C 
BRANCH   9  13
ATOM     12  OXT UNL     1      33.630 -12.502 -26.117  0.00  0.00    -0.242 OA
ATOM     13  C   UNL     1      33.885 -12.310 -24.923  0.00  0.00    +0.368 C 
BRANCH  13  14
ATOM     14  O   UNL     1      34.611 -11.237 -24.503  0.00  0.00    -0.475 OA
ATOM     15  H   UNL     1      34.421 -10.384 -24.840  0.00  0.00    +0.295 HD
ENDBRANCH  13  14
ENDBRANCH   9  13
ENDBRANCH   4   7
BRANCH   3  16
ATOM     16  C   UNL     1      35.387 -19.393 -21.026  0.00  0.00    +0.039 C 
ATOM     17  C   UNL     1      34.983 -21.415 -19.766  0.00  0.00    +0.172 C 
ATOM     18  C   UNL     1      34.554 -20.460 -20.688  0.00  0.00    +0.043 C 
ATOM     19  C   UNL     1      36.245 -21.303 -19.182  0.00  0.00    +0.172 C 
ATOM     20  C   UNL     1      36.649 -19.282 -20.443  0.00  0.00    +0.006 C 
ATOM     21  C   UNL     1      37.078 -20.235 -19.521  0.00  0.00    +0.040 C 
BRANCH  17  22
ATOM     22  O   UNL     1      34.160 -22.452 -19.444  0.00  0.00    -0.472 OA
BRANCH  22  23
ATOM     23  C   UNL     1      33.191 -22.218 -18.424  0.00  0.00    +0.206 C 
ATOM     24  C   UNL     1      33.398 -23.221 -17.309  0.00  0.00    +0.051 C 
ENDBRANCH  22  23
ENDBRANCH  17  22
BRANCH  19  25
ATOM     25  O   UNL     1      36.675 -22.228 -18.280  0.00  0.00    -0.472 OA
BRANCH  25  26
ATOM     26  C   UNL     1      36.890 -21.778 -16.943  0.00  0.00    +0.206 C 
ATOM     27  C   UNL     1      37.555 -22.884 -16.152  0.00  0.00    +0.051 C 
ENDBRANCH  25  26
ENDBRANCH  19  25
ENDBRANCH   3  16
TORSDOF 8
ENDMDL
