MODEL 1
REMARK VINA RESULT:     -10.8      0.000      0.000
REMARK  Name = 10411846
REMARK  5 active torsions:
REMARK  status: ('A' for Active; 'I' for Inactive)
REMARK    1  A    between atoms: C_2  and  S_17
REMARK    2  A    between atoms: C_3  and  C_11
REMARK    3  A    between atoms: C_4  and  S_25
REMARK    4  A    between atoms: S_17  and  C_19
REMARK    5  A    between atoms: S_25  and  C_29
REMARK                            x       y       z     vdW  Elec       q    Type
REMARK                         _______ _______ _______ _____ _____    ______ ____
ROOT
ATOM      1  N   UNL     1      31.340 -23.844 -16.218  0.00  0.00    -0.394 NA
ATOM      2  C   UNL     1      33.539 -23.571 -15.265  0.00  0.00    +0.060 C 
ATOM      3  C   UNL     1      32.601 -23.359 -16.258  0.00  0.00    +0.191 C 
ATOM      4  C   UNL     1      31.012 -24.574 -15.128  0.00  0.00    +0.145 C 
ATOM      5  C   UNL     1      33.169 -24.324 -14.159  0.00  0.00    -0.009 C 
ATOM      6  C   UNL     1      31.881 -24.839 -14.083  0.00  0.00    +0.093 C 
ENDROOT
BRANCH   3  11
ATOM      7  S   UNL     1      36.502 -21.587 -18.813  0.00  0.00    -0.060 S 
ATOM      8  O   UNL     1      31.951 -22.201 -18.164  0.00  0.00    -0.267 OA
ATOM      9  N   UNL     1      34.252 -22.362 -17.713  0.00  0.00    -0.249 N 
ATOM     10  N   UNL     1      34.148 -21.119 -19.774  0.00  0.00    -0.388 NA
ATOM     11  C   UNL     1      32.894 -22.583 -17.456  0.00  0.00    +0.282 C 
ATOM     12  C   UNL     1      34.801 -21.676 -18.801  0.00  0.00    +0.213 C 
ATOM     13  C   UNL     1      35.071 -20.554 -20.634  0.00  0.00    +0.101 C 
ATOM     14  C   UNL     1      36.394 -20.704 -20.280  0.00  0.00    +0.120 C 
ATOM     15  C   UNL     1      34.572 -19.853 -21.833  0.00  0.00    +0.063 C 
ATOM     16  H   UNL     1      34.889 -22.728 -17.057  0.00  0.00    +0.158 HD
ENDBRANCH   3  11
BRANCH   2  17
ATOM     17  S   UNL     1      35.199 -22.914 -15.348  0.00  0.00    -0.085 S 
BRANCH  17  19
ATOM     18  F   UNL     1      38.081 -26.604 -11.739  0.00  0.00    -0.204 F 
ATOM     19  C   UNL     1      36.068 -24.027 -14.260  0.00  0.00    +0.030 C 
ATOM     20  C   UNL     1      36.414 -23.615 -12.972  0.00  0.00    +0.009 C 
ATOM     21  C   UNL     1      36.403 -25.308 -14.696  0.00  0.00    +0.009 C 
ATOM     22  C   UNL     1      37.094 -24.486 -12.121  0.00  0.00    +0.030 C 
ATOM     23  C   UNL     1      37.083 -26.179 -13.844  0.00  0.00    +0.030 C 
ATOM     24  C   UNL     1      37.429 -25.768 -12.557  0.00  0.00    +0.140 C 
ENDBRANCH  17  19
ENDBRANCH   2  17
BRANCH   4  25
ATOM     25  S   UNL     1      29.348 -25.216 -15.070  0.00  0.00    -0.023 S 
BRANCH  25  29
ATOM     26  N   UNL     1      28.298 -22.845 -15.900  0.00  0.00    -0.246 N 
ATOM     27  N   UNL     1      28.078 -24.463 -17.357  0.00  0.00    -0.124 NA
ATOM     28  N   UNL     1      27.513 -23.319 -17.886  0.00  0.00    -0.128 NA
ATOM     29  C   UNL     1      28.513 -24.120 -16.207  0.00  0.00    +0.191 C 
ATOM     30  C   UNL     1      28.632 -22.089 -14.717  0.00  0.00    +0.121 C 
ATOM     31  C   UNL     1      27.654 -22.362 -16.998  0.00  0.00    +0.193 C 
ENDBRANCH  25  29
ENDBRANCH   4  25
TORSDOF 5
ENDMDL
MODEL 2
REMARK VINA RESULT:     -10.5      3.568      8.144
REMARK  Name = 10411846
REMARK  5 active torsions:
REMARK  status: ('A' for Active; 'I' for Inactive)
REMARK    1  A    between atoms: C_2  and  S_17
REMARK    2  A    between atoms: C_3  and  C_11
REMARK    3  A    between atoms: C_4  and  S_25
REMARK    4  A    between atoms: S_17  and  C_19
REMARK    5  A    between atoms: S_25  and  C_29
REMARK                            x       y       z     vdW  Elec       q    Type
REMARK                         _______ _______ _______ _____ _____    ______ ____
ROOT
ATOM      1  N   UNL     1      35.152 -22.682 -15.821  0.00  0.00    -0.394 NA
ATOM      2  C   UNL     1      35.299 -22.385 -18.210  0.00  0.00    +0.060 C 
ATOM      3  C   UNL     1      34.597 -22.671 -17.054  0.00  0.00    +0.191 C 
ATOM      4  C   UNL     1      36.471 -22.394 -15.753  0.00  0.00    +0.145 C 
ATOM      5  C   UNL     1      36.652 -22.093 -18.105  0.00  0.00    -0.009 C 
ATOM      6  C   UNL     1      37.257 -22.096 -16.854  0.00  0.00    +0.093 C 
ENDROOT
BRANCH   3  11
ATOM      7  S   UNL     1      31.133 -24.792 -14.159  0.00  0.00    -0.060 S 
ATOM      8  O   UNL     1      32.496 -22.657 -18.043  0.00  0.00    -0.267 OA
ATOM      9  N   UNL     1      32.697 -23.635 -15.915  0.00  0.00    -0.249 N 
ATOM     10  N   UNL     1      30.356 -23.857 -16.440  0.00  0.00    -0.388 NA
ATOM     11  C   UNL     1      33.175 -22.990 -17.062  0.00  0.00    +0.282 C 
ATOM     12  C   UNL     1      31.378 -24.024 -15.659  0.00  0.00    +0.213 C 
ATOM     13  C   UNL     1      29.248 -24.385 -15.805  0.00  0.00    +0.101 C 
ATOM     14  C   UNL     1      29.471 -24.935 -14.561  0.00  0.00    +0.120 C 
ATOM     15  C   UNL     1      27.946 -24.316 -16.497  0.00  0.00    +0.063 C 
ATOM     16  H   UNL     1      33.359 -23.836 -15.215  0.00  0.00    +0.158 HD
ENDBRANCH   3  11
BRANCH   2  17
ATOM     17  S   UNL     1      34.536 -22.377 -19.826  0.00  0.00    -0.085 S 
BRANCH  17  19
ATOM     18  F   UNL     1      35.509 -16.802 -21.535  0.00  0.00    -0.204 F 
ATOM     19  C   UNL     1      34.829 -20.697 -20.342  0.00  0.00    +0.030 C 
ATOM     20  C   UNL     1      33.752 -19.855 -20.621  0.00  0.00    +0.009 C 
ATOM     21  C   UNL     1      36.135 -20.224 -20.466  0.00  0.00    +0.009 C 
ATOM     22  C   UNL     1      33.982 -18.539 -21.024  0.00  0.00    +0.030 C 
ATOM     23  C   UNL     1      36.364 -18.908 -20.869  0.00  0.00    +0.030 C 
ATOM     24  C   UNL     1      35.288 -18.066 -21.148  0.00  0.00    +0.140 C 
ENDBRANCH  17  19
ENDBRANCH   2  17
BRANCH   4  25
ATOM     25  S   UNL     1      37.207 -22.408 -14.128  0.00  0.00    -0.023 S 
BRANCH  25  29
ATOM     26  N   UNL     1      36.691 -24.945 -13.284  0.00  0.00    -0.246 N 
ATOM     27  N   UNL     1      38.596 -24.740 -14.341  0.00  0.00    -0.124 NA
ATOM     28  N   UNL     1      38.446 -26.060 -13.966  0.00  0.00    -0.128 NA
ATOM     29  C   UNL     1      37.547 -24.149 -13.916  0.00  0.00    +0.191 C 
ATOM     30  C   UNL     1      35.416 -24.663 -12.670  0.00  0.00    +0.121 C 
ATOM     31  C   UNL     1      37.298 -26.162 -13.333  0.00  0.00    +0.193 C 
ENDBRANCH  25  29
ENDBRANCH   4  25
TORSDOF 5
ENDMDL
MODEL 3
REMARK VINA RESULT:     -10.4      2.165      5.950
REMARK  Name = 10411846
REMARK  5 active torsions:
REMARK  status: ('A' for Active; 'I' for Inactive)
REMARK    1  A    between atoms: C_2  and  S_17
REMARK    2  A    between atoms: C_3  and  C_11
REMARK    3  A    between atoms: C_4  and  S_25
REMARK    4  A    between atoms: S_17  and  C_19
REMARK    5  A    between atoms: S_25  and  C_29
REMARK                            x       y       z     vdW  Elec       q    Type
REMARK                         _______ _______ _______ _____ _____    ______ ____
ROOT
ATOM      1  N   UNL     1      34.891 -22.578 -17.831  0.00  0.00    -0.394 NA
ATOM      2  C   UNL     1      36.040 -22.579 -15.710  0.00  0.00    +0.060 C 
ATOM      3  C   UNL     1      34.961 -22.888 -16.517  0.00  0.00    +0.191 C 
ATOM      4  C   UNL     1      35.956 -21.927 -18.352  0.00  0.00    +0.145 C 
ATOM      5  C   UNL     1      37.116 -21.911 -16.276  0.00  0.00    -0.009 C 
ATOM      6  C   UNL     1      37.080 -21.574 -17.624  0.00  0.00    +0.093 C 
ENDROOT
BRANCH   3  11
ATOM      7  S   UNL     1      29.986 -22.533 -16.562  0.00  0.00    -0.060 S 
ATOM      8  O   UNL     1      33.944 -24.635 -15.372  0.00  0.00    -0.267 OA
ATOM      9  N   UNL     1      32.554 -23.006 -16.341  0.00  0.00    -0.249 N 
ATOM     10  N   UNL     1      31.015 -24.562 -15.335  0.00  0.00    -0.388 NA
ATOM     11  C   UNL     1      33.785 -23.587 -16.015  0.00  0.00    +0.282 C 
ATOM     12  C   UNL     1      31.283 -23.486 -16.008  0.00  0.00    +0.213 C 
ATOM     13  C   UNL     1      29.640 -24.664 -15.233  0.00  0.00    +0.101 C 
ATOM     14  C   UNL     1      28.915 -23.659 -15.835  0.00  0.00    +0.120 C 
ATOM     15  C   UNL     1      29.077 -25.818 -14.505  0.00  0.00    +0.063 C 
ATOM     16  H   UNL     1      32.587 -22.169 -16.859  0.00  0.00    +0.158 HD
ENDBRANCH   3  11
BRANCH   2  17
ATOM     17  S   UNL     1      36.102 -23.005 -13.975  0.00  0.00    -0.085 S 
BRANCH  17  19
ATOM     18  F   UNL     1      40.846 -26.529 -13.822  0.00  0.00    -0.204 F 
ATOM     19  C   UNL     1      37.532 -24.067 -13.929  0.00  0.00    +0.030 C 
ATOM     20  C   UNL     1      38.336 -24.204 -15.062  0.00  0.00    +0.009 C 
ATOM     21  C   UNL     1      37.847 -24.762 -12.762  0.00  0.00    +0.009 C 
ATOM     22  C   UNL     1      39.456 -25.036 -15.025  0.00  0.00    +0.030 C 
ATOM     23  C   UNL     1      38.967 -25.594 -12.726  0.00  0.00    +0.030 C 
ATOM     24  C   UNL     1      39.771 -25.731 -13.857  0.00  0.00    +0.140 C 
ENDBRANCH  17  19
ENDBRANCH   2  17
BRANCH   4  25
ATOM     25  S   UNL     1      35.867 -21.515 -20.086  0.00  0.00    -0.023 S 
BRANCH  25  29
ATOM     26  N   UNL     1      34.125 -19.541 -20.781  0.00  0.00    -0.246 N 
ATOM     27  N   UNL     1      33.197 -21.184 -19.674  0.00  0.00    -0.124 NA
ATOM     28  N   UNL     1      32.222 -20.252 -19.969  0.00  0.00    -0.128 NA
ATOM     29  C   UNL     1      34.273 -20.712 -20.171  0.00  0.00    +0.191 C 
ATOM     30  C   UNL     1      35.083 -18.699 -21.455  0.00  0.00    +0.121 C 
ATOM     31  C   UNL     1      32.798 -19.275 -20.632  0.00  0.00    +0.193 C 
ENDBRANCH  25  29
ENDBRANCH   4  25
TORSDOF 5
ENDMDL
MODEL 4
REMARK VINA RESULT:     -10.0      1.716      6.219
REMARK  Name = 10411846
REMARK  5 active torsions:
REMARK  status: ('A' for Active; 'I' for Inactive)
REMARK    1  A    between atoms: C_2  and  S_17
REMARK    2  A    between atoms: C_3  and  C_11
REMARK    3  A    between atoms: C_4  and  S_25
REMARK    4  A    between atoms: S_17  and  C_19
REMARK    5  A    between atoms: S_25  and  C_29
REMARK                            x       y       z     vdW  Elec       q    Type
REMARK                         _______ _______ _______ _____ _____    ______ ____
ROOT
ATOM      1  N   UNL     1      34.937 -22.124 -18.411  0.00  0.00    -0.394 NA
ATOM      2  C   UNL     1      35.583 -22.807 -16.190  0.00  0.00    +0.060 C 
ATOM      3  C   UNL     1      34.651 -22.648 -17.199  0.00  0.00    +0.191 C 
ATOM      4  C   UNL     1      36.219 -21.742 -18.613  0.00  0.00    +0.145 C 
ATOM      5  C   UNL     1      36.889 -22.405 -16.430  0.00  0.00    -0.009 C 
ATOM      6  C   UNL     1      37.221 -21.860 -17.665  0.00  0.00    +0.093 C 
ENDROOT
BRANCH   3  11
ATOM      7  S   UNL     1      31.611 -24.721 -13.831  0.00  0.00    -0.060 S 
ATOM      8  O   UNL     1      32.467 -22.816 -17.971  0.00  0.00    -0.267 OA
ATOM      9  N   UNL     1      32.928 -23.620 -15.812  0.00  0.00    -0.249 N 
ATOM     10  N   UNL     1      30.565 -24.000 -16.083  0.00  0.00    -0.388 NA
ATOM     11  C   UNL     1      33.256 -23.039 -17.042  0.00  0.00    +0.282 C 
ATOM     12  C   UNL     1      31.665 -24.056 -15.398  0.00  0.00    +0.213 C 
ATOM     13  C   UNL     1      29.556 -24.535 -15.304  0.00  0.00    +0.101 C 
ATOM     14  C   UNL     1      29.929 -24.978 -14.054  0.00  0.00    +0.120 C 
ATOM     15  C   UNL     1      28.192 -24.584 -15.866  0.00  0.00    +0.063 C 
ATOM     16  H   UNL     1      33.666 -23.735 -15.169  0.00  0.00    +0.158 HD
ENDBRANCH   3  11
BRANCH   2  17
ATOM     17  S   UNL     1      35.172 -23.506 -14.597  0.00  0.00    -0.085 S 
BRANCH  17  19
ATOM     18  F   UNL     1      40.191 -26.321 -13.244  0.00  0.00    -0.204 F 
ATOM     19  C   UNL     1      36.685 -24.354 -14.189  0.00  0.00    +0.030 C 
ATOM     20  C   UNL     1      37.082 -25.469 -14.930  0.00  0.00    +0.009 C 
ATOM     21  C   UNL     1      37.472 -23.906 -13.129  0.00  0.00    +0.009 C 
ATOM     22  C   UNL     1      38.267 -26.132 -14.611  0.00  0.00    +0.030 C 
ATOM     23  C   UNL     1      38.656 -24.570 -12.810  0.00  0.00    +0.030 C 
ATOM     24  C   UNL     1      39.054 -25.684 -13.551  0.00  0.00    +0.140 C 
ENDBRANCH  17  19
ENDBRANCH   2  17
BRANCH   4  25
ATOM     25  S   UNL     1      36.601 -21.048 -20.212  0.00  0.00    -0.023 S 
BRANCH  25  29
ATOM     26  N   UNL     1      35.096 -19.042 -21.272  0.00  0.00    -0.246 N 
ATOM     27  N   UNL     1      33.921 -20.569 -20.234  0.00  0.00    -0.124 NA
ATOM     28  N   UNL     1      33.055 -19.612 -20.726  0.00  0.00    -0.128 NA
ATOM     29  C   UNL     1      35.085 -20.179 -20.584  0.00  0.00    +0.191 C 
ATOM     30  C   UNL     1      36.190 -18.288 -21.836  0.00  0.00    +0.121 C 
ATOM     31  C   UNL     1      33.779 -18.706 -21.344  0.00  0.00    +0.193 C 
ENDBRANCH  25  29
ENDBRANCH   4  25
TORSDOF 5
ENDMDL
MODEL 5
REMARK VINA RESULT:      -9.4      3.763      8.147
REMARK  Name = 10411846
REMARK  5 active torsions:
REMARK  status: ('A' for Active; 'I' for Inactive)
REMARK    1  A    between atoms: C_2  and  S_17
REMARK    2  A    between atoms: C_3  and  C_11
REMARK    3  A    between atoms: C_4  and  S_25
REMARK    4  A    between atoms: S_17  and  C_19
REMARK    5  A    between atoms: S_25  and  C_29
REMARK                            x       y       z     vdW  Elec       q    Type
REMARK                         _______ _______ _______ _____ _____    ______ ____
ROOT
ATOM      1  N   UNL     1      35.466 -23.311 -14.673  0.00  0.00    -0.394 NA
ATOM      2  C   UNL     1      34.865 -22.804 -16.954  0.00  0.00    +0.060 C 
ATOM      3  C   UNL     1      34.590 -23.322 -15.702  0.00  0.00    +0.191 C 
ATOM      4  C   UNL     1      36.673 -22.752 -14.919  0.00  0.00    +0.145 C 
ATOM      5  C   UNL     1      36.113 -22.238 -17.172  0.00  0.00    -0.009 C 
ATOM      6  C   UNL     1      37.041 -22.208 -16.138  0.00  0.00    +0.093 C 
ENDROOT
BRANCH   3  11
ATOM      7  S   UNL     1      29.710 -22.657 -16.496  0.00  0.00    -0.060 S 
ATOM      8  O   UNL     1      33.303 -24.981 -14.708  0.00  0.00    -0.267 OA
ATOM      9  N   UNL     1      32.181 -23.286 -15.888  0.00  0.00    -0.249 N 
ATOM     10  N   UNL     1      30.412 -24.725 -15.111  0.00  0.00    -0.388 NA
ATOM     11  C   UNL     1      33.309 -23.938 -15.376  0.00  0.00    +0.282 C 
ATOM     12  C   UNL     1      30.847 -23.680 -15.745  0.00  0.00    +0.213 C 
ATOM     13  C   UNL     1      29.034 -24.739 -15.216  0.00  0.00    +0.101 C 
ATOM     14  C   UNL     1      28.472 -23.701 -15.928  0.00  0.00    +0.120 C 
ATOM     15  C   UNL     1      28.295 -25.842 -14.571  0.00  0.00    +0.063 C 
ATOM     16  H   UNL     1      32.344 -22.462 -16.402  0.00  0.00    +0.158 HD
ENDBRANCH   3  11
BRANCH   2  17
ATOM     17  S   UNL     1      33.683 -22.835 -18.294  0.00  0.00    -0.085 S 
BRANCH  17  19
ATOM     18  F   UNL     1      35.840 -18.618 -21.831  0.00  0.00    -0.204 F 
ATOM     19  C   UNL     1      34.333 -21.563 -19.360  0.00  0.00    +0.030 C 
ATOM     20  C   UNL     1      35.706 -21.489 -19.600  0.00  0.00    +0.009 C 
ATOM     21  C   UNL     1      33.470 -20.643 -19.954  0.00  0.00    +0.009 C 
ATOM     22  C   UNL     1      36.214 -20.493 -20.435  0.00  0.00    +0.030 C 
ATOM     23  C   UNL     1      33.979 -19.648 -20.789  0.00  0.00    +0.030 C 
ATOM     24  C   UNL     1      35.352 -19.573 -21.029  0.00  0.00    +0.140 C 
ENDBRANCH  17  19
ENDBRANCH   2  17
BRANCH   4  25
ATOM     25  S   UNL     1      37.834 -22.734 -13.564  0.00  0.00    -0.023 S 
BRANCH  25  29
ATOM     26  N   UNL     1      37.989 -25.448 -13.398  0.00  0.00    -0.246 N 
ATOM     27  N   UNL     1      36.890 -24.527 -11.745  0.00  0.00    -0.124 NA
ATOM     28  N   UNL     1      36.902 -25.894 -11.553  0.00  0.00    -0.128 NA
ATOM     29  C   UNL     1      37.535 -24.336 -12.830  0.00  0.00    +0.191 C 
ATOM     30  C   UNL     1      38.748 -25.648 -14.609  0.00  0.00    +0.121 C 
ATOM     31  C   UNL     1      37.565 -26.428 -12.554  0.00  0.00    +0.193 C 
ENDBRANCH  25  29
ENDBRANCH   4  25
TORSDOF 5
ENDMDL
MODEL 6
REMARK VINA RESULT:      -9.4      3.767      7.444
REMARK  Name = 10411846
REMARK  5 active torsions:
REMARK  status: ('A' for Active; 'I' for Inactive)
REMARK    1  A    between atoms: C_2  and  S_17
REMARK    2  A    between atoms: C_3  and  C_11
REMARK    3  A    between atoms: C_4  and  S_25
REMARK    4  A    between atoms: S_17  and  C_19
REMARK    5  A    between atoms: S_25  and  C_29
REMARK                            x       y       z     vdW  Elec       q    Type
REMARK                         _______ _______ _______ _____ _____    ______ ____
ROOT
ATOM      1  N   UNL     1      35.402 -22.388 -17.792  0.00  0.00    -0.394 NA
ATOM      2  C   UNL     1      33.502 -23.252 -16.583  0.00  0.00    +0.060 C 
ATOM      3  C   UNL     1      34.831 -22.883 -16.671  0.00  0.00    +0.191 C 
ATOM      4  C   UNL     1      34.596 -22.261 -18.870  0.00  0.00    +0.145 C 
ATOM      5  C   UNL     1      32.702 -23.108 -17.708  0.00  0.00    -0.009 C 
ATOM      6  C   UNL     1      33.254 -22.603 -18.879  0.00  0.00    +0.093 C 
ENDROOT
BRANCH   3  11
ATOM      7  S   UNL     1      37.973 -26.164 -14.611  0.00  0.00    -0.060 S 
ATOM      8  O   UNL     1      35.899 -22.021 -14.797  0.00  0.00    -0.267 OA
ATOM      9  N   UNL     1      36.411 -24.225 -15.431  0.00  0.00    -0.249 N 
ATOM     10  N   UNL     1      37.793 -23.839 -13.495  0.00  0.00    -0.388 NA
ATOM     11  C   UNL     1      35.749 -22.998 -15.545  0.00  0.00    +0.282 C 
ATOM     12  C   UNL     1      37.357 -24.584 -14.464  0.00  0.00    +0.213 C 
ATOM     13  C   UNL     1      38.715 -24.577 -12.778  0.00  0.00    +0.101 C 
ATOM     14  C   UNL     1      38.945 -25.859 -13.230  0.00  0.00    +0.120 C 
ATOM     15  C   UNL     1      39.362 -23.945 -11.612  0.00  0.00    +0.063 C 
ATOM     16  H   UNL     1      36.188 -24.910 -16.102  0.00  0.00    +0.158 HD
ENDBRANCH   3  11
BRANCH   2  17
ATOM     17  S   UNL     1      32.776 -23.903 -15.084  0.00  0.00    -0.085 S 
BRANCH  17  19
ATOM     18  F   UNL     1      27.028 -22.933 -16.068  0.00  0.00    -0.204 F 
ATOM     19  C   UNL     1      31.043 -23.611 -15.381  0.00  0.00    +0.030 C 
ATOM     20  C   UNL     1      30.480 -22.375 -15.060  0.00  0.00    +0.009 C 
ATOM     21  C   UNL     1      30.251 -24.617 -15.933  0.00  0.00    +0.009 C 
ATOM     22  C   UNL     1      29.123 -22.147 -15.293  0.00  0.00    +0.030 C 
ATOM     23  C   UNL     1      28.895 -24.388 -16.165  0.00  0.00    +0.030 C 
ATOM     24  C   UNL     1      28.331 -23.153 -15.844  0.00  0.00    +0.140 C 
ENDBRANCH  17  19
ENDBRANCH   2  17
BRANCH   4  25
ATOM     25  S   UNL     1      35.345 -21.608 -20.352  0.00  0.00    -0.023 S 
BRANCH  25  29
ATOM     26  N   UNL     1      34.915 -19.005 -21.022  0.00  0.00    -0.246 N 
ATOM     27  N   UNL     1      33.094 -20.082 -20.465  0.00  0.00    -0.124 NA
ATOM     28  N   UNL     1      32.752 -18.783 -20.782  0.00  0.00    -0.128 NA
ATOM     29  C   UNL     1      34.359 -20.144 -20.624  0.00  0.00    +0.191 C 
ATOM     30  C   UNL     1      36.290 -18.674 -21.307  0.00  0.00    +0.121 C 
ATOM     31  C   UNL     1      33.857 -18.153 -21.113  0.00  0.00    +0.193 C 
ENDBRANCH  25  29
ENDBRANCH   4  25
TORSDOF 5
ENDMDL
MODEL 7
REMARK VINA RESULT:      -9.3      8.292     13.064
REMARK  Name = 10411846
REMARK  5 active torsions:
REMARK  status: ('A' for Active; 'I' for Inactive)
REMARK    1  A    between atoms: C_2  and  S_17
REMARK    2  A    between atoms: C_3  and  C_11
REMARK    3  A    between atoms: C_4  and  S_25
REMARK    4  A    between atoms: S_17  and  C_19
REMARK    5  A    between atoms: S_25  and  C_29
REMARK                            x       y       z     vdW  Elec       q    Type
REMARK                         _______ _______ _______ _____ _____    ______ ____
ROOT
ATOM      1  N   UNL     1      34.633 -16.243 -22.265  0.00  0.00    -0.394 NA
ATOM      2  C   UNL     1      33.415 -15.095 -24.002  0.00  0.00    +0.060 C 
ATOM      3  C   UNL     1      33.802 -15.263 -22.686  0.00  0.00    +0.191 C 
ATOM      4  C   UNL     1      35.091 -17.090 -23.215  0.00  0.00    +0.145 C 
ATOM      5  C   UNL     1      33.904 -15.981 -24.951  0.00  0.00    -0.009 C 
ATOM      6  C   UNL     1      34.760 -17.002 -24.557  0.00  0.00    +0.093 C 
ENDROOT
BRANCH   3  11
ATOM      7  S   UNL     1      31.177 -11.071 -22.040  0.00  0.00    -0.060 S 
ATOM      8  O   UNL     1      33.609 -14.683 -20.445  0.00  0.00    -0.267 OA
ATOM      9  N   UNL     1      32.598 -13.274 -22.031  0.00  0.00    -0.249 N 
ATOM     10  N   UNL     1      32.071 -12.245 -19.917  0.00  0.00    -0.388 NA
ATOM     11  C   UNL     1      33.342 -14.385 -21.617  0.00  0.00    +0.282 C 
ATOM     12  C   UNL     1      32.021 -12.297 -21.212  0.00  0.00    +0.213 C 
ATOM     13  C   UNL     1      31.373 -11.123 -19.512  0.00  0.00    +0.101 C 
ATOM     14  C   UNL     1      30.818 -10.363 -20.519  0.00  0.00    +0.120 C 
ATOM     15  C   UNL     1      31.282 -10.840 -18.067  0.00  0.00    +0.063 C 
ATOM     16  H   UNL     1      32.467 -13.168 -23.001  0.00  0.00    +0.158 HD
ENDBRANCH   3  11
BRANCH   2  17
ATOM     17  S   UNL     1      32.315 -13.786 -24.526  0.00  0.00    -0.085 S 
BRANCH  17  19
ATOM     18  F   UNL     1      36.133  -9.958 -26.917  0.00  0.00    -0.204 F 
ATOM     19  C   UNL     1      33.466 -12.632 -25.247  0.00  0.00    +0.030 C 
ATOM     20  C   UNL     1      34.019 -11.618 -24.464  0.00  0.00    +0.009 C 
ATOM     21  C   UNL     1      33.813 -12.743 -26.593  0.00  0.00    +0.009 C 
ATOM     22  C   UNL     1      34.921 -10.715 -25.029  0.00  0.00    +0.030 C 
ATOM     23  C   UNL     1      34.714 -11.839 -27.157  0.00  0.00    +0.030 C 
ATOM     24  C   UNL     1      35.268 -10.825 -26.375  0.00  0.00    +0.140 C 
ENDBRANCH  17  19
ENDBRANCH   2  17
BRANCH   4  25
ATOM     25  S   UNL     1      36.187 -18.386 -22.665  0.00  0.00    -0.023 S 
BRANCH  25  29
ATOM     26  N   UNL     1      35.551 -20.064 -20.617  0.00  0.00    -0.246 N 
ATOM     27  N   UNL     1      33.828 -19.446 -21.816  0.00  0.00    -0.124 NA
ATOM     28  N   UNL     1      33.384 -20.288 -20.816  0.00  0.00    -0.128 NA
ATOM     29  C   UNL     1      35.090 -19.359 -21.645  0.00  0.00    +0.191 C 
ATOM     30  C   UNL     1      36.891 -20.222 -20.105  0.00  0.00    +0.121 C 
ATOM     31  C   UNL     1      34.431 -20.647 -20.109  0.00  0.00    +0.193 C 
ENDBRANCH  25  29
ENDBRANCH   4  25
TORSDOF 5
ENDMDL
MODEL 8
REMARK VINA RESULT:      -8.3      1.701      2.265
REMARK  Name = 10411846
REMARK  5 active torsions:
REMARK  status: ('A' for Active; 'I' for Inactive)
REMARK    1  A    between atoms: C_2  and  S_17
REMARK    2  A    between atoms: C_3  and  C_11
REMARK    3  A    between atoms: C_4  and  S_25
REMARK    4  A    between atoms: S_17  and  C_19
REMARK    5  A    between atoms: S_25  and  C_29
REMARK                            x       y       z     vdW  Elec       q    Type
REMARK                         _______ _______ _______ _____ _____    ______ ____
ROOT
ATOM      1  N   UNL     1      33.025 -23.394 -17.378  0.00  0.00    -0.394 NA
ATOM      2  C   UNL     1      34.912 -22.978 -15.935  0.00  0.00    +0.060 C 
ATOM      3  C   UNL     1      34.241 -22.857 -17.138  0.00  0.00    +0.191 C 
ATOM      4  C   UNL     1      32.461 -24.084 -16.360  0.00  0.00    +0.145 C 
ATOM      5  C   UNL     1      34.305 -23.692 -14.911  0.00  0.00    -0.009 C 
ATOM      6  C   UNL     1      33.054 -24.259 -15.121  0.00  0.00    +0.093 C 
ENDROOT
BRANCH   3  11
ATOM      7  S   UNL     1      32.799 -19.774 -20.784  0.00  0.00    -0.060 S 
ATOM      8  O   UNL     1      36.014 -22.204 -18.489  0.00  0.00    -0.267 OA
ATOM      9  N   UNL     1      33.878 -21.371 -19.008  0.00  0.00    -0.249 N 
ATOM     10  N   UNL     1      35.311 -20.371 -20.666  0.00  0.00    -0.388 NA
ATOM     11  C   UNL     1      34.796 -22.128 -18.272  0.00  0.00    +0.282 C 
ATOM     12  C   UNL     1      34.152 -20.565 -20.117  0.00  0.00    +0.213 C 
ATOM     13  C   UNL     1      35.136 -19.508 -21.731  0.00  0.00    +0.101 C 
ATOM     14  C   UNL     1      33.846 -19.077 -21.952  0.00  0.00    +0.120 C 
ATOM     15  C   UNL     1      36.321 -19.129 -22.525  0.00  0.00    +0.063 C 
ATOM     16  H   UNL     1      32.939 -21.411 -18.714  0.00  0.00    +0.158 HD
ENDBRANCH   3  11
BRANCH   2  17
ATOM     17  S   UNL     1      36.521 -22.254 -15.649  0.00  0.00    -0.085 S 
BRANCH  17  19
ATOM     18  F   UNL     1      38.886 -26.150 -11.883  0.00  0.00    -0.204 F 
ATOM     19  C   UNL     1      37.234 -23.429 -14.513  0.00  0.00    +0.030 C 
ATOM     20  C   UNL     1      37.842 -24.588 -14.999  0.00  0.00    +0.009 C 
ATOM     21  C   UNL     1      37.184 -23.190 -13.140  0.00  0.00    +0.009 C 
ATOM     22  C   UNL     1      38.400 -25.506 -14.109  0.00  0.00    +0.030 C 
ATOM     23  C   UNL     1      37.741 -24.109 -12.252  0.00  0.00    +0.030 C 
ATOM     24  C   UNL     1      38.350 -25.268 -12.736  0.00  0.00    +0.140 C 
ENDBRANCH  17  19
ENDBRANCH   2  17
BRANCH   4  25
ATOM     25  S   UNL     1      30.855 -24.795 -16.673  0.00  0.00    -0.023 S 
BRANCH  25  29
ATOM     26  N   UNL     1      29.545 -23.131 -14.961  0.00  0.00    -0.246 N 
ATOM     27  N   UNL     1      29.184 -22.683 -17.073  0.00  0.00    -0.124 NA
ATOM     28  N   UNL     1      28.474 -21.780 -16.307  0.00  0.00    -0.128 NA
ATOM     29  C   UNL     1      29.781 -23.437 -16.233  0.00  0.00    +0.191 C 
ATOM     30  C   UNL     1      30.024 -23.733 -13.740  0.00  0.00    +0.121 C 
ATOM     31  C   UNL     1      28.703 -22.065 -15.045  0.00  0.00    +0.193 C 
ENDBRANCH  25  29
ENDBRANCH   4  25
TORSDOF 5
ENDMDL
MODEL 9
REMARK VINA RESULT:      -7.9      3.905      7.696
REMARK  Name = 10411846
REMARK  5 active torsions:
REMARK  status: ('A' for Active; 'I' for Inactive)
REMARK    1  A    between atoms: C_2  and  S_17
REMARK    2  A    between atoms: C_3  and  C_11
REMARK    3  A    between atoms: C_4  and  S_25
REMARK    4  A    between atoms: S_17  and  C_19
REMARK    5  A    between atoms: S_25  and  C_29
REMARK                            x       y       z     vdW  Elec       q    Type
REMARK                         _______ _______ _______ _____ _____    ______ ____
ROOT
ATOM      1  N   UNL     1      35.528 -20.274 -19.536  0.00  0.00    -0.394 NA
ATOM      2  C   UNL     1      33.996 -22.109 -19.217  0.00  0.00    +0.060 C 
ATOM      3  C   UNL     1      35.212 -21.483 -19.020  0.00  0.00    +0.191 C 
ATOM      4  C   UNL     1      34.575 -19.672 -20.283  0.00  0.00    +0.145 C 
ATOM      5  C   UNL     1      33.040 -21.464 -19.989  0.00  0.00    -0.009 C 
ATOM      6  C   UNL     1      33.329 -20.220 -20.537  0.00  0.00    +0.093 C 
ENDROOT
BRANCH   3  11
ATOM      7  S   UNL     1      36.039 -23.244 -14.427  0.00  0.00    -0.060 S 
ATOM      8  O   UNL     1      37.376 -22.287 -18.763  0.00  0.00    -0.267 OA
ATOM      9  N   UNL     1      35.940 -22.396 -16.905  0.00  0.00    -0.249 N 
ATOM     10  N   UNL     1      37.995 -23.372 -16.112  0.00  0.00    -0.388 NA
ATOM     11  C   UNL     1      36.278 -22.080 -18.226  0.00  0.00    +0.282 C 
ATOM     12  C   UNL     1      36.764 -22.997 -15.947  0.00  0.00    +0.213 C 
ATOM     13  C   UNL     1      38.433 -23.917 -14.919  0.00  0.00    +0.101 C 
ATOM     14  C   UNL     1      37.515 -23.934 -13.891  0.00  0.00    +0.120 C 
ATOM     15  C   UNL     1      39.818 -24.423 -14.849  0.00  0.00    +0.063 C 
ATOM     16  H   UNL     1      35.025 -22.171 -16.619  0.00  0.00    +0.158 HD
ENDBRANCH   3  11
BRANCH   2  17
ATOM     17  S   UNL     1      33.608 -23.709 -18.519  0.00  0.00    -0.085 S 
BRANCH  17  19
ATOM     18  F   UNL     1      29.983 -22.192 -14.102  0.00  0.00    -0.204 F 
ATOM     19  C   UNL     1      32.515 -23.251 -17.187  0.00  0.00    +0.030 C 
ATOM     20  C   UNL     1      31.253 -22.727 -17.470  0.00  0.00    +0.009 C 
ATOM     21  C   UNL     1      32.922 -23.417 -15.864  0.00  0.00    +0.009 C 
ATOM     22  C   UNL     1      30.398 -22.369 -16.427  0.00  0.00    +0.030 C 
ATOM     23  C   UNL     1      32.066 -23.059 -14.822  0.00  0.00    +0.030 C 
ATOM     24  C   UNL     1      30.804 -22.535 -15.103  0.00  0.00    +0.140 C 
ENDBRANCH  17  19
ENDBRANCH   2  17
BRANCH   4  25
ATOM     25  S   UNL     1      34.989 -18.077 -20.967  0.00  0.00    -0.023 S 
BRANCH  25  29
ATOM     26  N   UNL     1      34.663 -17.408 -23.586  0.00  0.00    -0.246 N 
ATOM     27  N   UNL     1      34.875 -19.560 -23.247  0.00  0.00    -0.124 NA
ATOM     28  N   UNL     1      34.718 -19.345 -24.602  0.00  0.00    -0.128 NA
ATOM     29  C   UNL     1      34.833 -18.399 -22.718  0.00  0.00    +0.191 C 
ATOM     30  C   UNL     1      34.565 -15.982 -23.386  0.00  0.00    +0.121 C 
ATOM     31  C   UNL     1      34.592 -18.050 -24.785  0.00  0.00    +0.193 C 
ENDBRANCH  25  29
ENDBRANCH   4  25
TORSDOF 5
ENDMDL
