MODEL 1
REMARK VINA RESULT:      -7.4      0.000      0.000
REMARK  Name = 46937065
REMARK  9 active torsions:
REMARK  status: ('A' for Active; 'I' for Inactive)
REMARK    1  A    between atoms: C_1  and  N_2
REMARK    2  A    between atoms: C_1  and  C_6
REMARK    3  A    between atoms: C_1  and  C_15
REMARK    4  A    between atoms: C_6  and  C_7
REMARK    5  A    between atoms: C_7  and  C_8
REMARK    6  A    between atoms: C_8  and  N_9
REMARK    7  A    between atoms: C_8  and  O_13
REMARK    8  A    between atoms: C_15  and  C_16
REMARK    9  A    between atoms: C_21  and  O_22
REMARK                            x       y       z     vdW  Elec       q    Type
REMARK                         _______ _______ _______ _____ _____    ______ ____
ROOT
ATOM      1  C   UNL     1      35.169 -18.868 -23.011  0.00  0.00    -0.061 C 
ENDROOT
BRANCH   1   2
ATOM      2  N   UNL     1      36.313 -17.954 -22.935  0.00  0.00    +0.382 N 
ATOM      3  H   UNL     1      36.767 -17.900 -23.848  0.00  0.00    -0.089 HD
ATOM      4  H   UNL     1      36.979 -18.300 -22.244  0.00  0.00    -0.089 HD
ATOM      5  H   UNL     1      35.990 -17.026 -22.662  0.00  0.00    -0.089 HD
ENDBRANCH   1   2
BRANCH   1   6
ATOM      6  C   UNL     1      34.410 -18.658 -24.339  0.00  0.00    -0.021 C 
BRANCH   6   7
ATOM      7  C   UNL     1      34.855 -17.437 -25.161  0.00  0.00    +0.004 C 
BRANCH   7   8
ATOM      8  C   UNL     1      33.819 -16.306 -25.111  0.00  0.00    +0.051 C 
BRANCH   8   9
ATOM      9  N   UNL     1      34.149 -15.381 -24.032  0.00  0.00    +0.398 N 
ATOM     10  H   UNL     1      33.493 -14.601 -24.041  0.00  0.00    -0.086 HD
ATOM     11  H   UNL     1      35.097 -15.029 -24.166  0.00  0.00    -0.086 HD
ATOM     12  H   UNL     1      34.090 -15.866 -23.137  0.00  0.00    -0.086 HD
ENDBRANCH   8   9
BRANCH   8  13
ATOM     13  O   UNL     1      33.791 -15.640 -26.367  0.00  0.00    -0.406 OA
ATOM     14  H   UNL     1      33.963 -16.278 -27.076  0.00  0.00    +0.207 HD
ENDBRANCH   8  13
ENDBRANCH   7   8
ENDBRANCH   6   7
ENDBRANCH   1   6
BRANCH   1  15
ATOM     15  C   UNL     1      34.309 -18.692 -21.744  0.00  0.00    +0.005 C 
BRANCH  15  16
ATOM     16  C   UNL     1      34.365 -19.870 -20.801  0.00  0.00    -0.024 C 
ATOM     17  C   UNL     1      35.596 -20.425 -20.451  0.00  0.00    -0.001 C 
ATOM     18  C   UNL     1      33.185 -20.404 -20.282  0.00  0.00    -0.001 C 
ATOM     19  C   UNL     1      35.646 -21.513 -19.579  0.00  0.00    +0.036 C 
ATOM     20  C   UNL     1      33.237 -21.492 -19.411  0.00  0.00    +0.036 C 
ATOM     21  C   UNL     1      34.468 -22.047 -19.060  0.00  0.00    +0.134 C 
BRANCH  21  22
ATOM     22  O   UNL     1      34.518 -23.108 -18.209  0.00  0.00    -0.506 OA
ATOM     23  H   UNL     1      34.491 -22.967 -17.283  0.00  0.00    +0.292 HD
ENDBRANCH  21  22
ENDBRANCH  15  16
ENDBRANCH   1  15
TORSDOF 9
ENDMDL
MODEL 2
REMARK VINA RESULT:      -7.4      2.131      2.719
REMARK  Name = 46937065
REMARK  9 active torsions:
REMARK  status: ('A' for Active; 'I' for Inactive)
REMARK    1  A    between atoms: C_1  and  N_2
REMARK    2  A    between atoms: C_1  and  C_6
REMARK    3  A    between atoms: C_1  and  C_15
REMARK    4  A    between atoms: C_6  and  C_7
REMARK    5  A    between atoms: C_7  and  C_8
REMARK    6  A    between atoms: C_8  and  N_9
REMARK    7  A    between atoms: C_8  and  O_13
REMARK    8  A    between atoms: C_15  and  C_16
REMARK    9  A    between atoms: C_21  and  O_22
REMARK                            x       y       z     vdW  Elec       q    Type
REMARK                         _______ _______ _______ _____ _____    ______ ____
ROOT
ATOM      1  C   UNL     1      35.032 -17.376 -22.272  0.00  0.00    -0.061 C 
ENDROOT
BRANCH   1   2
ATOM      2  N   UNL     1      35.664 -16.870 -23.494  0.00  0.00    +0.382 N 
ATOM      3  H   UNL     1      36.606 -16.540 -23.279  0.00  0.00    -0.089 HD
ATOM      4  H   UNL     1      35.111 -16.098 -23.869  0.00  0.00    -0.089 HD
ATOM      5  H   UNL     1      35.717 -17.618 -24.185  0.00  0.00    -0.089 HD
ENDBRANCH   1   2
BRANCH   1   6
ATOM      6  C   UNL     1      34.823 -16.223 -21.267  0.00  0.00    -0.021 C 
BRANCH   6   7
ATOM      7  C   UNL     1      33.412 -15.610 -21.258  0.00  0.00    +0.004 C 
BRANCH   7   8
ATOM      8  C   UNL     1      33.228 -14.585 -22.385  0.00  0.00    +0.051 C 
BRANCH   8   9
ATOM      9  N   UNL     1      32.255 -13.575 -21.981  0.00  0.00    +0.398 N 
ATOM     10  H   UNL     1      31.423 -13.653 -22.565  0.00  0.00    -0.086 HD
ATOM     11  H   UNL     1      32.663 -12.647 -22.093  0.00  0.00    -0.086 HD
ATOM     12  H   UNL     1      32.001 -13.719 -21.004  0.00  0.00    -0.086 HD
ENDBRANCH   8   9
BRANCH   8  13
ATOM     13  O   UNL     1      34.485 -13.992 -22.689  0.00  0.00    -0.406 OA
ATOM     14  H   UNL     1      35.066 -14.654 -23.095  0.00  0.00    +0.207 HD
ENDBRANCH   8  13
ENDBRANCH   7   8
ENDBRANCH   6   7
ENDBRANCH   1   6
BRANCH   1  15
ATOM     15  C   UNL     1      35.867 -18.554 -21.734  0.00  0.00    +0.005 C 
BRANCH  15  16
ATOM     16  C   UNL     1      35.058 -19.574 -20.968  0.00  0.00    -0.024 C 
ATOM     17  C   UNL     1      33.664 -19.521 -20.993  0.00  0.00    -0.001 C 
ATOM     18  C   UNL     1      35.706 -20.568 -20.234  0.00  0.00    -0.001 C 
ATOM     19  C   UNL     1      32.918 -20.463 -20.285  0.00  0.00    +0.036 C 
ATOM     20  C   UNL     1      34.959 -21.510 -19.526  0.00  0.00    +0.036 C 
ATOM     21  C   UNL     1      33.565 -21.457 -19.552  0.00  0.00    +0.134 C 
BRANCH  21  22
ATOM     22  O   UNL     1      32.837 -22.377 -18.861  0.00  0.00    -0.506 OA
ATOM     23  H   UNL     1      32.363 -23.040 -19.323  0.00  0.00    +0.292 HD
ENDBRANCH  21  22
ENDBRANCH  15  16
ENDBRANCH   1  15
TORSDOF 9
ENDMDL
MODEL 3
REMARK VINA RESULT:      -7.3      1.186      1.429
REMARK  Name = 46937065
REMARK  9 active torsions:
REMARK  status: ('A' for Active; 'I' for Inactive)
REMARK    1  A    between atoms: C_1  and  N_2
REMARK    2  A    between atoms: C_1  and  C_6
REMARK    3  A    between atoms: C_1  and  C_15
REMARK    4  A    between atoms: C_6  and  C_7
REMARK    5  A    between atoms: C_7  and  C_8
REMARK    6  A    between atoms: C_8  and  N_9
REMARK    7  A    between atoms: C_8  and  O_13
REMARK    8  A    between atoms: C_15  and  C_16
REMARK    9  A    between atoms: C_21  and  O_22
REMARK                            x       y       z     vdW  Elec       q    Type
REMARK                         _______ _______ _______ _____ _____    ______ ____
ROOT
ATOM      1  C   UNL     1      35.552 -18.528 -21.366  0.00  0.00    -0.061 C 
ENDROOT
BRANCH   1   2
ATOM      2  N   UNL     1      35.250 -17.261 -20.693  0.00  0.00    +0.382 N 
ATOM      3  H   UNL     1      35.653 -17.269 -19.755  0.00  0.00    -0.089 HD
ATOM      4  H   UNL     1      34.238 -17.144 -20.627  0.00  0.00    -0.089 HD
ATOM      5  H   UNL     1      35.648 -16.489 -21.226  0.00  0.00    -0.089 HD
ENDBRANCH   1   2
BRANCH   1   6
ATOM      6  C   UNL     1      36.105 -18.257 -22.781  0.00  0.00    -0.021 C 
BRANCH   6   7
ATOM      7  C   UNL     1      35.117 -18.516 -23.931  0.00  0.00    +0.004 C 
BRANCH   7   8
ATOM      8  C   UNL     1      34.560 -17.208 -24.510  0.00  0.00    +0.051 C 
BRANCH   8   9
ATOM      9  N   UNL     1      35.283 -16.072 -23.948  0.00  0.00    +0.398 N 
ATOM     10  H   UNL     1      35.869 -15.652 -24.669  0.00  0.00    -0.086 HD
ATOM     11  H   UNL     1      35.869 -16.390 -23.176  0.00  0.00    -0.086 HD
ATOM     12  H   UNL     1      34.617 -15.380 -23.606  0.00  0.00    -0.086 HD
ENDBRANCH   8   9
BRANCH   8  13
ATOM     13  O   UNL     1      34.674 -17.237 -25.927  0.00  0.00    -0.406 OA
ATOM     14  H   UNL     1      35.507 -16.818 -26.194  0.00  0.00    +0.207 HD
ENDBRANCH   8  13
ENDBRANCH   7   8
ENDBRANCH   6   7
ENDBRANCH   1   6
BRANCH   1  15
ATOM     15  C   UNL     1      34.297 -19.422 -21.327  0.00  0.00    +0.005 C 
BRANCH  15  16
ATOM     16  C   UNL     1      34.352 -20.502 -20.273  0.00  0.00    -0.024 C 
ATOM     17  C   UNL     1      35.583 -20.942 -19.787  0.00  0.00    -0.001 C 
ATOM     18  C   UNL     1      33.169 -21.062 -19.786  0.00  0.00    -0.001 C 
ATOM     19  C   UNL     1      35.632 -21.940 -18.814  0.00  0.00    +0.036 C 
ATOM     20  C   UNL     1      33.219 -22.060 -18.813  0.00  0.00    +0.036 C 
ATOM     21  C   UNL     1      34.451 -22.499 -18.327  0.00  0.00    +0.134 C 
BRANCH  21  22
ATOM     22  O   UNL     1      34.499 -23.472 -17.376  0.00  0.00    -0.506 OA
ATOM     23  H   UNL     1      33.728 -23.691 -16.892  0.00  0.00    +0.292 HD
ENDBRANCH  21  22
ENDBRANCH  15  16
ENDBRANCH   1  15
TORSDOF 9
ENDMDL
MODEL 4
REMARK VINA RESULT:      -7.2      2.372      6.781
REMARK  Name = 46937065
REMARK  9 active torsions:
REMARK  status: ('A' for Active; 'I' for Inactive)
REMARK    1  A    between atoms: C_1  and  N_2
REMARK    2  A    between atoms: C_1  and  C_6
REMARK    3  A    between atoms: C_1  and  C_15
REMARK    4  A    between atoms: C_6  and  C_7
REMARK    5  A    between atoms: C_7  and  C_8
REMARK    6  A    between atoms: C_8  and  N_9
REMARK    7  A    between atoms: C_8  and  O_13
REMARK    8  A    between atoms: C_15  and  C_16
REMARK    9  A    between atoms: C_21  and  O_22
REMARK                            x       y       z     vdW  Elec       q    Type
REMARK                         _______ _______ _______ _____ _____    ______ ____
ROOT
ATOM      1  C   UNL     1      34.317 -20.293 -20.745  0.00  0.00    -0.061 C 
ENDROOT
BRANCH   1   2
ATOM      2  N   UNL     1      32.953 -19.901 -20.376  0.00  0.00    +0.382 N 
ATOM      3  H   UNL     1      32.926 -19.655 -19.387  0.00  0.00    -0.089 HD
ATOM      4  H   UNL     1      32.317 -20.680 -20.550  0.00  0.00    -0.089 HD
ATOM      5  H   UNL     1      32.668 -19.097 -20.934  0.00  0.00    -0.089 HD
ENDBRANCH   1   2
BRANCH   1   6
ATOM      6  C   UNL     1      34.874 -21.304 -19.721  0.00  0.00    -0.021 C 
BRANCH   6   7
ATOM      7  C   UNL     1      36.353 -21.109 -19.346  0.00  0.00    +0.004 C 
BRANCH   7   8
ATOM      8  C   UNL     1      36.705 -21.813 -18.028  0.00  0.00    +0.051 C 
BRANCH   8   9
ATOM      9  N   UNL     1      37.184 -20.834 -17.058  0.00  0.00    +0.398 N 
ATOM     10  H   UNL     1      36.392 -20.455 -16.539  0.00  0.00    -0.086 HD
ATOM     11  H   UNL     1      37.663 -20.078 -17.547  0.00  0.00    -0.086 HD
ATOM     12  H   UNL     1      37.832 -21.284 -16.412  0.00  0.00    -0.086 HD
ENDBRANCH   8   9
BRANCH   8  13
ATOM     13  O   UNL     1      35.557 -22.497 -17.541  0.00  0.00    -0.406 OA
ATOM     14  H   UNL     1      35.799 -23.403 -17.297  0.00  0.00    +0.207 HD
ENDBRANCH   8  13
ENDBRANCH   7   8
ENDBRANCH   6   7
ENDBRANCH   1   6
BRANCH   1  15
ATOM     15  C   UNL     1      35.169 -19.020 -20.919  0.00  0.00    +0.005 C 
BRANCH  15  16
ATOM     16  C   UNL     1      35.006 -18.358 -22.267  0.00  0.00    -0.024 C 
ATOM     17  C   UNL     1      35.096 -16.971 -22.379  0.00  0.00    -0.001 C 
ATOM     18  C   UNL     1      34.764 -19.136 -23.400  0.00  0.00    -0.001 C 
ATOM     19  C   UNL     1      34.946 -16.361 -23.625  0.00  0.00    +0.036 C 
ATOM     20  C   UNL     1      34.613 -18.526 -24.645  0.00  0.00    +0.036 C 
ATOM     21  C   UNL     1      34.704 -17.138 -24.757  0.00  0.00    +0.134 C 
BRANCH  21  22
ATOM     22  O   UNL     1      34.558 -16.543 -25.973  0.00  0.00    -0.506 OA
ATOM     23  H   UNL     1      35.179 -16.712 -26.654  0.00  0.00    +0.292 HD
ENDBRANCH  21  22
ENDBRANCH  15  16
ENDBRANCH   1  15
TORSDOF 9
ENDMDL
MODEL 5
REMARK VINA RESULT:      -6.9      3.240      6.597
REMARK  Name = 46937065
REMARK  9 active torsions:
REMARK  status: ('A' for Active; 'I' for Inactive)
REMARK    1  A    between atoms: C_1  and  N_2
REMARK    2  A    between atoms: C_1  and  C_6
REMARK    3  A    between atoms: C_1  and  C_15
REMARK    4  A    between atoms: C_6  and  C_7
REMARK    5  A    between atoms: C_7  and  C_8
REMARK    6  A    between atoms: C_8  and  N_9
REMARK    7  A    between atoms: C_8  and  O_13
REMARK    8  A    between atoms: C_15  and  C_16
REMARK    9  A    between atoms: C_21  and  O_22
REMARK                            x       y       z     vdW  Elec       q    Type
REMARK                         _______ _______ _______ _____ _____    ______ ____
ROOT
ATOM      1  C   UNL     1      34.951 -18.275 -21.183  0.00  0.00    -0.061 C 
ENDROOT
BRANCH   1   2
ATOM      2  N   UNL     1      36.243 -18.728 -20.658  0.00  0.00    +0.382 N 
ATOM      3  H   UNL     1      36.114 -19.117 -19.723  0.00  0.00    -0.089 HD
ATOM      4  H   UNL     1      36.887 -17.938 -20.612  0.00  0.00    -0.089 HD
ATOM      5  H   UNL     1      36.628 -19.445 -21.273  0.00  0.00    -0.089 HD
ENDBRANCH   1   2
BRANCH   1   6
ATOM      6  C   UNL     1      34.117 -19.486 -21.654  0.00  0.00    -0.021 C 
BRANCH   6   7
ATOM      7  C   UNL     1      33.082 -20.003 -20.640  0.00  0.00    +0.004 C 
BRANCH   7   8
ATOM      8  C   UNL     1      33.708 -20.975 -19.631  0.00  0.00    +0.051 C 
BRANCH   8   9
ATOM      9  N   UNL     1      32.827 -22.121 -19.437  0.00  0.00    +0.398 N 
ATOM     10  H   UNL     1      32.570 -22.510 -20.344  0.00  0.00    -0.086 HD
ATOM     11  H   UNL     1      31.985 -21.822 -18.944  0.00  0.00    -0.086 HD
ATOM     12  H   UNL     1      33.308 -22.831 -18.886  0.00  0.00    -0.086 HD
ENDBRANCH   8   9
BRANCH   8  13
ATOM     13  O   UNL     1      34.984 -21.386 -20.107  0.00  0.00    -0.406 OA
ATOM     14  H   UNL     1      35.558 -20.611 -20.204  0.00  0.00    +0.207 HD
ENDBRANCH   8  13
ENDBRANCH   7   8
ENDBRANCH   6   7
ENDBRANCH   1   6
BRANCH   1  15
ATOM     15  C   UNL     1      35.202 -17.207 -22.265  0.00  0.00    +0.005 C 
BRANCH  15  16
ATOM     16  C   UNL     1      34.248 -16.039 -22.201  0.00  0.00    -0.024 C 
ATOM     17  C   UNL     1      34.009 -15.269 -23.339  0.00  0.00    -0.001 C 
ATOM     18  C   UNL     1      33.606 -15.729 -21.001  0.00  0.00    -0.001 C 
ATOM     19  C   UNL     1      33.127 -14.190 -23.278  0.00  0.00    +0.036 C 
ATOM     20  C   UNL     1      32.725 -14.649 -20.941  0.00  0.00    +0.036 C 
ATOM     21  C   UNL     1      32.485 -13.880 -22.080  0.00  0.00    +0.134 C 
BRANCH  21  22
ATOM     22  O   UNL     1      31.624 -12.827 -22.021  0.00  0.00    -0.506 OA
ATOM     23  H   UNL     1      31.788 -12.059 -22.531  0.00  0.00    +0.292 HD
ENDBRANCH  21  22
ENDBRANCH  15  16
ENDBRANCH   1  15
TORSDOF 9
ENDMDL
MODEL 6
REMARK VINA RESULT:      -6.9      2.376      6.771
REMARK  Name = 46937065
REMARK  9 active torsions:
REMARK  status: ('A' for Active; 'I' for Inactive)
REMARK    1  A    between atoms: C_1  and  N_2
REMARK    2  A    between atoms: C_1  and  C_6
REMARK    3  A    between atoms: C_1  and  C_15
REMARK    4  A    between atoms: C_6  and  C_7
REMARK    5  A    between atoms: C_7  and  C_8
REMARK    6  A    between atoms: C_8  and  N_9
REMARK    7  A    between atoms: C_8  and  O_13
REMARK    8  A    between atoms: C_15  and  C_16
REMARK    9  A    between atoms: C_21  and  O_22
REMARK                            x       y       z     vdW  Elec       q    Type
REMARK                         _______ _______ _______ _____ _____    ______ ____
ROOT
ATOM      1  C   UNL     1      35.203 -19.245 -20.909  0.00  0.00    -0.061 C 
ENDROOT
BRANCH   1   2
ATOM      2  N   UNL     1      36.564 -19.415 -20.391  0.00  0.00    +0.382 N 
ATOM      3  H   UNL     1      37.232 -19.023 -21.055  0.00  0.00    -0.089 HD
ATOM      4  H   UNL     1      36.758 -20.409 -20.261  0.00  0.00    -0.089 HD
ATOM      5  H   UNL     1      36.652 -18.932 -19.497  0.00  0.00    -0.089 HD
ENDBRANCH   1   2
BRANCH   1   6
ATOM      6  C   UNL     1      34.309 -20.413 -20.440  0.00  0.00    -0.021 C 
BRANCH   6   7
ATOM      7  C   UNL     1      35.010 -21.462 -19.560  0.00  0.00    +0.004 C 
BRANCH   7   8
ATOM      8  C   UNL     1      34.004 -22.404 -18.885  0.00  0.00    +0.051 C 
BRANCH   8   9
ATOM      9  N   UNL     1      32.670 -21.814 -18.926  0.00  0.00    +0.398 N 
ATOM     10  H   UNL     1      32.164 -22.058 -18.075  0.00  0.00    -0.086 HD
ATOM     11  H   UNL     1      32.165 -22.173 -19.736  0.00  0.00    -0.086 HD
ATOM     12  H   UNL     1      32.748 -20.800 -18.997  0.00  0.00    -0.086 HD
ENDBRANCH   8   9
BRANCH   8  13
ATOM     13  O   UNL     1      34.026 -23.665 -19.544  0.00  0.00    -0.406 OA
ATOM     14  H   UNL     1      33.120 -23.997 -19.639  0.00  0.00    +0.207 HD
ENDBRANCH   8  13
ENDBRANCH   7   8
ENDBRANCH   6   7
ENDBRANCH   1   6
BRANCH   1  15
ATOM     15  C   UNL     1      35.273 -19.063 -22.438  0.00  0.00    +0.005 C 
BRANCH  15  16
ATOM     16  C   UNL     1      34.883 -17.681 -22.904  0.00  0.00    -0.024 C 
ATOM     17  C   UNL     1      34.704 -16.655 -21.976  0.00  0.00    -0.001 C 
ATOM     18  C   UNL     1      34.700 -17.431 -24.265  0.00  0.00    -0.001 C 
ATOM     19  C   UNL     1      34.343 -15.379 -22.409  0.00  0.00    +0.036 C 
ATOM     20  C   UNL     1      34.339 -16.155 -24.697  0.00  0.00    +0.036 C 
ATOM     21  C   UNL     1      34.161 -15.128 -23.768  0.00  0.00    +0.134 C 
BRANCH  21  22
ATOM     22  O   UNL     1      33.810 -13.883 -24.190  0.00  0.00    -0.506 OA
ATOM     23  H   UNL     1      34.449 -13.198 -24.210  0.00  0.00    +0.292 HD
ENDBRANCH  21  22
ENDBRANCH  15  16
ENDBRANCH   1  15
TORSDOF 9
ENDMDL
MODEL 7
REMARK VINA RESULT:      -6.8      5.274      8.906
REMARK  Name = 46937065
REMARK  9 active torsions:
REMARK  status: ('A' for Active; 'I' for Inactive)
REMARK    1  A    between atoms: C_1  and  N_2
REMARK    2  A    between atoms: C_1  and  C_6
REMARK    3  A    between atoms: C_1  and  C_15
REMARK    4  A    between atoms: C_6  and  C_7
REMARK    5  A    between atoms: C_7  and  C_8
REMARK    6  A    between atoms: C_8  and  N_9
REMARK    7  A    between atoms: C_8  and  O_13
REMARK    8  A    between atoms: C_15  and  C_16
REMARK    9  A    between atoms: C_21  and  O_22
REMARK                            x       y       z     vdW  Elec       q    Type
REMARK                         _______ _______ _______ _____ _____    ______ ____
ROOT
ATOM      1  C   UNL     1      33.214 -23.059 -16.495  0.00  0.00    -0.061 C 
ENDROOT
BRANCH   1   2
ATOM      2  N   UNL     1      34.273 -23.573 -15.620  0.00  0.00    +0.382 N 
ATOM      3  H   UNL     1      35.086 -23.826 -16.183  0.00  0.00    -0.089 HD
ATOM      4  H   UNL     1      33.934 -24.397 -15.124  0.00  0.00    -0.089 HD
ATOM      5  H   UNL     1      34.537 -22.854 -14.947  0.00  0.00    -0.089 HD
ENDBRANCH   1   2
BRANCH   1   6
ATOM      6  C   UNL     1      31.833 -23.525 -15.985  0.00  0.00    -0.021 C 
BRANCH   6   7
ATOM      7  C   UNL     1      31.587 -23.318 -14.481  0.00  0.00    +0.004 C 
BRANCH   7   8
ATOM      8  C   UNL     1      31.331 -24.647 -13.756  0.00  0.00    +0.051 C 
BRANCH   8   9
ATOM      9  N   UNL     1      30.151 -25.297 -14.317  0.00  0.00    +0.398 N 
ATOM     10  H   UNL     1      29.312 -24.813 -13.995  0.00  0.00    -0.086 HD
ATOM     11  H   UNL     1      30.121 -26.269 -14.011  0.00  0.00    -0.086 HD
ATOM     12  H   UNL     1      30.195 -25.262 -15.335  0.00  0.00    -0.086 HD
ENDBRANCH   8   9
BRANCH   8  13
ATOM     13  O   UNL     1      32.480 -25.477 -13.881  0.00  0.00    -0.406 OA
ATOM     14  H   UNL     1      32.559 -25.785 -14.797  0.00  0.00    +0.207 HD
ENDBRANCH   8  13
ENDBRANCH   7   8
ENDBRANCH   6   7
ENDBRANCH   1   6
BRANCH   1  15
ATOM     15  C   UNL     1      33.532 -23.463 -17.948  0.00  0.00    +0.005 C 
BRANCH  15  16
ATOM     16  C   UNL     1      33.972 -22.309 -18.818  0.00  0.00    -0.024 C 
ATOM     17  C   UNL     1      33.021 -21.492 -19.428  0.00  0.00    -0.001 C 
ATOM     18  C   UNL     1      35.332 -22.063 -19.012  0.00  0.00    -0.001 C 
ATOM     19  C   UNL     1      33.429 -20.427 -20.231  0.00  0.00    +0.036 C 
ATOM     20  C   UNL     1      35.739 -20.998 -19.815  0.00  0.00    +0.036 C 
ATOM     21  C   UNL     1      34.787 -20.180 -20.424  0.00  0.00    +0.134 C 
BRANCH  21  22
ATOM     22  O   UNL     1      35.185 -19.140 -21.207  0.00  0.00    -0.506 OA
ATOM     23  H   UNL     1      34.643 -18.852 -21.915  0.00  0.00    +0.292 HD
ENDBRANCH  21  22
ENDBRANCH  15  16
ENDBRANCH   1  15
TORSDOF 9
ENDMDL
MODEL 8
REMARK VINA RESULT:      -6.7      8.155     10.707
REMARK  Name = 46937065
REMARK  9 active torsions:
REMARK  status: ('A' for Active; 'I' for Inactive)
REMARK    1  A    between atoms: C_1  and  N_2
REMARK    2  A    between atoms: C_1  and  C_6
REMARK    3  A    between atoms: C_1  and  C_15
REMARK    4  A    between atoms: C_6  and  C_7
REMARK    5  A    between atoms: C_7  and  C_8
REMARK    6  A    between atoms: C_8  and  N_9
REMARK    7  A    between atoms: C_8  and  O_13
REMARK    8  A    between atoms: C_15  and  C_16
REMARK    9  A    between atoms: C_21  and  O_22
REMARK                            x       y       z     vdW  Elec       q    Type
REMARK                         _______ _______ _______ _____ _____    ______ ____
ROOT
ATOM      1  C   UNL     1      35.881 -24.735 -14.979  0.00  0.00    -0.061 C 
ENDROOT
BRANCH   1   2
ATOM      2  N   UNL     1      35.693 -26.189 -15.023  0.00  0.00    +0.382 N 
ATOM      3  H   UNL     1      36.488 -26.621 -15.495  0.00  0.00    -0.089 HD
ATOM      4  H   UNL     1      34.837 -26.406 -15.534  0.00  0.00    -0.089 HD
ATOM      5  H   UNL     1      35.624 -26.553 -14.073  0.00  0.00    -0.089 HD
ENDBRANCH   1   2
BRANCH   1   6
ATOM      6  C   UNL     1      37.308 -24.400 -14.497  0.00  0.00    -0.021 C 
BRANCH   6   7
ATOM      7  C   UNL     1      38.109 -25.591 -13.942  0.00  0.00    +0.004 C 
BRANCH   7   8
ATOM      8  C   UNL     1      38.007 -25.685 -12.414  0.00  0.00    +0.051 C 
BRANCH   8   9
ATOM      9  N   UNL     1      37.990 -24.345 -11.836  0.00  0.00    +0.398 N 
ATOM     10  H   UNL     1      38.806 -24.223 -11.238  0.00  0.00    -0.086 HD
ATOM     11  H   UNL     1      37.141 -24.225 -11.283  0.00  0.00    -0.086 HD
ATOM     12  H   UNL     1      38.008 -23.652 -12.584  0.00  0.00    -0.086 HD
ENDBRANCH   8   9
BRANCH   8  13
ATOM     13  O   UNL     1      36.832 -26.407 -12.066  0.00  0.00    -0.406 OA
ATOM     14  H   UNL     1      37.069 -27.159 -11.501  0.00  0.00    +0.207 HD
ENDBRANCH   8  13
ENDBRANCH   7   8
ENDBRANCH   6   7
ENDBRANCH   1   6
BRANCH   1  15
ATOM     15  C   UNL     1      34.753 -24.116 -14.129  0.00  0.00    +0.005 C 
BRANCH  15  16
ATOM     16  C   UNL     1      33.557 -23.671 -14.936  0.00  0.00    -0.024 C 
ATOM     17  C   UNL     1      32.334 -23.444 -14.305  0.00  0.00    -0.001 C 
ATOM     18  C   UNL     1      33.676 -23.489 -16.315  0.00  0.00    -0.001 C 
ATOM     19  C   UNL     1      31.230 -23.033 -15.052  0.00  0.00    +0.036 C 
ATOM     20  C   UNL     1      32.571 -23.078 -17.061  0.00  0.00    +0.036 C 
ATOM     21  C   UNL     1      31.348 -22.850 -16.429  0.00  0.00    +0.134 C 
BRANCH  21  22
ATOM     22  O   UNL     1      30.271 -22.448 -17.158  0.00  0.00    -0.506 OA
ATOM     23  H   UNL     1      29.440 -22.861 -17.031  0.00  0.00    +0.292 HD
ENDBRANCH  21  22
ENDBRANCH  15  16
ENDBRANCH   1  15
TORSDOF 9
ENDMDL
MODEL 9
REMARK VINA RESULT:      -6.6      8.194     10.352
REMARK  Name = 46937065
REMARK  9 active torsions:
REMARK  status: ('A' for Active; 'I' for Inactive)
REMARK    1  A    between atoms: C_1  and  N_2
REMARK    2  A    between atoms: C_1  and  C_6
REMARK    3  A    between atoms: C_1  and  C_15
REMARK    4  A    between atoms: C_6  and  C_7
REMARK    5  A    between atoms: C_7  and  C_8
REMARK    6  A    between atoms: C_8  and  N_9
REMARK    7  A    between atoms: C_8  and  O_13
REMARK    8  A    between atoms: C_15  and  C_16
REMARK    9  A    between atoms: C_21  and  O_22
REMARK                            x       y       z     vdW  Elec       q    Type
REMARK                         _______ _______ _______ _____ _____    ______ ____
ROOT
ATOM      1  C   UNL     1      36.292 -25.199 -14.814  0.00  0.00    -0.061 C 
ENDROOT
BRANCH   1   2
ATOM      2  N   UNL     1      35.823 -26.571 -15.025  0.00  0.00    +0.382 N 
ATOM      3  H   UNL     1      35.430 -26.935 -14.156  0.00  0.00    -0.089 HD
ATOM      4  H   UNL     1      36.606 -27.158 -15.315  0.00  0.00    -0.089 HD
ATOM      5  H   UNL     1      35.106 -26.578 -15.751  0.00  0.00    -0.089 HD
ENDBRANCH   1   2
BRANCH   1   6
ATOM      6  C   UNL     1      37.699 -25.211 -14.180  0.00  0.00    -0.021 C 
BRANCH   6   7
ATOM      7  C   UNL     1      38.808 -24.575 -15.035  0.00  0.00    +0.004 C 
BRANCH   7   8
ATOM      8  C   UNL     1      40.142 -25.318 -14.884  0.00  0.00    +0.051 C 
BRANCH   8   9
ATOM      9  N   UNL     1      40.047 -26.289 -13.799  0.00  0.00    +0.398 N 
ATOM     10  H   UNL     1      39.207 -26.105 -13.251  0.00  0.00    -0.086 HD
ATOM     11  H   UNL     1      40.868 -26.209 -13.199  0.00  0.00    -0.086 HD
ATOM     12  H   UNL     1      40.002 -27.231 -14.188  0.00  0.00    -0.086 HD
ENDBRANCH   8   9
BRANCH   8  13
ATOM     13  O   UNL     1      40.465 -25.956 -16.114  0.00  0.00    -0.406 OA
ATOM     14  H   UNL     1      41.054 -26.707 -15.944  0.00  0.00    +0.207 HD
ENDBRANCH   8  13
ENDBRANCH   7   8
ENDBRANCH   6   7
ENDBRANCH   1   6
BRANCH   1  15
ATOM     15  C   UNL     1      35.229 -24.431 -14.003  0.00  0.00    +0.005 C 
BRANCH  15  16
ATOM     16  C   UNL     1      34.062 -23.949 -14.832  0.00  0.00    -0.024 C 
ATOM     17  C   UNL     1      34.247 -23.627 -16.177  0.00  0.00    -0.001 C 
ATOM     18  C   UNL     1      32.800 -23.823 -14.251  0.00  0.00    -0.001 C 
ATOM     19  C   UNL     1      33.168 -23.182 -16.941  0.00  0.00    +0.036 C 
ATOM     20  C   UNL     1      31.722 -23.377 -15.016  0.00  0.00    +0.036 C 
ATOM     21  C   UNL     1      31.907 -23.057 -16.362  0.00  0.00    +0.134 C 
BRANCH  21  22
ATOM     22  O   UNL     1      30.854 -22.623 -17.108  0.00  0.00    -0.506 OA
ATOM     23  H   UNL     1      30.950 -22.513 -18.033  0.00  0.00    +0.292 HD
ENDBRANCH  21  22
ENDBRANCH  15  16
ENDBRANCH   1  15
TORSDOF 9
ENDMDL
