MODEL 1
REMARK VINA RESULT:     -10.3      0.000      0.000
REMARK  Name = 5288016
REMARK  4 active torsions:
REMARK  status: ('A' for Active; 'I' for Inactive)
REMARK    1  A    between atoms: N_1  and  C_26
REMARK    2  A    between atoms: C_8  and  C_13
REMARK    3  A    between atoms: C_11  and  C_25
REMARK    4  A    between atoms: C_16  and  N_19
REMARK                            x       y       z     vdW  Elec       q    Type
REMARK                         _______ _______ _______ _____ _____    ______ ____
ROOT
ATOM      1  N   UNL     1      32.555 -14.744 -22.175  0.00  0.00    -0.314 N 
ATOM      2  N   UNL     1      32.867 -14.217 -24.446  0.00  0.00    -0.326 NA
ATOM      3  N   UNL     1      34.063 -15.716 -25.904  0.00  0.00    -0.341 NA
ATOM      4  C   UNL     1      33.078 -15.092 -23.446  0.00  0.00    +0.180 C 
ATOM      5  C   UNL     1      33.768 -16.291 -23.595  0.00  0.00    +0.143 C 
ATOM      6  C   UNL     1      34.256 -16.568 -24.882  0.00  0.00    +0.133 C 
ATOM      7  C   UNL     1      33.976 -17.190 -22.534  0.00  0.00    -0.011 C 
ATOM      8  C   UNL     1      34.674 -18.373 -22.752  0.00  0.00    -0.003 C 
ATOM      9  C   UNL     1      34.951 -17.761 -25.072  0.00  0.00    +0.029 C 
ATOM     10  C   UNL     1      35.162 -18.659 -24.021  0.00  0.00    +0.002 C 
ATOM     11  C   UNL     1      33.379 -14.587 -25.631  0.00  0.00    +0.212 C 
ATOM     12  H   UNL     1      31.895 -15.342 -21.756  0.00  0.00    +0.149 HD
ENDROOT
BRANCH   8  13
ATOM     13  C   UNL     1      34.891 -19.302 -21.664  0.00  0.00    +0.001 C 
ATOM     14  C   UNL     1      33.814 -20.001 -21.116  0.00  0.00    +0.014 C 
ATOM     15  C   UNL     1      36.177 -19.499 -21.162  0.00  0.00    +0.000 C 
ATOM     16  C   UNL     1      34.025 -20.896 -20.068  0.00  0.00    +0.042 C 
ATOM     17  C   UNL     1      36.388 -20.395 -20.113  0.00  0.00    +0.001 C 
ATOM     18  C   UNL     1      35.311 -21.093 -19.567  0.00  0.00    +0.014 C 
BRANCH  16  19
ATOM     19  N   UNL     1      32.936 -21.602 -19.514  0.00  0.00    -0.357 N 
ATOM     20  H   UNL     1      32.320 -22.095 -20.101  0.00  0.00    +0.142 HD
ATOM     21  H   UNL     1      32.792 -21.600 -18.540  0.00  0.00    +0.142 HD
ENDBRANCH  16  19
ENDBRANCH   8  13
BRANCH  11  25
ATOM     22  F   UNL     1      33.969 -13.905 -27.847  0.00  0.00    -0.156 F 
ATOM     23  F   UNL     1      31.895 -13.659 -27.262  0.00  0.00    -0.156 F 
ATOM     24  F   UNL     1      33.420 -12.348 -26.432  0.00  0.00    -0.156 F 
ATOM     25  C   UNL     1      33.170 -13.646 -26.770  0.00  0.00    +0.500 C 
ENDBRANCH  11  25
BRANCH   1  26
ATOM     26  C   UNL     1      32.947 -13.562 -21.478  0.00  0.00    +0.056 C 
ATOM     27  C   UNL     1      32.467 -12.341 -22.269  0.00  0.00    +0.020 C 
ATOM     28  C   UNL     1      32.306 -13.573 -20.088  0.00  0.00    +0.020 C 
ATOM     29  C   UNL     1      34.473 -13.551 -21.360  0.00  0.00    +0.020 C 
ENDBRANCH   1  26
TORSDOF 4
ENDMDL
MODEL 2
REMARK VINA RESULT:      -9.9      6.605      9.859
REMARK  Name = 5288016
REMARK  4 active torsions:
REMARK  status: ('A' for Active; 'I' for Inactive)
REMARK    1  A    between atoms: N_1  and  C_26
REMARK    2  A    between atoms: C_8  and  C_13
REMARK    3  A    between atoms: C_11  and  C_25
REMARK    4  A    between atoms: C_16  and  N_19
REMARK                            x       y       z     vdW  Elec       q    Type
REMARK                         _______ _______ _______ _____ _____    ______ ____
ROOT
ATOM      1  N   UNL     1      32.560 -23.873 -16.659  0.00  0.00    -0.314 N 
ATOM      2  N   UNL     1      32.843 -22.339 -18.421  0.00  0.00    -0.326 NA
ATOM      3  N   UNL     1      34.988 -21.324 -18.834  0.00  0.00    -0.341 NA
ATOM      4  C   UNL     1      33.405 -23.004 -17.393  0.00  0.00    +0.180 C 
ATOM      5  C   UNL     1      34.742 -22.882 -17.028  0.00  0.00    +0.143 C 
ATOM      6  C   UNL     1      35.518 -22.003 -17.801  0.00  0.00    +0.133 C 
ATOM      7  C   UNL     1      35.306 -23.587 -15.950  0.00  0.00    -0.011 C 
ATOM      8  C   UNL     1      36.652 -23.420 -15.638  0.00  0.00    -0.003 C 
ATOM      9  C   UNL     1      36.862 -21.856 -17.466  0.00  0.00    +0.029 C 
ATOM     10  C   UNL     1      37.430 -22.553 -16.396  0.00  0.00    +0.002 C 
ATOM     11  C   UNL     1      33.681 -21.529 -19.087  0.00  0.00    +0.212 C 
ATOM     12  H   UNL     1      32.785 -24.831 -16.620  0.00  0.00    +0.149 HD
ENDROOT
BRANCH   8  13
ATOM     13  C   UNL     1      37.238 -24.143 -14.531  0.00  0.00    +0.001 C 
ATOM     14  C   UNL     1      38.437 -24.837 -14.705  0.00  0.00    +0.014 C 
ATOM     15  C   UNL     1      36.606 -24.148 -13.287  0.00  0.00    +0.000 C 
ATOM     16  C   UNL     1      39.002 -25.533 -13.638  0.00  0.00    +0.042 C 
ATOM     17  C   UNL     1      37.171 -24.845 -12.219  0.00  0.00    +0.001 C 
ATOM     18  C   UNL     1      38.369 -25.537 -12.395  0.00  0.00    +0.014 C 
BRANCH  16  19
ATOM     19  N   UNL     1      40.213 -26.234 -13.815  0.00  0.00    -0.357 N 
ATOM     20  H   UNL     1      40.924 -26.168 -13.138  0.00  0.00    +0.142 HD
ATOM     21  H   UNL     1      40.347 -26.789 -14.617  0.00  0.00    +0.142 HD
ENDBRANCH  16  19
ENDBRANCH   8  13
BRANCH  11  25
ATOM     22  F   UNL     1      32.361 -19.687 -19.854  0.00  0.00    -0.156 F 
ATOM     23  F   UNL     1      34.041 -20.275 -21.093  0.00  0.00    -0.156 F 
ATOM     24  F   UNL     1      32.268 -21.532 -21.000  0.00  0.00    -0.156 F 
ATOM     25  C   UNL     1      33.101 -20.770 -20.233  0.00  0.00    +0.500 C 
ENDBRANCH  11  25
BRANCH   1  26
ATOM     26  C   UNL     1      31.394 -23.416 -15.974  0.00  0.00    +0.056 C 
ATOM     27  C   UNL     1      30.613 -22.479 -16.901  0.00  0.00    +0.020 C 
ATOM     28  C   UNL     1      30.533 -24.627 -15.604  0.00  0.00    +0.020 C 
ATOM     29  C   UNL     1      31.834 -22.670 -14.712  0.00  0.00    +0.020 C 
ENDBRANCH   1  26
TORSDOF 4
ENDMDL
MODEL 3
REMARK VINA RESULT:      -9.6      6.697     11.709
REMARK  Name = 5288016
REMARK  4 active torsions:
REMARK  status: ('A' for Active; 'I' for Inactive)
REMARK    1  A    between atoms: N_1  and  C_26
REMARK    2  A    between atoms: C_8  and  C_13
REMARK    3  A    between atoms: C_11  and  C_25
REMARK    4  A    between atoms: C_16  and  N_19
REMARK                            x       y       z     vdW  Elec       q    Type
REMARK                         _______ _______ _______ _____ _____    ______ ____
ROOT
ATOM      1  N   UNL     1      32.582 -10.181 -24.250  0.00  0.00    -0.314 N 
ATOM      2  N   UNL     1      32.121 -10.361 -21.950  0.00  0.00    -0.326 NA
ATOM      3  N   UNL     1      31.707  -8.395 -20.621  0.00  0.00    -0.341 NA
ATOM      4  C   UNL     1      32.283  -9.553 -23.015  0.00  0.00    +0.180 C 
ATOM      5  C   UNL     1      32.173  -8.167 -22.962  0.00  0.00    +0.143 C 
ATOM      6  C   UNL     1      31.875  -7.617 -21.705  0.00  0.00    +0.133 C 
ATOM      7  C   UNL     1      32.347  -7.344 -24.089  0.00  0.00    -0.011 C 
ATOM      8  C   UNL     1      32.222  -5.964 -23.967  0.00  0.00    -0.003 C 
ATOM      9  C   UNL     1      31.756  -6.233 -21.612  0.00  0.00    +0.029 C 
ATOM     10  C   UNL     1      31.927  -5.408 -22.728  0.00  0.00    +0.002 C 
ATOM     11  C   UNL     1      31.839  -9.724 -20.803  0.00  0.00    +0.212 C 
ATOM     12  H   UNL     1      31.962 -10.058 -25.006  0.00  0.00    +0.149 HD
ENDROOT
BRANCH   8  13
ATOM     13  C   UNL     1      32.400  -5.112 -25.122  0.00  0.00    +0.001 C 
ATOM     14  C   UNL     1      31.571  -4.004 -25.307  0.00  0.00    +0.014 C 
ATOM     15  C   UNL     1      33.399  -5.397 -26.053  0.00  0.00    +0.000 C 
ATOM     16  C   UNL     1      31.742  -3.182 -26.421  0.00  0.00    +0.042 C 
ATOM     17  C   UNL     1      33.571  -4.575 -27.167  0.00  0.00    +0.001 C 
ATOM     18  C   UNL     1      32.742  -3.467 -27.350  0.00  0.00    +0.014 C 
BRANCH  16  19
ATOM     19  N   UNL     1      30.905  -2.063 -26.607  0.00  0.00    -0.357 N 
ATOM     20  H   UNL     1      30.034  -2.168 -27.052  0.00  0.00    +0.142 HD
ATOM     21  H   UNL     1      31.192  -1.175 -26.290  0.00  0.00    +0.142 HD
ENDBRANCH  16  19
ENDBRANCH   8  13
BRANCH  11  25
ATOM     22  F   UNL     1      30.421 -10.451 -19.019  0.00  0.00    -0.156 F 
ATOM     23  F   UNL     1      31.789 -11.916 -19.846  0.00  0.00    -0.156 F 
ATOM     24  F   UNL     1      32.551 -10.299 -18.607  0.00  0.00    -0.156 F 
ATOM     25  C   UNL     1      31.652 -10.580 -19.595  0.00  0.00    +0.500 C 
ENDBRANCH  11  25
BRANCH   1  26
ATOM     26  C   UNL     1      33.745 -10.985 -24.444  0.00  0.00    +0.056 C 
ATOM     27  C   UNL     1      33.720 -12.140 -23.438  0.00  0.00    +0.020 C 
ATOM     28  C   UNL     1      33.734 -11.532 -25.874  0.00  0.00    +0.020 C 
ATOM     29  C   UNL     1      34.982 -10.112 -24.219  0.00  0.00    +0.020 C 
ENDBRANCH   1  26
TORSDOF 4
ENDMDL
MODEL 4
REMARK VINA RESULT:      -9.1      8.317     12.074
REMARK  Name = 5288016
REMARK  4 active torsions:
REMARK  status: ('A' for Active; 'I' for Inactive)
REMARK    1  A    between atoms: N_1  and  C_26
REMARK    2  A    between atoms: C_8  and  C_13
REMARK    3  A    between atoms: C_11  and  C_25
REMARK    4  A    between atoms: C_16  and  N_19
REMARK                            x       y       z     vdW  Elec       q    Type
REMARK                         _______ _______ _______ _____ _____    ______ ____
ROOT
ATOM      1  N   UNL     1      33.130 -22.875 -14.542  0.00  0.00    -0.314 N 
ATOM      2  N   UNL     1      34.821 -23.838 -13.220  0.00  0.00    -0.326 NA
ATOM      3  N   UNL     1      37.101 -23.906 -13.997  0.00  0.00    -0.341 NA
ATOM      4  C   UNL     1      34.494 -23.222 -14.371  0.00  0.00    +0.180 C 
ATOM      5  C   UNL     1      35.407 -22.916 -15.376  0.00  0.00    +0.143 C 
ATOM      6  C   UNL     1      36.739 -23.289 -15.136  0.00  0.00    +0.133 C 
ATOM      7  C   UNL     1      35.040 -22.271 -16.570  0.00  0.00    -0.011 C 
ATOM      8  C   UNL     1      36.003 -21.993 -17.534  0.00  0.00    -0.003 C 
ATOM      9  C   UNL     1      37.682 -22.998 -16.118  0.00  0.00    +0.029 C 
ATOM     10  C   UNL     1      37.325 -22.357 -17.309  0.00  0.00    +0.002 C 
ATOM     11  C   UNL     1      36.122 -24.147 -13.102  0.00  0.00    +0.212 C 
ATOM     12  H   UNL     1      32.894 -21.927 -14.665  0.00  0.00    +0.149 HD
ENDROOT
BRANCH   8  13
ATOM     13  C   UNL     1      35.633 -21.330 -18.765  0.00  0.00    +0.001 C 
ATOM     14  C   UNL     1      34.294 -21.282 -19.158  0.00  0.00    +0.014 C 
ATOM     15  C   UNL     1      36.613 -20.738 -19.562  0.00  0.00    +0.000 C 
ATOM     16  C   UNL     1      33.937 -20.643 -20.344  0.00  0.00    +0.042 C 
ATOM     17  C   UNL     1      36.256 -20.098 -20.749  0.00  0.00    +0.001 C 
ATOM     18  C   UNL     1      34.917 -20.050 -21.139  0.00  0.00    +0.014 C 
BRANCH  16  19
ATOM     19  N   UNL     1      32.584 -20.595 -20.740  0.00  0.00    -0.357 N 
ATOM     20  H   UNL     1      32.299 -19.975 -21.448  0.00  0.00    +0.142 HD
ATOM     21  H   UNL     1      31.923 -21.182 -20.305  0.00  0.00    +0.142 HD
ENDBRANCH  16  19
ENDBRANCH   8  13
BRANCH  11  25
ATOM     22  F   UNL     1      35.562 -24.833 -10.880  0.00  0.00    -0.156 F 
ATOM     23  F   UNL     1      36.859 -26.147 -12.017  0.00  0.00    -0.156 F 
ATOM     24  F   UNL     1      37.624 -24.257 -11.261  0.00  0.00    -0.156 F 
ATOM     25  C   UNL     1      36.531 -24.833 -11.842  0.00  0.00    +0.500 C 
ENDBRANCH  11  25
BRANCH   1  26
ATOM     26  C   UNL     1      32.083 -23.846 -14.542  0.00  0.00    +0.056 C 
ATOM     27  C   UNL     1      32.684 -25.220 -14.227  0.00  0.00    +0.020 C 
ATOM     28  C   UNL     1      31.056 -23.464 -13.473  0.00  0.00    +0.020 C 
ATOM     29  C   UNL     1      31.431 -23.856 -15.927  0.00  0.00    +0.020 C 
ENDBRANCH   1  26
TORSDOF 4
ENDMDL
MODEL 5
REMARK VINA RESULT:      -8.8      3.390      7.371
REMARK  Name = 5288016
REMARK  4 active torsions:
REMARK  status: ('A' for Active; 'I' for Inactive)
REMARK    1  A    between atoms: N_1  and  C_26
REMARK    2  A    between atoms: C_8  and  C_13
REMARK    3  A    between atoms: C_11  and  C_25
REMARK    4  A    between atoms: C_16  and  N_19
REMARK                            x       y       z     vdW  Elec       q    Type
REMARK                         _______ _______ _______ _____ _____    ______ ____
ROOT
ATOM      1  N   UNL     1      34.433 -14.571 -21.847  0.00  0.00    -0.314 N 
ATOM      2  N   UNL     1      34.240 -16.167 -23.565  0.00  0.00    -0.326 NA
ATOM      3  N   UNL     1      33.782 -15.486 -25.830  0.00  0.00    -0.341 NA
ATOM      4  C   UNL     1      34.208 -14.867 -23.215  0.00  0.00    +0.180 C 
ATOM      5  C   UNL     1      33.971 -13.827 -24.109  0.00  0.00    +0.143 C 
ATOM      6  C   UNL     1      33.757 -14.197 -25.446  0.00  0.00    +0.133 C 
ATOM      7  C   UNL     1      33.942 -12.477 -23.719  0.00  0.00    -0.011 C 
ATOM      8  C   UNL     1      33.700 -11.485 -24.664  0.00  0.00    -0.003 C 
ATOM      9  C   UNL     1      33.517 -13.184 -26.371  0.00  0.00    +0.029 C 
ATOM     10  C   UNL     1      33.487 -11.839 -25.990  0.00  0.00    +0.002 C 
ATOM     11  C   UNL     1      34.022 -16.400 -24.869  0.00  0.00    +0.212 C 
ATOM     12  H   UNL     1      35.197 -13.998 -21.607  0.00  0.00    +0.149 HD
ENDROOT
BRANCH   8  13
ATOM     13  C   UNL     1      33.669 -10.094 -24.269  0.00  0.00    +0.001 C 
ATOM     14  C   UNL     1      32.492  -9.535 -23.768  0.00  0.00    +0.014 C 
ATOM     15  C   UNL     1      34.816  -9.309 -24.389  0.00  0.00    +0.000 C 
ATOM     16  C   UNL     1      32.463  -8.194 -23.388  0.00  0.00    +0.042 C 
ATOM     17  C   UNL     1      34.787  -7.967 -24.008  0.00  0.00    +0.001 C 
ATOM     18  C   UNL     1      33.610  -7.410 -23.507  0.00  0.00    +0.014 C 
BRANCH  16  19
ATOM     19  N   UNL     1      31.273  -7.631 -22.882  0.00  0.00    -0.357 N 
ATOM     20  H   UNL     1      31.185  -6.655 -22.802  0.00  0.00    +0.142 HD
ATOM     21  H   UNL     1      30.529  -8.216 -22.608  0.00  0.00    +0.142 HD
ENDBRANCH  16  19
ENDBRANCH   8  13
BRANCH  11  25
ATOM     22  F   UNL     1      34.155 -18.711 -24.267  0.00  0.00    -0.156 F 
ATOM     23  F   UNL     1      32.927 -18.211 -25.983  0.00  0.00    -0.156 F 
ATOM     24  F   UNL     1      35.094 -18.106 -26.133  0.00  0.00    -0.156 F 
ATOM     25  C   UNL     1      34.047 -17.827 -25.303  0.00  0.00    +0.500 C 
ENDBRANCH  11  25
BRANCH   1  26
ATOM     26  C   UNL     1      33.596 -15.069 -20.803  0.00  0.00    +0.056 C 
ATOM     27  C   UNL     1      32.794 -13.903 -20.216  0.00  0.00    +0.020 C 
ATOM     28  C   UNL     1      32.648 -16.117 -21.390  0.00  0.00    +0.020 C 
ATOM     29  C   UNL     1      34.485 -15.697 -19.727  0.00  0.00    +0.020 C 
ENDBRANCH   1  26
TORSDOF 4
ENDMDL
MODEL 6
REMARK VINA RESULT:      -8.8      4.381      6.592
REMARK  Name = 5288016
REMARK  4 active torsions:
REMARK  status: ('A' for Active; 'I' for Inactive)
REMARK    1  A    between atoms: N_1  and  C_26
REMARK    2  A    between atoms: C_8  and  C_13
REMARK    3  A    between atoms: C_11  and  C_25
REMARK    4  A    between atoms: C_16  and  N_19
REMARK                            x       y       z     vdW  Elec       q    Type
REMARK                         _______ _______ _______ _____ _____    ______ ____
ROOT
ATOM      1  N   UNL     1      31.156 -10.871 -21.180  0.00  0.00    -0.314 N 
ATOM      2  N   UNL     1      31.644  -8.697 -21.936  0.00  0.00    -0.326 NA
ATOM      3  N   UNL     1      33.111  -8.349 -23.815  0.00  0.00    -0.341 NA
ATOM      4  C   UNL     1      31.833 -10.021 -22.090  0.00  0.00    +0.180 C 
ATOM      5  C   UNL     1      32.640 -10.581 -23.076  0.00  0.00    +0.143 C 
ATOM      6  C   UNL     1      33.278  -9.678 -23.942  0.00  0.00    +0.133 C 
ATOM      7  C   UNL     1      32.821 -11.968 -23.218  0.00  0.00    -0.011 C 
ATOM      8  C   UNL     1      33.642 -12.463 -24.226  0.00  0.00    -0.003 C 
ATOM      9  C   UNL     1      34.093 -10.200 -24.942  0.00  0.00    +0.029 C 
ATOM     10  C   UNL     1      34.279 -11.579 -25.088  0.00  0.00    +0.002 C 
ATOM     11  C   UNL     1      32.303  -7.932 -22.820  0.00  0.00    +0.212 C 
ATOM     12  H   UNL     1      30.514 -11.528 -21.534  0.00  0.00    +0.149 HD
ENDROOT
BRANCH   8  13
ATOM     13  C   UNL     1      33.833 -13.889 -24.377  0.00  0.00    +0.001 C 
ATOM     14  C   UNL     1      34.456 -14.621 -23.365  0.00  0.00    +0.014 C 
ATOM     15  C   UNL     1      33.395 -14.533 -25.534  0.00  0.00    +0.000 C 
ATOM     16  C   UNL     1      34.640 -15.996 -23.510  0.00  0.00    +0.042 C 
ATOM     17  C   UNL     1      33.579 -15.908 -25.679  0.00  0.00    +0.001 C 
ATOM     18  C   UNL     1      34.201 -16.639 -24.667  0.00  0.00    +0.014 C 
BRANCH  16  19
ATOM     19  N   UNL     1      35.269 -16.735 -22.487  0.00  0.00    -0.357 N 
ATOM     20  H   UNL     1      35.580 -16.281 -21.671  0.00  0.00    +0.142 HD
ATOM     21  H   UNL     1      35.397 -17.706 -22.589  0.00  0.00    +0.142 HD
ENDBRANCH  16  19
ENDBRANCH   8  13
BRANCH  11  25
ATOM     22  F   UNL     1      30.826  -6.050 -22.804  0.00  0.00    -0.156 F 
ATOM     23  F   UNL     1      32.544  -5.962 -21.483  0.00  0.00    -0.156 F 
ATOM     24  F   UNL     1      32.815  -5.755 -23.632  0.00  0.00    -0.156 F 
ATOM     25  C   UNL     1      32.124  -6.456 -22.686  0.00  0.00    +0.500 C 
ENDBRANCH  11  25
BRANCH   1  26
ATOM     26  C   UNL     1      31.367 -10.813 -19.770  0.00  0.00    +0.056 C 
ATOM     27  C   UNL     1      32.336  -9.666 -19.463  0.00  0.00    +0.020 C 
ATOM     28  C   UNL     1      30.024 -10.565 -19.079  0.00  0.00    +0.020 C 
ATOM     29  C   UNL     1      31.962 -12.147 -19.312  0.00  0.00    +0.020 C 
ENDBRANCH   1  26
TORSDOF 4
ENDMDL
MODEL 7
REMARK VINA RESULT:      -8.8      4.717      9.660
REMARK  Name = 5288016
REMARK  4 active torsions:
REMARK  status: ('A' for Active; 'I' for Inactive)
REMARK    1  A    between atoms: N_1  and  C_26
REMARK    2  A    between atoms: C_8  and  C_13
REMARK    3  A    between atoms: C_11  and  C_25
REMARK    4  A    between atoms: C_16  and  N_19
REMARK                            x       y       z     vdW  Elec       q    Type
REMARK                         _______ _______ _______ _____ _____    ______ ____
ROOT
ATOM      1  N   UNL     1      32.306 -12.558 -24.237  0.00  0.00    -0.314 N 
ATOM      2  N   UNL     1      32.405 -13.789 -22.234  0.00  0.00    -0.326 NA
ATOM      3  N   UNL     1      32.190 -12.687 -20.102  0.00  0.00    -0.341 NA
ATOM      4  C   UNL     1      32.264 -12.585 -22.820  0.00  0.00    +0.180 C 
ATOM      5  C   UNL     1      32.084 -11.396 -22.120  0.00  0.00    +0.143 C 
ATOM      6  C   UNL     1      32.052 -11.500 -20.720  0.00  0.00    +0.133 C 
ATOM      7  C   UNL     1      31.939 -10.150 -22.756  0.00  0.00    -0.011 C 
ATOM      8  C   UNL     1      31.760  -8.999 -21.996  0.00  0.00    -0.003 C 
ATOM      9  C   UNL     1      31.872 -10.332 -19.985  0.00  0.00    +0.029 C 
ATOM     10  C   UNL     1      31.728  -9.089 -20.610  0.00  0.00    +0.002 C 
ATOM     11  C   UNL     1      32.359 -13.766 -20.892  0.00  0.00    +0.212 C 
ATOM     12  H   UNL     1      31.521 -12.222 -24.727  0.00  0.00    +0.149 HD
ENDROOT
BRANCH   8  13
ATOM     13  C   UNL     1      31.611  -7.714 -22.644  0.00  0.00    +0.001 C 
ATOM     14  C   UNL     1      31.094  -6.629 -21.933  0.00  0.00    +0.014 C 
ATOM     15  C   UNL     1      31.983  -7.558 -23.979  0.00  0.00    +0.000 C 
ATOM     16  C   UNL     1      30.950  -5.391 -22.558  0.00  0.00    +0.042 C 
ATOM     17  C   UNL     1      31.839  -6.319 -24.604  0.00  0.00    +0.001 C 
ATOM     18  C   UNL     1      31.323  -5.236 -23.893  0.00  0.00    +0.014 C 
BRANCH  16  19
ATOM     19  N   UNL     1      30.427  -4.295 -21.839  0.00  0.00    -0.357 N 
ATOM     20  H   UNL     1      30.538  -4.249 -20.863  0.00  0.00    +0.142 HD
ATOM     21  H   UNL     1      29.951  -3.576 -22.316  0.00  0.00    +0.142 HD
ENDBRANCH  16  19
ENDBRANCH   8  13
BRANCH  11  25
ATOM     22  F   UNL     1      32.062 -15.071 -18.909  0.00  0.00    -0.156 F 
ATOM     23  F   UNL     1      31.835 -16.098 -20.806  0.00  0.00    -0.156 F 
ATOM     24  F   UNL     1      33.812 -15.488 -20.132  0.00  0.00    -0.156 F 
ATOM     25  C   UNL     1      32.512 -15.078 -20.199  0.00  0.00    +0.500 C 
ENDBRANCH  11  25
BRANCH   1  26
ATOM     26  C   UNL     1      33.440 -13.001 -24.982  0.00  0.00    +0.056 C 
ATOM     27  C   UNL     1      34.275 -13.936 -24.102  0.00  0.00    +0.020 C 
ATOM     28  C   UNL     1      32.952 -13.747 -26.227  0.00  0.00    +0.020 C 
ATOM     29  C   UNL     1      34.263 -11.775 -25.386  0.00  0.00    +0.020 C 
ENDBRANCH   1  26
TORSDOF 4
ENDMDL
MODEL 8
REMARK VINA RESULT:      -8.5      2.345      4.225
REMARK  Name = 5288016
REMARK  4 active torsions:
REMARK  status: ('A' for Active; 'I' for Inactive)
REMARK    1  A    between atoms: N_1  and  C_26
REMARK    2  A    between atoms: C_8  and  C_13
REMARK    3  A    between atoms: C_11  and  C_25
REMARK    4  A    between atoms: C_16  and  N_19
REMARK                            x       y       z     vdW  Elec       q    Type
REMARK                         _______ _______ _______ _____ _____    ______ ____
ROOT
ATOM      1  N   UNL     1      33.960 -13.878 -24.858  0.00  0.00    -0.314 N 
ATOM      2  N   UNL     1      32.923 -12.039 -23.820  0.00  0.00    -0.326 NA
ATOM      3  N   UNL     1      32.205 -12.166 -21.524  0.00  0.00    -0.341 NA
ATOM      4  C   UNL     1      33.361 -13.307 -23.707  0.00  0.00    +0.180 C 
ATOM      5  C   UNL     1      33.257 -14.064 -22.544  0.00  0.00    +0.143 C 
ATOM      6  C   UNL     1      32.654 -13.432 -21.445  0.00  0.00    +0.133 C 
ATOM      7  C   UNL     1      33.722 -15.387 -22.451  0.00  0.00    -0.011 C 
ATOM      8  C   UNL     1      33.588 -16.089 -21.257  0.00  0.00    -0.003 C 
ATOM      9  C   UNL     1      32.533 -14.157 -20.263  0.00  0.00    +0.029 C 
ATOM     10  C   UNL     1      32.992 -15.474 -20.163  0.00  0.00    +0.002 C 
ATOM     11  C   UNL     1      32.365 -11.539 -22.706  0.00  0.00    +0.212 C 
ATOM     12  H   UNL     1      34.894 -14.184 -24.802  0.00  0.00    +0.149 HD
ENDROOT
BRANCH   8  13
ATOM     13  C   UNL     1      34.064 -17.451 -21.155  0.00  0.00    +0.001 C 
ATOM     14  C   UNL     1      33.170 -18.485 -20.874  0.00  0.00    +0.014 C 
ATOM     15  C   UNL     1      35.419 -17.732 -21.336  0.00  0.00    +0.000 C 
ATOM     16  C   UNL     1      33.630 -19.798 -20.775  0.00  0.00    +0.042 C 
ATOM     17  C   UNL     1      35.879 -19.046 -21.237  0.00  0.00    +0.001 C 
ATOM     18  C   UNL     1      34.983 -20.078 -20.958  0.00  0.00    +0.014 C 
BRANCH  16  19
ATOM     19  N   UNL     1      32.725 -20.842 -20.492  0.00  0.00    -0.357 N 
ATOM     20  H   UNL     1      33.050 -21.682 -20.098  0.00  0.00    +0.142 HD
ATOM     21  H   UNL     1      31.766 -20.730 -20.689  0.00  0.00    +0.142 HD
ENDBRANCH  16  19
ENDBRANCH   8  13
BRANCH  11  25
ATOM     22  F   UNL     1      32.202  -9.499 -23.945  0.00  0.00    -0.156 F 
ATOM     23  F   UNL     1      30.503 -10.036 -22.708  0.00  0.00    -0.156 F 
ATOM     24  F   UNL     1      32.347  -9.348 -21.780  0.00  0.00    -0.156 F 
ATOM     25  C   UNL     1      31.864 -10.136 -22.785  0.00  0.00    +0.500 C 
ENDBRANCH  11  25
BRANCH   1  26
ATOM     26  C   UNL     1      33.263 -14.027 -26.094  0.00  0.00    +0.056 C 
ATOM     27  C   UNL     1      31.852 -13.451 -25.938  0.00  0.00    +0.020 C 
ATOM     28  C   UNL     1      34.024 -13.267 -27.184  0.00  0.00    +0.020 C 
ATOM     29  C   UNL     1      33.194 -15.518 -26.435  0.00  0.00    +0.020 C 
ENDBRANCH   1  26
TORSDOF 4
ENDMDL
MODEL 9
REMARK VINA RESULT:      -8.2      8.708     11.796
REMARK  Name = 5288016
REMARK  4 active torsions:
REMARK  status: ('A' for Active; 'I' for Inactive)
REMARK    1  A    between atoms: N_1  and  C_26
REMARK    2  A    between atoms: C_8  and  C_13
REMARK    3  A    between atoms: C_11  and  C_25
REMARK    4  A    between atoms: C_16  and  N_19
REMARK                            x       y       z     vdW  Elec       q    Type
REMARK                         _______ _______ _______ _____ _____    ______ ____
ROOT
ATOM      1  N   UNL     1      33.452 -23.411 -18.175  0.00  0.00    -0.314 N 
ATOM      2  N   UNL     1      34.993 -23.886 -16.463  0.00  0.00    -0.326 NA
ATOM      3  N   UNL     1      34.299 -23.914 -14.156  0.00  0.00    -0.341 NA
ATOM      4  C   UNL     1      33.725 -23.580 -16.795  0.00  0.00    +0.180 C 
ATOM      5  C   UNL     1      32.696 -23.425 -15.871  0.00  0.00    +0.143 C 
ATOM      6  C   UNL     1      33.041 -23.608 -14.523  0.00  0.00    +0.133 C 
ATOM      7  C   UNL     1      31.378 -23.105 -16.243  0.00  0.00    -0.011 C 
ATOM      8  C   UNL     1      30.395 -22.966 -15.268  0.00  0.00    -0.003 C 
ATOM      9  C   UNL     1      32.038 -23.463 -13.568  0.00  0.00    +0.029 C 
ATOM     10  C   UNL     1      30.725 -23.144 -13.930  0.00  0.00    +0.002 C 
ATOM     11  C   UNL     1      35.206 -24.037 -15.146  0.00  0.00    +0.212 C 
ATOM     12  H   UNL     1      32.788 -24.000 -18.601  0.00  0.00    +0.149 HD
ENDROOT
BRANCH   8  13
ATOM     13  C   UNL     1      29.038 -22.637 -15.644  0.00  0.00    +0.001 C 
ATOM     14  C   UNL     1      28.658 -22.665 -16.987  0.00  0.00    +0.014 C 
ATOM     15  C   UNL     1      28.107 -22.290 -14.665  0.00  0.00    +0.000 C 
ATOM     16  C   UNL     1      27.349 -22.348 -17.349  0.00  0.00    +0.042 C 
ATOM     17  C   UNL     1      26.798 -21.972 -15.027  0.00  0.00    +0.001 C 
ATOM     18  C   UNL     1      26.419 -22.002 -16.369  0.00  0.00    +0.014 C 
BRANCH  16  19
ATOM     19  N   UNL     1      26.966 -22.377 -18.706  0.00  0.00    -0.357 N 
ATOM     20  H   UNL     1      26.014 -22.425 -18.948  0.00  0.00    +0.142 HD
ATOM     21  H   UNL     1      27.653 -22.350 -19.412  0.00  0.00    +0.142 HD
ENDBRANCH  16  19
ENDBRANCH   8  13
BRANCH  11  25
ATOM     22  F   UNL     1      37.106 -25.473 -15.366  0.00  0.00    -0.156 F 
ATOM     23  F   UNL     1      37.498 -23.377 -14.972  0.00  0.00    -0.156 F 
ATOM     24  F   UNL     1      36.698 -24.646 -13.397  0.00  0.00    -0.156 F 
ATOM     25  C   UNL     1      36.598 -24.376 -14.731  0.00  0.00    +0.500 C 
ENDBRANCH  11  25
BRANCH   1  26
ATOM     26  C   UNL     1      34.101 -22.422 -18.974  0.00  0.00    +0.056 C 
ATOM     27  C   UNL     1      33.100 -21.304 -19.283  0.00  0.00    +0.020 C 
ATOM     28  C   UNL     1      35.291 -21.860 -18.192  0.00  0.00    +0.020 C 
ATOM     29  C   UNL     1      34.579 -23.081 -20.270  0.00  0.00    +0.020 C 
ENDBRANCH   1  26
TORSDOF 4
ENDMDL
