MODEL 1
REMARK VINA RESULT:      -9.0      0.000      0.000
REMARK  Name = 12803287
REMARK  8 active torsions:
REMARK  status: ('A' for Active; 'I' for Inactive)
REMARK    1  A    between atoms: C_2  and  O_16
REMARK    2  A    between atoms: C_3  and  O_18
REMARK    3  A    between atoms: C_4  and  C_20
REMARK    4  A    between atoms: C_5  and  N_8
REMARK    5  A    between atoms: C_20  and  O_21
REMARK    6  A    between atoms: O_21  and  P_22
REMARK    7  A    between atoms: P_22  and  O_24
REMARK    8  A    between atoms: P_22  and  O_26
REMARK                            x       y       z     vdW  Elec       q    Type
REMARK                         _______ _______ _______ _____ _____    ______ ____
ROOT
ATOM      1  O   UNL     1      35.887 -24.956 -15.805  0.00  0.00    -0.333 OA
ATOM      2  C   UNL     1      36.382 -22.681 -15.355  0.00  0.00    +0.187 C 
ATOM      3  C   UNL     1      37.498 -23.540 -14.798  0.00  0.00    +0.171 C 
ATOM      4  C   UNL     1      36.837 -24.909 -14.718  0.00  0.00    +0.176 C 
ATOM      5  C   UNL     1      35.714 -23.631 -16.335  0.00  0.00    +0.229 C 
ENDROOT
BRANCH   5   8
ATOM      6  O   UNL     1      34.396 -23.056 -18.796  0.00  0.00    -0.252 OA
ATOM      7  O   UNL     1      30.315 -22.648 -16.714  0.00  0.00    -0.270 OA
ATOM      8  N   UNL     1      34.310 -23.368 -16.483  0.00  0.00    -0.217 N 
ATOM      9  N   UNL     1      32.367 -22.855 -17.745  0.00  0.00    -0.236 N 
ATOM     10  C   UNL     1      33.507 -23.390 -15.349  0.00  0.00    +0.071 C 
ATOM     11  C   UNL     1      33.746 -23.092 -17.749  0.00  0.00    +0.315 C 
ATOM     12  C   UNL     1      32.188 -23.163 -15.349  0.00  0.00    +0.047 C 
ATOM     13  C   UNL     1      31.521 -22.865 -16.645  0.00  0.00    +0.250 C 
ATOM     14  C   UNL     1      31.343 -23.192 -14.116  0.00  0.00    +0.037 C 
ATOM     15  H   UNL     1      31.952 -22.660 -18.616  0.00  0.00    +0.159 HD
ENDBRANCH   5   8
BRANCH   2  16
ATOM     16  O   UNL     1      36.866 -21.509 -15.978  0.00  0.00    -0.378 OA
ATOM     17  H   UNL     1      36.170 -21.129 -16.535  0.00  0.00    +0.211 HD
ENDBRANCH   2  16
BRANCH   3  18
ATOM     18  O   UNL     1      38.573 -23.623 -15.734  0.00  0.00    -0.379 OA
ATOM     19  H   UNL     1      38.579 -22.829 -16.291  0.00  0.00    +0.211 HD
ENDBRANCH   3  18
BRANCH   4  20
ATOM     20  C   UNL     1      36.081 -25.139 -13.417  0.00  0.00    +0.186 C 
BRANCH  20  21
ATOM     21  O   UNL     1      36.887 -24.698 -12.340  0.00  0.00    -0.271 OA
BRANCH  21  22
ATOM     22  P   UNL     1      36.233 -23.708 -11.239  0.00  0.00    +0.473 P 
ATOM     23  O   UNL     1      36.152 -24.268  -9.849  0.00  0.00    -0.227 OA
BRANCH  22  24
ATOM     24  O   UNL     1      34.817 -23.285 -11.897  0.00  0.00    -0.303 OA
ATOM     25  H   UNL     1      34.451 -24.037 -12.389  0.00  0.00    +0.222 HD
ENDBRANCH  22  24
BRANCH  22  26
ATOM     26  O   UNL     1      37.124 -22.367 -11.383  0.00  0.00    -0.303 OA
ATOM     27  H   UNL     1      37.956 -22.477 -10.895  0.00  0.00    +0.222 HD
ENDBRANCH  22  26
ENDBRANCH  21  22
ENDBRANCH  20  21
ENDBRANCH   4  20
TORSDOF 8
ENDMDL
MODEL 2
REMARK VINA RESULT:      -8.8      2.278      4.097
REMARK  Name = 12803287
REMARK  8 active torsions:
REMARK  status: ('A' for Active; 'I' for Inactive)
REMARK    1  A    between atoms: C_2  and  O_16
REMARK    2  A    between atoms: C_3  and  O_18
REMARK    3  A    between atoms: C_4  and  C_20
REMARK    4  A    between atoms: C_5  and  N_8
REMARK    5  A    between atoms: C_20  and  O_21
REMARK    6  A    between atoms: O_21  and  P_22
REMARK    7  A    between atoms: P_22  and  O_24
REMARK    8  A    between atoms: P_22  and  O_26
REMARK                            x       y       z     vdW  Elec       q    Type
REMARK                         _______ _______ _______ _____ _____    ______ ____
ROOT
ATOM      1  O   UNL     1      36.008 -22.677 -14.662  0.00  0.00    -0.333 OA
ATOM      2  C   UNL     1      34.753 -24.683 -14.510  0.00  0.00    +0.187 C 
ATOM      3  C   UNL     1      35.884 -24.742 -13.506  0.00  0.00    +0.171 C 
ATOM      4  C   UNL     1      36.838 -23.681 -14.037  0.00  0.00    +0.176 C 
ATOM      5  C   UNL     1      34.675 -23.195 -14.810  0.00  0.00    +0.229 C 
ENDROOT
BRANCH   5   8
ATOM      6  O   UNL     1      31.991 -23.493 -15.721  0.00  0.00    -0.252 OA
ATOM      7  O   UNL     1      33.098 -22.122 -19.969  0.00  0.00    -0.270 OA
ATOM      8  N   UNL     1      34.217 -22.928 -16.144  0.00  0.00    -0.217 N 
ATOM      9  N   UNL     1      32.557 -22.808 -17.836  0.00  0.00    -0.236 N 
ATOM     10  C   UNL     1      35.138 -22.488 -17.087  0.00  0.00    +0.071 C 
ATOM     11  C   UNL     1      32.862 -23.106 -16.503  0.00  0.00    +0.315 C 
ATOM     12  C   UNL     1      34.843 -22.203 -18.362  0.00  0.00    +0.047 C 
ATOM     13  C   UNL     1      33.435 -22.366 -18.814  0.00  0.00    +0.250 C 
ATOM     14  C   UNL     1      35.851 -21.731 -19.360  0.00  0.00    +0.037 C 
ATOM     15  H   UNL     1      31.618 -22.925 -18.109  0.00  0.00    +0.159 HD
ENDBRANCH   5   8
BRANCH   2  16
ATOM     16  O   UNL     1      33.545 -25.196 -13.989  0.00  0.00    -0.378 OA
ATOM     17  H   UNL     1      33.090 -24.504 -13.485  0.00  0.00    +0.211 HD
ENDBRANCH   2  16
BRANCH   3  18
ATOM     18  O   UNL     1      35.427 -24.320 -12.221  0.00  0.00    -0.379 OA
ATOM     19  H   UNL     1      35.822 -23.462 -12.002  0.00  0.00    +0.211 HD
ENDBRANCH   3  18
BRANCH   4  20
ATOM     20  C   UNL     1      37.808 -24.212 -15.083  0.00  0.00    +0.186 C 
BRANCH  20  21
ATOM     21  O   UNL     1      39.064 -24.431 -14.468  0.00  0.00    -0.271 OA
BRANCH  21  22
ATOM     22  P   UNL     1      39.786 -25.865 -14.673  0.00  0.00    +0.473 P 
ATOM     23  O   UNL     1      40.853 -26.188 -13.668  0.00  0.00    -0.227 OA
BRANCH  22  24
ATOM     24  O   UNL     1      40.277 -25.829 -16.214  0.00  0.00    -0.303 OA
ATOM     25  H   UNL     1      39.811 -26.514 -16.719  0.00  0.00    +0.222 HD
ENDBRANCH  22  24
BRANCH  22  26
ATOM     26  O   UNL     1      38.542 -26.897 -14.704  0.00  0.00    -0.303 OA
ATOM     27  H   UNL     1      37.953 -26.672 -15.442  0.00  0.00    +0.222 HD
ENDBRANCH  22  26
ENDBRANCH  21  22
ENDBRANCH  20  21
ENDBRANCH   4  20
TORSDOF 8
ENDMDL
MODEL 3
REMARK VINA RESULT:      -8.8      3.031      6.552
REMARK  Name = 12803287
REMARK  8 active torsions:
REMARK  status: ('A' for Active; 'I' for Inactive)
REMARK    1  A    between atoms: C_2  and  O_16
REMARK    2  A    between atoms: C_3  and  O_18
REMARK    3  A    between atoms: C_4  and  C_20
REMARK    4  A    between atoms: C_5  and  N_8
REMARK    5  A    between atoms: C_20  and  O_21
REMARK    6  A    between atoms: O_21  and  P_22
REMARK    7  A    between atoms: P_22  and  O_24
REMARK    8  A    between atoms: P_22  and  O_26
REMARK                            x       y       z     vdW  Elec       q    Type
REMARK                         _______ _______ _______ _____ _____    ______ ____
ROOT
ATOM      1  O   UNL     1      31.904 -25.413 -14.607  0.00  0.00    -0.333 OA
ATOM      2  C   UNL     1      31.567 -23.313 -13.560  0.00  0.00    +0.187 C 
ATOM      3  C   UNL     1      30.309 -24.140 -13.403  0.00  0.00    +0.171 C 
ATOM      4  C   UNL     1      30.482 -25.192 -14.490  0.00  0.00    +0.176 C 
ATOM      5  C   UNL     1      32.601 -24.373 -13.900  0.00  0.00    +0.229 C 
ENDROOT
BRANCH   5   8
ATOM      6  O   UNL     1      35.312 -24.013 -13.100  0.00  0.00    -0.252 OA
ATOM      7  O   UNL     1      36.505 -22.413 -17.243  0.00  0.00    -0.270 OA
ATOM      8  N   UNL     1      33.653 -23.866 -14.736  0.00  0.00    -0.217 N 
ATOM      9  N   UNL     1      35.893 -23.216 -15.170  0.00  0.00    -0.236 N 
ATOM     10  C   UNL     1      33.349 -23.515 -16.046  0.00  0.00    +0.071 C 
ATOM     11  C   UNL     1      34.971 -23.722 -14.248  0.00  0.00    +0.315 C 
ATOM     12  C   UNL     1      34.235 -23.031 -16.926  0.00  0.00    +0.047 C 
ATOM     13  C   UNL     1      35.644 -22.852 -16.486  0.00  0.00    +0.250 C 
ATOM     14  C   UNL     1      33.886 -22.660 -18.332  0.00  0.00    +0.037 C 
ATOM     15  H   UNL     1      36.819 -23.107 -14.853  0.00  0.00    +0.159 HD
ENDBRANCH   5   8
BRANCH   2  16
ATOM     16  O   UNL     1      31.889 -22.597 -12.386  0.00  0.00    -0.378 OA
ATOM     17  H   UNL     1      31.506 -23.047 -11.618  0.00  0.00    +0.211 HD
ENDBRANCH   2  16
BRANCH   3  18
ATOM     18  O   UNL     1      30.310 -24.807 -12.140  0.00  0.00    -0.379 OA
ATOM     19  H   UNL     1      30.854 -24.308 -11.511  0.00  0.00    +0.211 HD
ENDBRANCH   3  18
BRANCH   4  20
ATOM     20  C   UNL     1      29.957 -24.747 -15.848  0.00  0.00    +0.186 C 
BRANCH  20  21
ATOM     21  O   UNL     1      28.651 -24.226 -15.682  0.00  0.00    -0.271 OA
BRANCH  21  22
ATOM     22  P   UNL     1      28.230 -22.909 -16.525  0.00  0.00    +0.473 P 
ATOM     23  O   UNL     1      27.429 -21.896 -15.761  0.00  0.00    -0.227 OA
BRANCH  22  24
ATOM     24  O   UNL     1      27.508 -23.513 -17.841  0.00  0.00    -0.303 OA
ATOM     25  H   UNL     1      28.089 -23.402 -18.609  0.00  0.00    +0.222 HD
ENDBRANCH  22  24
BRANCH  22  26
ATOM     26  O   UNL     1      29.647 -22.374 -17.091  0.00  0.00    -0.303 OA
ATOM     27  H   UNL     1      29.680 -22.502 -18.053  0.00  0.00    +0.222 HD
ENDBRANCH  22  26
ENDBRANCH  21  22
ENDBRANCH  20  21
ENDBRANCH   4  20
TORSDOF 8
ENDMDL
MODEL 4
REMARK VINA RESULT:      -8.3      3.186      6.234
REMARK  Name = 12803287
REMARK  8 active torsions:
REMARK  status: ('A' for Active; 'I' for Inactive)
REMARK    1  A    between atoms: C_2  and  O_16
REMARK    2  A    between atoms: C_3  and  O_18
REMARK    3  A    between atoms: C_4  and  C_20
REMARK    4  A    between atoms: C_5  and  N_8
REMARK    5  A    between atoms: C_20  and  O_21
REMARK    6  A    between atoms: O_21  and  P_22
REMARK    7  A    between atoms: P_22  and  O_24
REMARK    8  A    between atoms: P_22  and  O_26
REMARK                            x       y       z     vdW  Elec       q    Type
REMARK                         _______ _______ _______ _____ _____    ______ ____
ROOT
ATOM      1  O   UNL     1      32.135 -24.054 -16.643  0.00  0.00    -0.333 OA
ATOM      2  C   UNL     1      33.417 -23.140 -14.871  0.00  0.00    +0.187 C 
ATOM      3  C   UNL     1      32.163 -23.760 -14.292  0.00  0.00    +0.171 C 
ATOM      4  C   UNL     1      31.258 -23.849 -15.513  0.00  0.00    +0.176 C 
ATOM      5  C   UNL     1      33.490 -23.796 -16.239  0.00  0.00    +0.229 C 
ENDROOT
BRANCH   5   8
ATOM      6  O   UNL     1      36.270 -23.181 -16.349  0.00  0.00    -0.252 OA
ATOM      7  O   UNL     1      35.716 -20.541 -20.074  0.00  0.00    -0.270 OA
ATOM      8  N   UNL     1      34.115 -22.954 -17.219  0.00  0.00    -0.217 N 
ATOM      9  N   UNL     1      35.980 -21.867 -18.206  0.00  0.00    -0.236 N 
ATOM     10  C   UNL     1      33.322 -22.379 -18.205  0.00  0.00    +0.071 C 
ATOM     11  C   UNL     1      35.506 -22.706 -17.192  0.00  0.00    +0.315 C 
ATOM     12  C   UNL     1      33.779 -21.576 -19.174  0.00  0.00    +0.047 C 
ATOM     13  C   UNL     1      35.233 -21.269 -19.211  0.00  0.00    +0.250 C 
ATOM     14  C   UNL     1      32.906 -20.969 -20.225  0.00  0.00    +0.037 C 
ATOM     15  H   UNL     1      36.946 -21.680 -18.207  0.00  0.00    +0.159 HD
ENDBRANCH   5   8
BRANCH   2  16
ATOM     16  O   UNL     1      34.559 -23.401 -14.081  0.00  0.00    -0.378 OA
ATOM     17  H   UNL     1      35.116 -24.057 -14.526  0.00  0.00    +0.211 HD
ENDBRANCH   2  16
BRANCH   3  18
ATOM     18  O   UNL     1      32.430 -25.089 -13.843  0.00  0.00    -0.379 OA
ATOM     19  H   UNL     1      31.981 -25.241 -12.997  0.00  0.00    +0.211 HD
ENDBRANCH   3  18
BRANCH   4  20
ATOM     20  C   UNL     1      30.454 -22.580 -15.761  0.00  0.00    +0.186 C 
BRANCH  20  21
ATOM     21  O   UNL     1      29.721 -22.735 -16.962  0.00  0.00    -0.271 OA
BRANCH  21  22
ATOM     22  P   UNL     1      28.132 -23.034 -16.865  0.00  0.00    +0.473 P 
ATOM     23  O   UNL     1      27.662 -24.227 -17.645  0.00  0.00    -0.227 OA
BRANCH  22  24
ATOM     24  O   UNL     1      27.452 -21.625 -17.280  0.00  0.00    -0.303 OA
ATOM     25  H   UNL     1      27.557 -21.483 -18.234  0.00  0.00    +0.222 HD
ENDBRANCH  22  24
BRANCH  22  26
ATOM     26  O   UNL     1      27.875 -23.115 -15.271  0.00  0.00    -0.303 OA
ATOM     27  H   UNL     1      26.944 -22.913 -15.083  0.00  0.00    +0.222 HD
ENDBRANCH  22  26
ENDBRANCH  21  22
ENDBRANCH  20  21
ENDBRANCH   4  20
TORSDOF 8
ENDMDL
MODEL 5
REMARK VINA RESULT:      -8.2      2.241      4.081
REMARK  Name = 12803287
REMARK  8 active torsions:
REMARK  status: ('A' for Active; 'I' for Inactive)
REMARK    1  A    between atoms: C_2  and  O_16
REMARK    2  A    between atoms: C_3  and  O_18
REMARK    3  A    between atoms: C_4  and  C_20
REMARK    4  A    between atoms: C_5  and  N_8
REMARK    5  A    between atoms: C_20  and  O_21
REMARK    6  A    between atoms: O_21  and  P_22
REMARK    7  A    between atoms: P_22  and  O_24
REMARK    8  A    between atoms: P_22  and  O_26
REMARK                            x       y       z     vdW  Elec       q    Type
REMARK                         _______ _______ _______ _____ _____    ______ ____
ROOT
ATOM      1  O   UNL     1      36.099 -22.718 -14.053  0.00  0.00    -0.333 OA
ATOM      2  C   UNL     1      35.285 -24.704 -13.047  0.00  0.00    +0.187 C 
ATOM      3  C   UNL     1      36.750 -24.550 -12.699  0.00  0.00    +0.171 C 
ATOM      4  C   UNL     1      37.229 -23.569 -13.760  0.00  0.00    +0.176 C 
ATOM      5  C   UNL     1      34.914 -23.296 -13.479  0.00  0.00    +0.229 C 
ENDROOT
BRANCH   5   8
ATOM      6  O   UNL     1      32.127 -23.503 -12.920  0.00  0.00    -0.252 OA
ATOM      7  O   UNL     1      31.034 -23.222 -17.378  0.00  0.00    -0.270 OA
ATOM      8  N   UNL     1      33.867 -23.281 -14.462  0.00  0.00    -0.217 N 
ATOM      9  N   UNL     1      31.596 -23.363 -15.146  0.00  0.00    -0.236 N 
ATOM     10  C   UNL     1      34.214 -23.157 -15.801  0.00  0.00    +0.071 C 
ATOM     11  C   UNL     1      32.509 -23.390 -14.086  0.00  0.00    +0.315 C 
ATOM     12  C   UNL     1      33.338 -23.130 -16.813  0.00  0.00    +0.047 C 
ATOM     13  C   UNL     1      31.889 -23.240 -16.497  0.00  0.00    +0.250 C 
ATOM     14  C   UNL     1      33.735 -22.996 -18.249  0.00  0.00    +0.037 C 
ATOM     15  H   UNL     1      30.644 -23.437 -14.909  0.00  0.00    +0.159 HD
ENDBRANCH   5   8
BRANCH   2  16
ATOM     16  O   UNL     1      34.517 -25.156 -11.951  0.00  0.00    -0.378 OA
ATOM     17  H   UNL     1      34.526 -24.484 -11.252  0.00  0.00    +0.211 HD
ENDBRANCH   2  16
BRANCH   3  18
ATOM     18  O   UNL     1      36.893 -23.924 -11.424  0.00  0.00    -0.379 OA
ATOM     19  H   UNL     1      36.016 -23.748 -11.050  0.00  0.00    +0.211 HD
ENDBRANCH   3  18
BRANCH   4  20
ATOM     20  C   UNL     1      37.660 -24.245 -15.054  0.00  0.00    +0.186 C 
BRANCH  20  21
ATOM     21  O   UNL     1      39.074 -24.305 -15.086  0.00  0.00    -0.271 OA
BRANCH  21  22
ATOM     22  P   UNL     1      39.794 -25.735 -14.846  0.00  0.00    +0.473 P 
ATOM     23  O   UNL     1      38.873 -26.848 -14.439  0.00  0.00    -0.227 OA
BRANCH  22  24
ATOM     24  O   UNL     1      40.977 -25.398 -13.795  0.00  0.00    -0.303 OA
ATOM     25  H   UNL     1      41.318 -26.222 -13.416  0.00  0.00    +0.222 HD
ENDBRANCH  22  24
BRANCH  22  26
ATOM     26  O   UNL     1      40.587 -25.979 -16.233  0.00  0.00    -0.303 OA
ATOM     27  H   UNL     1      41.544 -25.951 -16.068  0.00  0.00    +0.222 HD
ENDBRANCH  22  26
ENDBRANCH  21  22
ENDBRANCH  20  21
ENDBRANCH   4  20
TORSDOF 8
ENDMDL
MODEL 6
REMARK VINA RESULT:      -7.9      8.415     11.174
REMARK  Name = 12803287
REMARK  8 active torsions:
REMARK  status: ('A' for Active; 'I' for Inactive)
REMARK    1  A    between atoms: C_2  and  O_16
REMARK    2  A    between atoms: C_3  and  O_18
REMARK    3  A    between atoms: C_4  and  C_20
REMARK    4  A    between atoms: C_5  and  N_8
REMARK    5  A    between atoms: C_20  and  O_21
REMARK    6  A    between atoms: O_21  and  P_22
REMARK    7  A    between atoms: P_22  and  O_24
REMARK    8  A    between atoms: P_22  and  O_26
REMARK                            x       y       z     vdW  Elec       q    Type
REMARK                         _______ _______ _______ _____ _____    ______ ____
ROOT
ATOM      1  O   UNL     1      35.786 -16.709 -22.772  0.00  0.00    -0.333 OA
ATOM      2  C   UNL     1      34.498 -18.262 -24.018  0.00  0.00    +0.187 C 
ATOM      3  C   UNL     1      34.342 -16.891 -24.642  0.00  0.00    +0.171 C 
ATOM      4  C   UNL     1      34.786 -15.973 -23.511  0.00  0.00    +0.176 C 
ATOM      5  C   UNL     1      35.756 -18.086 -23.184  0.00  0.00    +0.229 C 
ENDROOT
BRANCH   5   8
ATOM      6  O   UNL     1      38.068 -18.799 -21.678  0.00  0.00    -0.252 OA
ATOM      7  O   UNL     1      35.587 -21.305 -18.727  0.00  0.00    -0.270 OA
ATOM      8  N   UNL     1      35.761 -18.921 -22.016  0.00  0.00    -0.217 N 
ATOM      9  N   UNL     1      36.819 -20.046 -20.214  0.00  0.00    -0.236 N 
ATOM     10  C   UNL     1      34.553 -19.438 -21.564  0.00  0.00    +0.071 C 
ATOM     11  C   UNL     1      36.962 -19.220 -21.335  0.00  0.00    +0.315 C 
ATOM     12  C   UNL     1      34.419 -20.227 -20.491  0.00  0.00    +0.047 C 
ATOM     13  C   UNL     1      35.640 -20.586 -19.720  0.00  0.00    +0.250 C 
ATOM     14  C   UNL     1      33.108 -20.771 -20.021  0.00  0.00    +0.037 C 
ATOM     15  H   UNL     1      37.643 -20.267 -19.722  0.00  0.00    +0.159 HD
ENDBRANCH   5   8
BRANCH   2  16
ATOM     16  O   UNL     1      34.627 -19.281 -24.988  0.00  0.00    -0.378 OA
ATOM     17  H   UNL     1      34.440 -18.916 -25.866  0.00  0.00    +0.211 HD
ENDBRANCH   2  16
BRANCH   3  18
ATOM     18  O   UNL     1      35.259 -16.732 -25.724  0.00  0.00    -0.379 OA
ATOM     19  H   UNL     1      36.080 -16.333 -25.397  0.00  0.00    +0.211 HD
ENDBRANCH   3  18
BRANCH   4  20
ATOM     20  C   UNL     1      33.661 -15.609 -22.553  0.00  0.00    +0.186 C 
BRANCH  20  21
ATOM     21  O   UNL     1      33.686 -14.211 -22.334  0.00  0.00    -0.271 OA
BRANCH  21  22
ATOM     22  P   UNL     1      32.989 -13.244 -23.430  0.00  0.00    +0.473 P 
ATOM     23  O   UNL     1      32.513 -13.935 -24.674  0.00  0.00    -0.227 OA
BRANCH  22  24
ATOM     24  O   UNL     1      34.087 -12.078 -23.664  0.00  0.00    -0.303 OA
ATOM     25  H   UNL     1      33.639 -11.261 -23.933  0.00  0.00    +0.222 HD
ENDBRANCH  22  24
BRANCH  22  26
ATOM     26  O   UNL     1      31.835 -12.501 -22.576  0.00  0.00    -0.303 OA
ATOM     27  H   UNL     1      31.819 -12.858 -21.674  0.00  0.00    +0.222 HD
ENDBRANCH  22  26
ENDBRANCH  21  22
ENDBRANCH  20  21
ENDBRANCH   4  20
TORSDOF 8
ENDMDL
MODEL 7
REMARK VINA RESULT:      -7.9      3.176      6.550
REMARK  Name = 12803287
REMARK  8 active torsions:
REMARK  status: ('A' for Active; 'I' for Inactive)
REMARK    1  A    between atoms: C_2  and  O_16
REMARK    2  A    between atoms: C_3  and  O_18
REMARK    3  A    between atoms: C_4  and  C_20
REMARK    4  A    between atoms: C_5  and  N_8
REMARK    5  A    between atoms: C_20  and  O_21
REMARK    6  A    between atoms: O_21  and  P_22
REMARK    7  A    between atoms: P_22  and  O_24
REMARK    8  A    between atoms: P_22  and  O_26
REMARK                            x       y       z     vdW  Elec       q    Type
REMARK                         _______ _______ _______ _____ _____    ______ ____
ROOT
ATOM      1  O   UNL     1      32.009 -25.475 -14.415  0.00  0.00    -0.333 OA
ATOM      2  C   UNL     1      31.717 -23.314 -13.487  0.00  0.00    +0.187 C 
ATOM      3  C   UNL     1      30.404 -24.062 -13.397  0.00  0.00    +0.171 C 
ATOM      4  C   UNL     1      30.598 -25.171 -14.422  0.00  0.00    +0.176 C 
ATOM      5  C   UNL     1      32.710 -24.445 -13.699  0.00  0.00    +0.229 C 
ENDROOT
BRANCH   5   8
ATOM      6  O   UNL     1      32.608 -23.083 -16.200  0.00  0.00    -0.252 OA
ATOM      7  O   UNL     1      37.195 -22.952 -16.511  0.00  0.00    -0.270 OA
ATOM      8  N   UNL     1      33.851 -24.036 -14.468  0.00  0.00    -0.217 N 
ATOM      9  N   UNL     1      34.896 -23.025 -16.343  0.00  0.00    -0.236 N 
ATOM     10  C   UNL     1      35.119 -24.315 -13.974  0.00  0.00    +0.071 C 
ATOM     11  C   UNL     1      33.700 -23.364 -15.701  0.00  0.00    +0.315 C 
ATOM     12  C   UNL     1      36.262 -23.989 -14.590  0.00  0.00    +0.047 C 
ATOM     13  C   UNL     1      36.185 -23.279 -15.895  0.00  0.00    +0.250 C 
ATOM     14  C   UNL     1      37.618 -24.300 -14.040  0.00  0.00    +0.037 C 
ATOM     15  H   UNL     1      34.816 -22.556 -17.205  0.00  0.00    +0.159 HD
ENDBRANCH   5   8
BRANCH   2  16
ATOM     16  O   UNL     1      31.988 -22.564 -12.321  0.00  0.00    -0.378 OA
ATOM     17  H   UNL     1      31.229 -21.997 -12.118  0.00  0.00    +0.211 HD
ENDBRANCH   2  16
BRANCH   3  18
ATOM     18  O   UNL     1      30.267 -24.669 -12.112  0.00  0.00    -0.379 OA
ATOM     19  H   UNL     1      30.894 -25.404 -12.033  0.00  0.00    +0.211 HD
ENDBRANCH   3  18
BRANCH   4  20
ATOM     20  C   UNL     1      30.207 -24.760 -15.835  0.00  0.00    +0.186 C 
BRANCH  20  21
ATOM     21  O   UNL     1      28.867 -24.306 -15.822  0.00  0.00    -0.271 OA
BRANCH  21  22
ATOM     22  P   UNL     1      28.497 -22.963 -16.647  0.00  0.00    +0.473 P 
ATOM     23  O   UNL     1      29.676 -22.180 -17.146  0.00  0.00    -0.227 OA
BRANCH  22  24
ATOM     24  O   UNL     1      27.508 -22.161 -15.649  0.00  0.00    -0.303 OA
ATOM     25  H   UNL     1      27.299 -21.293 -16.028  0.00  0.00    +0.222 HD
ENDBRANCH  22  24
BRANCH  22  26
ATOM     26  O   UNL     1      27.501 -23.507 -17.798  0.00  0.00    -0.303 OA
ATOM     27  H   UNL     1      27.548 -22.921 -18.570  0.00  0.00    +0.222 HD
ENDBRANCH  22  26
ENDBRANCH  21  22
ENDBRANCH  20  21
ENDBRANCH   4  20
TORSDOF 8
ENDMDL
MODEL 8
REMARK VINA RESULT:      -7.7      3.260      6.518
REMARK  Name = 12803287
REMARK  8 active torsions:
REMARK  status: ('A' for Active; 'I' for Inactive)
REMARK    1  A    between atoms: C_2  and  O_16
REMARK    2  A    between atoms: C_3  and  O_18
REMARK    3  A    between atoms: C_4  and  C_20
REMARK    4  A    between atoms: C_5  and  N_8
REMARK    5  A    between atoms: C_20  and  O_21
REMARK    6  A    between atoms: O_21  and  P_22
REMARK    7  A    between atoms: P_22  and  O_24
REMARK    8  A    between atoms: P_22  and  O_26
REMARK                            x       y       z     vdW  Elec       q    Type
REMARK                         _______ _______ _______ _____ _____    ______ ____
ROOT
ATOM      1  O   UNL     1      31.436 -24.080 -15.927  0.00  0.00    -0.333 OA
ATOM      2  C   UNL     1      32.483 -23.285 -13.955  0.00  0.00    +0.187 C 
ATOM      3  C   UNL     1      31.040 -23.614 -13.638  0.00  0.00    +0.171 C 
ATOM      4  C   UNL     1      30.405 -23.628 -15.022  0.00  0.00    +0.176 C 
ATOM      5  C   UNL     1      32.703 -24.048 -15.250  0.00  0.00    +0.229 C 
ENDROOT
BRANCH   5   8
ATOM      6  O   UNL     1      32.217 -23.149 -17.910  0.00  0.00    -0.252 OA
ATOM      7  O   UNL     1      36.537 -21.642 -18.375  0.00  0.00    -0.270 OA
ATOM      8  N   UNL     1      33.670 -23.416 -16.102  0.00  0.00    -0.217 N 
ATOM      9  N   UNL     1      34.374 -22.403 -18.129  0.00  0.00    -0.236 N 
ATOM     10  C   UNL     1      34.956 -23.216 -15.613  0.00  0.00    +0.071 C 
ATOM     11  C   UNL     1      33.335 -23.004 -17.411  0.00  0.00    +0.315 C 
ATOM     12  C   UNL     1      35.948 -22.639 -16.303  0.00  0.00    +0.047 C 
ATOM     13  C   UNL     1      35.671 -22.178 -17.690  0.00  0.00    +0.250 C 
ATOM     14  C   UNL     1      37.325 -22.433 -15.757  0.00  0.00    +0.037 C 
ATOM     15  H   UNL     1      34.164 -22.107 -19.044  0.00  0.00    +0.159 HD
ENDBRANCH   5   8
BRANCH   2  16
ATOM     16  O   UNL     1      33.364 -23.692 -12.928  0.00  0.00    -0.378 OA
ATOM     17  H   UNL     1      33.620 -24.616 -13.069  0.00  0.00    +0.211 HD
ENDBRANCH   2  16
BRANCH   3  18
ATOM     18  O   UNL     1      30.940 -24.930 -13.094  0.00  0.00    -0.379 OA
ATOM     19  H   UNL     1      30.300 -25.445 -13.609  0.00  0.00    +0.211 HD
ENDBRANCH   3  18
BRANCH   4  20
ATOM     20  C   UNL     1      29.937 -22.255 -15.484  0.00  0.00    +0.186 C 
BRANCH  20  21
ATOM     21  O   UNL     1      29.381 -22.377 -16.780  0.00  0.00    -0.271 OA
BRANCH  21  22
ATOM     22  P   UNL     1      27.812 -22.754 -16.916  0.00  0.00    +0.473 P 
ATOM     23  O   UNL     1      27.529 -24.047 -17.623  0.00  0.00    -0.227 OA
BRANCH  22  24
ATOM     24  O   UNL     1      27.160 -21.438 -17.596  0.00  0.00    -0.303 OA
ATOM     25  H   UNL     1      26.205 -21.427 -17.430  0.00  0.00    +0.222 HD
ENDBRANCH  22  24
BRANCH  22  26
ATOM     26  O   UNL     1      27.288 -22.681 -15.389  0.00  0.00    -0.303 OA
ATOM     27  H   UNL     1      26.527 -23.273 -15.279  0.00  0.00    +0.222 HD
ENDBRANCH  22  26
ENDBRANCH  21  22
ENDBRANCH  20  21
ENDBRANCH   4  20
TORSDOF 8
ENDMDL
MODEL 9
REMARK VINA RESULT:      -7.7      2.480      4.506
REMARK  Name = 12803287
REMARK  8 active torsions:
REMARK  status: ('A' for Active; 'I' for Inactive)
REMARK    1  A    between atoms: C_2  and  O_16
REMARK    2  A    between atoms: C_3  and  O_18
REMARK    3  A    between atoms: C_4  and  C_20
REMARK    4  A    between atoms: C_5  and  N_8
REMARK    5  A    between atoms: C_20  and  O_21
REMARK    6  A    between atoms: O_21  and  P_22
REMARK    7  A    between atoms: P_22  and  O_24
REMARK    8  A    between atoms: P_22  and  O_26
REMARK                            x       y       z     vdW  Elec       q    Type
REMARK                         _______ _______ _______ _____ _____    ______ ____
ROOT
ATOM      1  O   UNL     1      37.735 -23.515 -13.413  0.00  0.00    -0.333 OA
ATOM      2  C   UNL     1      35.664 -24.184 -12.473  0.00  0.00    +0.187 C 
ATOM      3  C   UNL     1      36.776 -24.575 -11.524  0.00  0.00    +0.171 C 
ATOM      4  C   UNL     1      37.997 -24.542 -12.432  0.00  0.00    +0.176 C 
ATOM      5  C   UNL     1      36.347 -23.146 -13.348  0.00  0.00    +0.229 C 
ENDROOT
BRANCH   5   8
ATOM      6  O   UNL     1      33.960 -24.451 -14.197  0.00  0.00    -0.252 OA
ATOM      7  O   UNL     1      34.439 -22.906 -18.501  0.00  0.00    -0.270 OA
ATOM      8  N   UNL     1      35.811 -23.112 -14.679  0.00  0.00    -0.217 N 
ATOM      9  N   UNL     1      34.211 -23.674 -16.340  0.00  0.00    -0.236 N 
ATOM     10  C   UNL     1      36.493 -22.391 -15.652  0.00  0.00    +0.071 C 
ATOM     11  C   UNL     1      34.617 -23.793 -15.006  0.00  0.00    +0.315 C 
ATOM     12  C   UNL     1      36.102 -22.279 -16.927  0.00  0.00    +0.047 C 
ATOM     13  C   UNL     1      34.853 -22.969 -17.347  0.00  0.00    +0.250 C 
ATOM     14  C   UNL     1      36.852 -21.497 -17.958  0.00  0.00    +0.037 C 
ATOM     15  H   UNL     1      33.381 -24.141 -16.590  0.00  0.00    +0.159 HD
ENDBRANCH   5   8
BRANCH   2  16
ATOM     16  O   UNL     1      34.537 -23.667 -11.796  0.00  0.00    -0.378 OA
ATOM     17  H   UNL     1      34.708 -22.748 -11.539  0.00  0.00    +0.211 HD
ENDBRANCH   2  16
BRANCH   3  18
ATOM     18  O   UNL     1      36.945 -23.574 -10.521  0.00  0.00    -0.379 OA
ATOM     19  H   UNL     1      36.095 -23.402 -10.087  0.00  0.00    +0.211 HD
ENDBRANCH   3  18
BRANCH   4  20
ATOM     20  C   UNL     1      38.236 -25.852 -13.170  0.00  0.00    +0.186 C 
BRANCH  20  21
ATOM     21  O   UNL     1      38.693 -25.560 -14.478  0.00  0.00    -0.271 OA
BRANCH  21  22
ATOM     22  P   UNL     1      40.279 -25.665 -14.784  0.00  0.00    +0.473 P 
ATOM     23  O   UNL     1      40.630 -26.040 -16.194  0.00  0.00    -0.227 OA
BRANCH  22  24
ATOM     24  O   UNL     1      40.823 -26.677 -13.644  0.00  0.00    -0.303 OA
ATOM     25  H   UNL     1      40.856 -27.579 -14.001  0.00  0.00    +0.222 HD
ENDBRANCH  22  24
BRANCH  22  26
ATOM     26  O   UNL     1      40.837 -24.227 -14.300  0.00  0.00    -0.303 OA
ATOM     27  H   UNL     1      40.530 -24.048 -13.397  0.00  0.00    +0.222 HD
ENDBRANCH  22  26
ENDBRANCH  21  22
ENDBRANCH  20  21
ENDBRANCH   4  20
TORSDOF 8
ENDMDL
