MODEL 1
REMARK VINA RESULT:      -8.3      0.000      0.000
REMARK  Name = 46937107
REMARK  5 active torsions:
REMARK  status: ('A' for Active; 'I' for Inactive)
REMARK    1  A    between atoms: S_1  and  C_5
REMARK    2  A    between atoms: S_1  and  N_11
REMARK    3  A    between atoms: N_11  and  C_13
REMARK    4  A    between atoms: C_13  and  C_15
REMARK    5  A    between atoms: C_15  and  N_17
REMARK                            x       y       z     vdW  Elec       q    Type
REMARK                         _______ _______ _______ _____ _____    ______ ____
ROOT
ATOM      1  S   UNL     1      33.860 -22.890 -18.459  0.00  0.00    +0.061 S 
ATOM      2  O   UNL     1      33.860 -24.089 -19.286  0.00  0.00    -0.153 OA
ATOM      3  O   UNL     1      34.843 -22.760 -17.392  0.00  0.00    -0.153 OA
ENDROOT
BRANCH   1   5
ATOM      4  F   UNL     1      34.369 -18.190 -21.949  0.00  0.00    -0.204 F 
ATOM      5  C   UNL     1      34.010 -21.493 -19.495  0.00  0.00    +0.122 C 
ATOM      6  C   UNL     1      32.873 -20.785 -19.884  0.00  0.00    +0.022 C 
ATOM      7  C   UNL     1      35.270 -21.084 -19.936  0.00  0.00    +0.022 C 
ATOM      8  C   UNL     1      32.994 -19.669 -20.712  0.00  0.00    +0.031 C 
ATOM      9  C   UNL     1      35.390 -19.968 -20.765  0.00  0.00    +0.031 C 
ATOM     10  C   UNL     1      34.252 -19.261 -21.152  0.00  0.00    +0.140 C 
ENDBRANCH   1   5
BRANCH   1  11
ATOM     11  N   UNL     1      32.300 -22.685 -17.791  0.00  0.00    -0.170 NA
ATOM     12  H   UNL     1      31.638 -23.070 -18.464  0.00  0.00    +0.149 HD
BRANCH  11  13
ATOM     13  C   UNL     1      31.977 -23.284 -16.487  0.00  0.00    +0.180 C 
BRANCH  13  15
ATOM     14  O   UNL     1      30.179 -22.844 -14.934  0.00  0.00    -0.269 OA
ATOM     15  C   UNL     1      30.582 -22.876 -16.090  0.00  0.00    +0.288 C 
BRANCH  15  17
ATOM     16  O   UNL     1      28.571 -21.979 -16.611  0.00  0.00    -0.071 OA
ATOM     17  N   UNL     1      29.590 -22.481 -17.097  0.00  0.00    -0.027 NA
ENDBRANCH  15  17
ENDBRANCH  13  15
ENDBRANCH  11  13
ENDBRANCH   1  11
TORSDOF 5
ENDMDL
MODEL 2
REMARK VINA RESULT:      -8.1      0.257      1.235
REMARK  Name = 46937107
REMARK  5 active torsions:
REMARK  status: ('A' for Active; 'I' for Inactive)
REMARK    1  A    between atoms: S_1  and  C_5
REMARK    2  A    between atoms: S_1  and  N_11
REMARK    3  A    between atoms: N_11  and  C_13
REMARK    4  A    between atoms: C_13  and  C_15
REMARK    5  A    between atoms: C_15  and  N_17
REMARK                            x       y       z     vdW  Elec       q    Type
REMARK                         _______ _______ _______ _____ _____    ______ ____
ROOT
ATOM      1  S   UNL     1      33.801 -22.902 -18.445  0.00  0.00    +0.061 S 
ATOM      2  O   UNL     1      33.806 -24.101 -19.273  0.00  0.00    -0.153 OA
ATOM      3  O   UNL     1      34.788 -22.767 -17.381  0.00  0.00    -0.153 OA
ENDROOT
BRANCH   1   5
ATOM      4  F   UNL     1      34.265 -18.195 -21.932  0.00  0.00    -0.204 F 
ATOM      5  C   UNL     1      33.940 -21.504 -19.481  0.00  0.00    +0.122 C 
ATOM      6  C   UNL     1      35.195 -21.076 -19.913  0.00  0.00    +0.022 C 
ATOM      7  C   UNL     1      32.793 -20.814 -19.878  0.00  0.00    +0.022 C 
ATOM      8  C   UNL     1      35.305 -19.959 -20.741  0.00  0.00    +0.031 C 
ATOM      9  C   UNL     1      32.904 -19.696 -20.706  0.00  0.00    +0.031 C 
ATOM     10  C   UNL     1      34.160 -19.269 -21.138  0.00  0.00    +0.140 C 
ENDBRANCH   1   5
BRANCH   1  11
ATOM     11  N   UNL     1      32.243 -22.707 -17.771  0.00  0.00    -0.170 NA
ATOM     12  H   UNL     1      31.594 -23.209 -18.378  0.00  0.00    +0.149 HD
BRANCH  11  13
ATOM     13  C   UNL     1      31.976 -23.160 -16.397  0.00  0.00    +0.180 C 
BRANCH  13  15
ATOM     14  O   UNL     1      29.950 -23.695 -15.195  0.00  0.00    -0.269 OA
ATOM     15  C   UNL     1      30.488 -23.174 -16.164  0.00  0.00    +0.288 C 
BRANCH  15  17
ATOM     16  O   UNL     1      28.635 -21.940 -16.568  0.00  0.00    -0.071 OA
ATOM     17  N   UNL     1      29.563 -22.546 -17.115  0.00  0.00    -0.027 NA
ENDBRANCH  15  17
ENDBRANCH  13  15
ENDBRANCH  11  13
ENDBRANCH   1  11
TORSDOF 5
ENDMDL
MODEL 3
REMARK VINA RESULT:      -8.1      5.648      7.513
REMARK  Name = 46937107
REMARK  5 active torsions:
REMARK  status: ('A' for Active; 'I' for Inactive)
REMARK    1  A    between atoms: S_1  and  C_5
REMARK    2  A    between atoms: S_1  and  N_11
REMARK    3  A    between atoms: N_11  and  C_13
REMARK    4  A    between atoms: C_13  and  C_15
REMARK    5  A    between atoms: C_15  and  N_17
REMARK                            x       y       z     vdW  Elec       q    Type
REMARK                         _______ _______ _______ _____ _____    ______ ____
ROOT
ATOM      1  S   UNL     1      35.549 -18.414 -21.451  0.00  0.00    +0.061 S 
ATOM      2  O   UNL     1      35.293 -17.255 -20.605  0.00  0.00    -0.153 OA
ATOM      3  O   UNL     1      36.898 -18.650 -21.947  0.00  0.00    -0.153 OA
ENDROOT
BRANCH   1   5
ATOM      4  F   UNL     1      33.811 -23.251 -18.604  0.00  0.00    -0.204 F 
ATOM      5  C   UNL     1      35.033 -19.851 -20.604  0.00  0.00    +0.122 C 
ATOM      6  C   UNL     1      35.980 -20.722 -20.065  0.00  0.00    +0.022 C 
ATOM      7  C   UNL     1      33.672 -20.130 -20.467  0.00  0.00    +0.022 C 
ATOM      8  C   UNL     1      35.568 -21.870 -19.388  0.00  0.00    +0.031 C 
ATOM      9  C   UNL     1      33.261 -21.278 -19.791  0.00  0.00    +0.031 C 
ATOM     10  C   UNL     1      34.208 -22.148 -19.252  0.00  0.00    +0.140 C 
ENDBRANCH   1   5
BRANCH   1  11
ATOM     11  N   UNL     1      34.478 -18.367 -22.782  0.00  0.00    -0.170 NA
ATOM     12  H   UNL     1      33.891 -17.542 -22.660  0.00  0.00    +0.149 HD
BRANCH  11  13
ATOM     13  C   UNL     1      35.013 -18.310 -24.151  0.00  0.00    +0.180 C 
BRANCH  13  15
ATOM     14  O   UNL     1      34.817 -16.696 -25.938  0.00  0.00    -0.269 OA
ATOM     15  C   UNL     1      34.687 -16.967 -24.750  0.00  0.00    +0.288 C 
BRANCH  15  17
ATOM     16  O   UNL     1      35.061 -15.286 -23.282  0.00  0.00    -0.071 OA
ATOM     17  N   UNL     1      34.178 -15.867 -23.922  0.00  0.00    -0.027 NA
ENDBRANCH  15  17
ENDBRANCH  13  15
ENDBRANCH  11  13
ENDBRANCH   1  11
TORSDOF 5
ENDMDL
MODEL 4
REMARK VINA RESULT:      -8.1      5.656      7.426
REMARK  Name = 46937107
REMARK  5 active torsions:
REMARK  status: ('A' for Active; 'I' for Inactive)
REMARK    1  A    between atoms: S_1  and  C_5
REMARK    2  A    between atoms: S_1  and  N_11
REMARK    3  A    between atoms: N_11  and  C_13
REMARK    4  A    between atoms: C_13  and  C_15
REMARK    5  A    between atoms: C_15  and  N_17
REMARK                            x       y       z     vdW  Elec       q    Type
REMARK                         _______ _______ _______ _____ _____    ______ ____
ROOT
ATOM      1  S   UNL     1      35.568 -18.414 -21.458  0.00  0.00    +0.061 S 
ATOM      2  O   UNL     1      35.295 -17.251 -20.624  0.00  0.00    -0.153 OA
ATOM      3  O   UNL     1      36.926 -18.651 -21.928  0.00  0.00    -0.153 OA
ENDROOT
BRANCH   1   5
ATOM      4  F   UNL     1      33.789 -23.237 -18.613  0.00  0.00    -0.204 F 
ATOM      5  C   UNL     1      35.038 -19.847 -20.613  0.00  0.00    +0.122 C 
ATOM      6  C   UNL     1      33.677 -20.121 -20.488  0.00  0.00    +0.022 C 
ATOM      7  C   UNL     1      35.979 -20.719 -20.063  0.00  0.00    +0.022 C 
ATOM      8  C   UNL     1      33.254 -21.266 -19.813  0.00  0.00    +0.031 C 
ATOM      9  C   UNL     1      35.556 -21.864 -19.388  0.00  0.00    +0.031 C 
ATOM     10  C   UNL     1      34.194 -22.138 -19.263  0.00  0.00    +0.140 C 
ENDBRANCH   1   5
BRANCH   1  11
ATOM     11  N   UNL     1      34.522 -18.376 -22.810  0.00  0.00    -0.170 NA
ATOM     12  H   UNL     1      33.905 -17.574 -22.683  0.00  0.00    +0.149 HD
BRANCH  11  13
ATOM     13  C   UNL     1      35.081 -18.273 -24.166  0.00  0.00    +0.180 C 
BRANCH  13  15
ATOM     14  O   UNL     1      34.732 -16.695 -25.962  0.00  0.00    -0.269 OA
ATOM     15  C   UNL     1      34.678 -16.951 -24.765  0.00  0.00    +0.288 C 
BRANCH  15  17
ATOM     16  O   UNL     1      35.075 -15.276 -23.296  0.00  0.00    -0.071 OA
ATOM     17  N   UNL     1      34.182 -15.855 -23.925  0.00  0.00    -0.027 NA
ENDBRANCH  15  17
ENDBRANCH  13  15
ENDBRANCH  11  13
ENDBRANCH   1  11
TORSDOF 5
ENDMDL
MODEL 5
REMARK VINA RESULT:      -7.9      5.844      7.087
REMARK  Name = 46937107
REMARK  5 active torsions:
REMARK  status: ('A' for Active; 'I' for Inactive)
REMARK    1  A    between atoms: S_1  and  C_5
REMARK    2  A    between atoms: S_1  and  N_11
REMARK    3  A    between atoms: N_11  and  C_13
REMARK    4  A    between atoms: C_13  and  C_15
REMARK    5  A    between atoms: C_15  and  N_17
REMARK                            x       y       z     vdW  Elec       q    Type
REMARK                         _______ _______ _______ _____ _____    ______ ____
ROOT
ATOM      1  S   UNL     1      36.015 -25.026 -14.762  0.00  0.00    +0.061 S 
ATOM      2  O   UNL     1      35.981 -26.288 -15.491  0.00  0.00    -0.153 OA
ATOM      3  O   UNL     1      37.006 -24.022 -15.122  0.00  0.00    -0.153 OA
ENDROOT
BRANCH   1   5
ATOM      4  F   UNL     1      30.714 -22.514 -15.088  0.00  0.00    -0.204 F 
ATOM      5  C   UNL     1      34.440 -24.279 -14.858  0.00  0.00    +0.122 C 
ATOM      6  C   UNL     1      33.637 -24.194 -13.721  0.00  0.00    +0.022 C 
ATOM      7  C   UNL     1      33.984 -23.768 -16.074  0.00  0.00    +0.022 C 
ATOM      8  C   UNL     1      32.379 -23.596 -13.798  0.00  0.00    +0.031 C 
ATOM      9  C   UNL     1      32.725 -23.172 -16.151  0.00  0.00    +0.031 C 
ATOM     10  C   UNL     1      31.923 -23.086 -15.013  0.00  0.00    +0.140 C 
ENDBRANCH   1   5
BRANCH   1  11
ATOM     11  N   UNL     1      36.161 -25.362 -13.092  0.00  0.00    -0.170 NA
ATOM     12  H   UNL     1      36.155 -26.378 -12.994  0.00  0.00    +0.149 HD
BRANCH  11  13
ATOM     13  C   UNL     1      37.328 -24.869 -12.345  0.00  0.00    +0.180 C 
BRANCH  13  15
ATOM     14  O   UNL     1      37.085 -22.609 -11.525  0.00  0.00    -0.269 OA
ATOM     15  C   UNL     1      36.878 -23.807 -11.376  0.00  0.00    +0.288 C 
BRANCH  15  17
ATOM     16  O   UNL     1      35.314 -25.056 -10.320  0.00  0.00    -0.071 OA
ATOM     17  N   UNL     1      36.142 -24.154 -10.154  0.00  0.00    -0.027 NA
ENDBRANCH  15  17
ENDBRANCH  13  15
ENDBRANCH  11  13
ENDBRANCH   1  11
TORSDOF 5
ENDMDL
MODEL 6
REMARK VINA RESULT:      -7.9      2.516      3.916
REMARK  Name = 46937107
REMARK  5 active torsions:
REMARK  status: ('A' for Active; 'I' for Inactive)
REMARK    1  A    between atoms: S_1  and  C_5
REMARK    2  A    between atoms: S_1  and  N_11
REMARK    3  A    between atoms: N_11  and  C_13
REMARK    4  A    between atoms: C_13  and  C_15
REMARK    5  A    between atoms: C_15  and  N_17
REMARK                            x       y       z     vdW  Elec       q    Type
REMARK                         _______ _______ _______ _____ _____    ______ ____
ROOT
ATOM      1  S   UNL     1      33.793 -22.747 -18.728  0.00  0.00    +0.061 S 
ATOM      2  O   UNL     1      32.450 -22.356 -18.322  0.00  0.00    -0.153 OA
ATOM      3  O   UNL     1      33.974 -23.949 -19.531  0.00  0.00    -0.153 OA
ENDROOT
BRANCH   1   5
ATOM      4  F   UNL     1      36.267 -18.268 -21.618  0.00  0.00    -0.204 F 
ATOM      5  C   UNL     1      34.529 -21.416 -19.587  0.00  0.00    +0.122 C 
ATOM      6  C   UNL     1      35.916 -21.269 -19.591  0.00  0.00    +0.022 C 
ATOM      7  C   UNL     1      33.729 -20.499 -20.270  0.00  0.00    +0.022 C 
ATOM      8  C   UNL     1      36.503 -20.207 -20.278  0.00  0.00    +0.031 C 
ATOM      9  C   UNL     1      34.317 -19.436 -20.956  0.00  0.00    +0.031 C 
ATOM     10  C   UNL     1      35.704 -19.290 -20.960  0.00  0.00    +0.140 C 
ENDBRANCH   1   5
BRANCH   1  11
ATOM     11  N   UNL     1      34.773 -22.870 -17.333  0.00  0.00    -0.170 NA
ATOM     12  H   UNL     1      35.160 -21.942 -17.162  0.00  0.00    +0.149 HD
BRANCH  11  13
ATOM     13  C   UNL     1      34.187 -23.328 -16.065  0.00  0.00    +0.180 C 
BRANCH  13  15
ATOM     14  O   UNL     1      35.861 -23.390 -14.323  0.00  0.00    -0.269 OA
ATOM     15  C   UNL     1      35.265 -23.964 -15.226  0.00  0.00    +0.288 C 
BRANCH  15  17
ATOM     16  O   UNL     1      36.904 -25.514 -15.407  0.00  0.00    -0.071 OA
ATOM     17  N   UNL     1      35.680 -25.355 -15.448  0.00  0.00    -0.027 NA
ENDBRANCH  15  17
ENDBRANCH  13  15
ENDBRANCH  11  13
ENDBRANCH   1  11
TORSDOF 5
ENDMDL
MODEL 7
REMARK VINA RESULT:      -7.8      5.152      6.650
REMARK  Name = 46937107
REMARK  5 active torsions:
REMARK  status: ('A' for Active; 'I' for Inactive)
REMARK    1  A    between atoms: S_1  and  C_5
REMARK    2  A    between atoms: S_1  and  N_11
REMARK    3  A    between atoms: N_11  and  C_13
REMARK    4  A    between atoms: C_13  and  C_15
REMARK    5  A    between atoms: C_15  and  N_17
REMARK                            x       y       z     vdW  Elec       q    Type
REMARK                         _______ _______ _______ _____ _____    ______ ____
ROOT
ATOM      1  S   UNL     1      35.777 -24.147 -15.163  0.00  0.00    +0.061 S 
ATOM      2  O   UNL     1      35.877 -25.600 -15.213  0.00  0.00    -0.153 OA
ATOM      3  O   UNL     1      36.692 -23.342 -15.961  0.00  0.00    -0.153 OA
ENDROOT
BRANCH   1   5
ATOM      4  F   UNL     1      30.298 -22.582 -16.595  0.00  0.00    -0.204 F 
ATOM      5  C   UNL     1      34.149 -23.682 -15.588  0.00  0.00    +0.122 C 
ATOM      6  C   UNL     1      33.170 -23.585 -14.599  0.00  0.00    +0.022 C 
ATOM      7  C   UNL     1      33.827 -23.407 -16.918  0.00  0.00    +0.022 C 
ATOM      8  C   UNL     1      31.869 -23.213 -14.939  0.00  0.00    +0.031 C 
ATOM      9  C   UNL     1      32.526 -23.035 -17.257  0.00  0.00    +0.031 C 
ATOM     10  C   UNL     1      31.547 -22.938 -16.268  0.00  0.00    +0.140 C 
ENDBRANCH   1   5
BRANCH   1  11
ATOM     11  N   UNL     1      35.889 -23.646 -13.533  0.00  0.00    -0.170 NA
ATOM     12  H   UNL     1      35.005 -23.191 -13.303  0.00  0.00    +0.149 HD
BRANCH  11  13
ATOM     13  C   UNL     1      36.144 -24.638 -12.477  0.00  0.00    +0.180 C 
BRANCH  13  15
ATOM     14  O   UNL     1      36.035 -24.249 -10.095  0.00  0.00    -0.269 OA
ATOM     15  C   UNL     1      36.465 -23.918 -11.193  0.00  0.00    +0.288 C 
BRANCH  15  17
ATOM     16  O   UNL     1      38.436 -22.935 -11.713  0.00  0.00    -0.071 OA
ATOM     17  N   UNL     1      37.339 -22.739 -11.179  0.00  0.00    -0.027 NA
ENDBRANCH  15  17
ENDBRANCH  13  15
ENDBRANCH  11  13
ENDBRANCH   1  11
TORSDOF 5
ENDMDL
MODEL 8
REMARK VINA RESULT:      -7.8      5.508      7.020
REMARK  Name = 46937107
REMARK  5 active torsions:
REMARK  status: ('A' for Active; 'I' for Inactive)
REMARK    1  A    between atoms: S_1  and  C_5
REMARK    2  A    between atoms: S_1  and  N_11
REMARK    3  A    between atoms: N_11  and  C_13
REMARK    4  A    between atoms: C_13  and  C_15
REMARK    5  A    between atoms: C_15  and  N_17
REMARK                            x       y       z     vdW  Elec       q    Type
REMARK                         _______ _______ _______ _____ _____    ______ ____
ROOT
ATOM      1  S   UNL     1      35.055 -18.776 -21.829  0.00  0.00    +0.061 S 
ATOM      2  O   UNL     1      36.470 -18.433 -21.782  0.00  0.00    -0.153 OA
ATOM      3  O   UNL     1      34.454 -19.151 -23.103  0.00  0.00    -0.153 OA
ENDROOT
BRANCH   1   5
ATOM      4  F   UNL     1      34.039 -23.134 -18.021  0.00  0.00    -0.204 F 
ATOM      5  C   UNL     1      34.754 -20.071 -20.697  0.00  0.00    +0.122 C 
ATOM      6  C   UNL     1      35.821 -20.776 -20.142  0.00  0.00    +0.022 C 
ATOM      7  C   UNL     1      33.443 -20.401 -20.348  0.00  0.00    +0.022 C 
ATOM      8  C   UNL     1      35.580 -21.810 -19.237  0.00  0.00    +0.031 C 
ATOM      9  C   UNL     1      33.203 -21.436 -19.443  0.00  0.00    +0.031 C 
ATOM     10  C   UNL     1      34.271 -22.140 -18.888  0.00  0.00    +0.140 C 
ENDBRANCH   1   5
BRANCH   1  11
ATOM     11  N   UNL     1      34.155 -17.487 -21.160  0.00  0.00    -0.170 NA
ATOM     12  H   UNL     1      33.952 -17.739 -20.193  0.00  0.00    +0.149 HD
BRANCH  11  13
ATOM     13  C   UNL     1      34.725 -16.131 -21.135  0.00  0.00    +0.180 C 
BRANCH  13  15
ATOM     14  O   UNL     1      35.132 -15.426 -23.410  0.00  0.00    -0.269 OA
ATOM     15  C   UNL     1      34.396 -15.435 -22.430  0.00  0.00    +0.288 C 
BRANCH  15  17
ATOM     16  O   UNL     1      32.263 -15.032 -21.793  0.00  0.00    -0.071 OA
ATOM     17  N   UNL     1      33.136 -14.703 -22.602  0.00  0.00    -0.027 NA
ENDBRANCH  15  17
ENDBRANCH  13  15
ENDBRANCH  11  13
ENDBRANCH   1  11
TORSDOF 5
ENDMDL
MODEL 9
REMARK VINA RESULT:      -7.7      4.424      5.628
REMARK  Name = 46937107
REMARK  5 active torsions:
REMARK  status: ('A' for Active; 'I' for Inactive)
REMARK    1  A    between atoms: S_1  and  C_5
REMARK    2  A    between atoms: S_1  and  N_11
REMARK    3  A    between atoms: N_11  and  C_13
REMARK    4  A    between atoms: C_13  and  C_15
REMARK    5  A    between atoms: C_15  and  N_17
REMARK                            x       y       z     vdW  Elec       q    Type
REMARK                         _______ _______ _______ _____ _____    ______ ____
ROOT
ATOM      1  S   UNL     1      35.519 -17.996 -21.563  0.00  0.00    +0.061 S 
ATOM      2  O   UNL     1      36.845 -18.530 -21.846  0.00  0.00    -0.153 OA
ATOM      3  O   UNL     1      35.343 -17.081 -20.443  0.00  0.00    -0.153 OA
ENDROOT
BRANCH   1   5
ATOM      4  F   UNL     1      33.487 -15.332 -26.390  0.00  0.00    -0.204 F 
ATOM      5  C   UNL     1      34.915 -17.205 -22.998  0.00  0.00    +0.122 C 
ATOM      6  C   UNL     1      34.938 -17.869 -24.224  0.00  0.00    +0.022 C 
ATOM      7  C   UNL     1      34.409 -15.906 -22.918  0.00  0.00    +0.022 C 
ATOM      8  C   UNL     1      34.455 -17.237 -25.369  0.00  0.00    +0.031 C 
ATOM      9  C   UNL     1      33.927 -15.275 -24.064  0.00  0.00    +0.031 C 
ATOM     10  C   UNL     1      33.949 -15.940 -25.289  0.00  0.00    +0.140 C 
ENDBRANCH   1   5
BRANCH   1  11
ATOM     11  N   UNL     1      34.431 -19.301 -21.377  0.00  0.00    -0.170 NA
ATOM     12  H   UNL     1      34.373 -19.768 -22.283  0.00  0.00    +0.149 HD
BRANCH  11  13
ATOM     13  C   UNL     1      34.703 -20.345 -20.377  0.00  0.00    +0.180 C 
BRANCH  13  15
ATOM     14  O   UNL     1      32.355 -20.276 -19.811  0.00  0.00    -0.269 OA
ATOM     15  C   UNL     1      33.395 -20.918 -19.897  0.00  0.00    +0.288 C 
BRANCH  15  17
ATOM     16  O   UNL     1      32.670 -22.479 -18.428  0.00  0.00    -0.071 OA
ATOM     17  N   UNL     1      33.284 -22.323 -19.489  0.00  0.00    -0.027 NA
ENDBRANCH  15  17
ENDBRANCH  13  15
ENDBRANCH  11  13
ENDBRANCH   1  11
TORSDOF 5
ENDMDL
