MODEL 1
REMARK VINA RESULT:      -7.1      0.000      0.000
REMARK  Name = 5288442
REMARK  7 active torsions:
REMARK  status: ('A' for Active; 'I' for Inactive)
REMARK    1  A    between atoms: C_1  and  O_2
REMARK    2  A    between atoms: C_1  and  C_4
REMARK    3  A    between atoms: C_1  and  C_10
REMARK    4  A    between atoms: C_4  and  C_7
REMARK    5  A    between atoms: C_4  and  O_8
REMARK    6  A    between atoms: C_10  and  C_12
REMARK    7  A    between atoms: C_12  and  C_15
REMARK                            x       y       z     vdW  Elec       q    Type
REMARK                         _______ _______ _______ _____ _____    ______ ____
ROOT
ATOM      1  C   UNL     1      37.952 -24.444 -12.478  0.00  0.00    +0.156 C 
ENDROOT
BRANCH   1   2
ATOM      2  O   UNL     1      37.835 -25.757 -11.921  0.00  0.00    -0.381 OA
ATOM      3  H   UNL     1      38.610 -26.284 -12.169  0.00  0.00    +0.210 HD
ENDBRANCH   1   2
BRANCH   1   4
ATOM      4  C   UNL     1      36.785 -23.595 -11.960  0.00  0.00    +0.242 C 
BRANCH   4   7
ATOM      5  O   UNL     1      34.850 -24.904 -11.493  0.00  0.00    -0.243 OA
ATOM      6  O   UNL     1      36.133 -24.161  -9.758  0.00  0.00    -0.243 OA
ATOM      7  C   UNL     1      35.821 -24.282 -10.979  0.00  0.00    +0.394 C 
ENDBRANCH   4   7
BRANCH   4   8
ATOM      8  O   UNL     1      36.017 -23.122 -13.069  0.00  0.00    -0.372 OA
ATOM      9  H   UNL     1      36.537 -23.209 -13.883  0.00  0.00    +0.211 HD
ENDBRANCH   4   8
ENDBRANCH   1   4
BRANCH   1  10
ATOM     10  C   UNL     1      37.965 -24.592 -14.005  0.00  0.00    +0.109 C 
BRANCH  10  12
ATOM     11  O   UNL     1      38.501 -26.915 -14.526  0.00  0.00    -0.284 OA
ATOM     12  C   UNL     1      38.837 -25.741 -14.464  0.00  0.00    +0.255 C 
BRANCH  12  15
ATOM     13  O   UNL     1      40.905 -24.672 -14.177  0.00  0.00    -0.237 OA
ATOM     14  O   UNL     1      40.642 -26.112 -15.925  0.00  0.00    -0.237 OA
ATOM     15  C   UNL     1      40.255 -25.486 -14.895  0.00  0.00    +0.422 C 
ENDBRANCH  12  15
ENDBRANCH  10  12
ENDBRANCH   1  10
TORSDOF 7
ENDMDL
MODEL 2
REMARK VINA RESULT:      -6.8      1.367      2.317
REMARK  Name = 5288442
REMARK  7 active torsions:
REMARK  status: ('A' for Active; 'I' for Inactive)
REMARK    1  A    between atoms: C_1  and  O_2
REMARK    2  A    between atoms: C_1  and  C_4
REMARK    3  A    between atoms: C_1  and  C_10
REMARK    4  A    between atoms: C_4  and  C_7
REMARK    5  A    between atoms: C_4  and  O_8
REMARK    6  A    between atoms: C_10  and  C_12
REMARK    7  A    between atoms: C_12  and  C_15
REMARK                            x       y       z     vdW  Elec       q    Type
REMARK                         _______ _______ _______ _____ _____    ______ ____
ROOT
ATOM      1  C   UNL     1      37.956 -24.610 -12.390  0.00  0.00    +0.156 C 
ENDROOT
BRANCH   1   2
ATOM      2  O   UNL     1      37.651 -25.948 -11.984  0.00  0.00    -0.381 OA
ATOM      3  H   UNL     1      38.416 -26.329 -11.527  0.00  0.00    +0.210 HD
ENDBRANCH   1   2
BRANCH   1   4
ATOM      4  C   UNL     1      36.817 -23.694 -11.925  0.00  0.00    +0.242 C 
BRANCH   4   7
ATOM      5  O   UNL     1      34.780 -24.867 -11.542  0.00  0.00    -0.243 OA
ATOM      6  O   UNL     1      36.051 -24.235  -9.754  0.00  0.00    -0.243 OA
ATOM      7  C   UNL     1      35.774 -24.321 -10.987  0.00  0.00    +0.394 C 
ENDBRANCH   4   7
BRANCH   4   8
ATOM      8  O   UNL     1      36.127 -23.183 -13.068  0.00  0.00    -0.372 OA
ATOM      9  H   UNL     1      36.508 -22.327 -13.320  0.00  0.00    +0.211 HD
ENDBRANCH   4   8
ENDBRANCH   1   4
BRANCH   1  10
ATOM     10  C   UNL     1      38.142 -24.623 -13.913  0.00  0.00    +0.109 C 
BRANCH  10  12
ATOM     11  O   UNL     1      38.654 -26.944 -14.464  0.00  0.00    -0.284 OA
ATOM     12  C   UNL     1      37.891 -25.989 -14.512  0.00  0.00    +0.255 C 
BRANCH  12  15
ATOM     13  O   UNL     1      36.648 -27.229 -16.068  0.00  0.00    -0.237 OA
ATOM     14  O   UNL     1      35.634 -25.509 -14.969  0.00  0.00    -0.237 OA
ATOM     15  C   UNL     1      36.609 -26.266 -15.248  0.00  0.00    +0.422 C 
ENDBRANCH  12  15
ENDBRANCH  10  12
ENDBRANCH   1  10
TORSDOF 7
ENDMDL
MODEL 3
REMARK VINA RESULT:      -6.8      1.226      5.095
REMARK  Name = 5288442
REMARK  7 active torsions:
REMARK  status: ('A' for Active; 'I' for Inactive)
REMARK    1  A    between atoms: C_1  and  O_2
REMARK    2  A    between atoms: C_1  and  C_4
REMARK    3  A    between atoms: C_1  and  C_10
REMARK    4  A    between atoms: C_4  and  C_7
REMARK    5  A    between atoms: C_4  and  O_8
REMARK    6  A    between atoms: C_10  and  C_12
REMARK    7  A    between atoms: C_12  and  C_15
REMARK                            x       y       z     vdW  Elec       q    Type
REMARK                         _______ _______ _______ _____ _____    ______ ____
ROOT
ATOM      1  C   UNL     1      37.839 -25.228 -13.591  0.00  0.00    +0.156 C 
ENDROOT
BRANCH   1   2
ATOM      2  O   UNL     1      38.685 -25.445 -12.458  0.00  0.00    -0.381 OA
ATOM      3  H   UNL     1      39.276 -24.685 -12.345  0.00  0.00    +0.210 HD
ENDBRANCH   1   2
BRANCH   1   4
ATOM      4  C   UNL     1      38.716 -25.199 -14.849  0.00  0.00    +0.242 C 
BRANCH   4   7
ATOM      5  O   UNL     1      41.020 -24.666 -14.559  0.00  0.00    -0.243 OA
ATOM      6  O   UNL     1      40.386 -26.858 -14.625  0.00  0.00    -0.243 OA
ATOM      7  C   UNL     1      40.187 -25.608 -14.667  0.00  0.00    +0.394 C 
ENDBRANCH   4   7
BRANCH   4   8
ATOM      8  O   UNL     1      38.694 -23.883 -15.408  0.00  0.00    -0.372 OA
ATOM      9  H   UNL     1      39.603 -23.585 -15.569  0.00  0.00    +0.211 HD
ENDBRANCH   4   8
ENDBRANCH   1   4
BRANCH   1  10
ATOM     10  C   UNL     1      37.076 -23.919 -13.351  0.00  0.00    +0.109 C 
BRANCH  10  12
ATOM     11  O   UNL     1      37.641 -22.809 -11.253  0.00  0.00    -0.284 OA
ATOM     12  C   UNL     1      36.942 -23.592 -11.880  0.00  0.00    +0.255 C 
BRANCH  12  15
ATOM     13  O   UNL     1      36.050 -24.213  -9.801  0.00  0.00    -0.237 OA
ATOM     14  O   UNL     1      34.924 -24.787 -11.698  0.00  0.00    -0.237 OA
ATOM     15  C   UNL     1      35.876 -24.258 -11.053  0.00  0.00    +0.422 C 
ENDBRANCH  12  15
ENDBRANCH  10  12
ENDBRANCH   1  10
TORSDOF 7
ENDMDL
MODEL 4
REMARK VINA RESULT:      -6.7      1.164      1.837
REMARK  Name = 5288442
REMARK  7 active torsions:
REMARK  status: ('A' for Active; 'I' for Inactive)
REMARK    1  A    between atoms: C_1  and  O_2
REMARK    2  A    between atoms: C_1  and  C_4
REMARK    3  A    between atoms: C_1  and  C_10
REMARK    4  A    between atoms: C_4  and  C_7
REMARK    5  A    between atoms: C_4  and  O_8
REMARK    6  A    between atoms: C_10  and  C_12
REMARK    7  A    between atoms: C_12  and  C_15
REMARK                            x       y       z     vdW  Elec       q    Type
REMARK                         _______ _______ _______ _____ _____    ______ ____
ROOT
ATOM      1  C   UNL     1      36.956 -24.423 -13.437  0.00  0.00    +0.156 C 
ENDROOT
BRANCH   1   2
ATOM      2  O   UNL     1      37.660 -23.270 -13.907  0.00  0.00    -0.381 OA
ATOM      3  H   UNL     1      38.590 -23.498 -14.061  0.00  0.00    +0.210 HD
ENDBRANCH   1   2
BRANCH   1   4
ATOM      4  C   UNL     1      35.989 -23.981 -12.332  0.00  0.00    +0.242 C 
BRANCH   4   7
ATOM      5  O   UNL     1      36.261 -24.150  -9.972  0.00  0.00    -0.243 OA
ATOM      6  O   UNL     1      37.463 -22.585 -11.119  0.00  0.00    -0.243 OA
ATOM      7  C   UNL     1      36.624 -23.527 -11.008  0.00  0.00    +0.394 C 
ENDBRANCH   4   7
BRANCH   4   8
ATOM      8  O   UNL     1      35.086 -25.051 -12.041  0.00  0.00    -0.372 OA
ATOM      9  H   UNL     1      34.220 -24.858 -12.432  0.00  0.00    +0.211 HD
ENDBRANCH   4   8
ENDBRANCH   1   4
BRANCH   1  10
ATOM     10  C   UNL     1      38.003 -25.437 -12.959  0.00  0.00    +0.109 C 
BRANCH  10  12
ATOM     11  O   UNL     1      38.316 -27.049 -14.765  0.00  0.00    -0.284 OA
ATOM     12  C   UNL     1      38.728 -26.102 -14.109  0.00  0.00    +0.255 C 
BRANCH  12  15
ATOM     13  O   UNL     1      40.609 -26.223 -15.506  0.00  0.00    -0.237 OA
ATOM     14  O   UNL     1      40.548 -24.630 -13.876  0.00  0.00    -0.237 OA
ATOM     15  C   UNL     1      40.083 -25.607 -14.534  0.00  0.00    +0.422 C 
ENDBRANCH  12  15
ENDBRANCH  10  12
ENDBRANCH   1  10
TORSDOF 7
ENDMDL
MODEL 5
REMARK VINA RESULT:      -6.6      2.026      4.933
REMARK  Name = 5288442
REMARK  7 active torsions:
REMARK  status: ('A' for Active; 'I' for Inactive)
REMARK    1  A    between atoms: C_1  and  O_2
REMARK    2  A    between atoms: C_1  and  C_4
REMARK    3  A    between atoms: C_1  and  C_10
REMARK    4  A    between atoms: C_4  and  C_7
REMARK    5  A    between atoms: C_4  and  O_8
REMARK    6  A    between atoms: C_10  and  C_12
REMARK    7  A    between atoms: C_12  and  C_15
REMARK                            x       y       z     vdW  Elec       q    Type
REMARK                         _______ _______ _______ _____ _____    ______ ____
ROOT
ATOM      1  C   UNL     1      37.924 -24.872 -13.731  0.00  0.00    +0.156 C 
ENDROOT
BRANCH   1   2
ATOM      2  O   UNL     1      36.891 -23.965 -14.127  0.00  0.00    -0.381 OA
ATOM      3  H   UNL     1      36.683 -24.100 -15.064  0.00  0.00    +0.210 HD
ENDBRANCH   1   2
BRANCH   1   4
ATOM      4  C   UNL     1      37.476 -26.296 -14.082  0.00  0.00    +0.242 C 
BRANCH   4   7
ATOM      5  O   UNL     1      36.920 -27.310 -16.165  0.00  0.00    -0.243 OA
ATOM      6  O   UNL     1      35.556 -25.686 -15.321  0.00  0.00    -0.243 OA
ATOM      7  C   UNL     1      36.570 -26.444 -15.315  0.00  0.00    +0.394 C 
ENDBRANCH   4   7
BRANCH   4   8
ATOM      8  O   UNL     1      36.789 -26.863 -12.964  0.00  0.00    -0.372 OA
ATOM      9  H   UNL     1      36.440 -26.152 -12.404  0.00  0.00    +0.211 HD
ENDBRANCH   4   8
ENDBRANCH   1   4
BRANCH   1  10
ATOM     10  C   UNL     1      38.168 -24.664 -12.231  0.00  0.00    +0.109 C 
BRANCH  10  12
ATOM     11  O   UNL     1      37.209 -22.516 -11.578  0.00  0.00    -0.284 OA
ATOM     12  C   UNL     1      37.148 -23.737 -11.605  0.00  0.00    +0.255 C 
BRANCH  12  15
ATOM     13  O   UNL     1      35.053 -24.788 -11.714  0.00  0.00    -0.237 OA
ATOM     14  O   UNL     1      35.902 -24.234  -9.672  0.00  0.00    -0.237 OA
ATOM     15  C   UNL     1      35.925 -24.303 -10.936  0.00  0.00    +0.422 C 
ENDBRANCH  12  15
ENDBRANCH  10  12
ENDBRANCH   1  10
TORSDOF 7
ENDMDL
MODEL 6
REMARK VINA RESULT:      -6.5      1.294      4.834
REMARK  Name = 5288442
REMARK  7 active torsions:
REMARK  status: ('A' for Active; 'I' for Inactive)
REMARK    1  A    between atoms: C_1  and  O_2
REMARK    2  A    between atoms: C_1  and  C_4
REMARK    3  A    between atoms: C_1  and  C_10
REMARK    4  A    between atoms: C_4  and  C_7
REMARK    5  A    between atoms: C_4  and  O_8
REMARK    6  A    between atoms: C_10  and  C_12
REMARK    7  A    between atoms: C_12  and  C_15
REMARK                            x       y       z     vdW  Elec       q    Type
REMARK                         _______ _______ _______ _____ _____    ______ ____
ROOT
ATOM      1  C   UNL     1      37.719 -24.743 -15.078  0.00  0.00    +0.156 C 
ENDROOT
BRANCH   1   2
ATOM      2  O   UNL     1      36.557 -25.521 -15.380  0.00  0.00    -0.381 OA
ATOM      3  H   UNL     1      35.841 -24.935 -15.670  0.00  0.00    +0.210 HD
ENDBRANCH   1   2
BRANCH   1   4
ATOM      4  C   UNL     1      38.757 -25.661 -14.421  0.00  0.00    +0.242 C 
BRANCH   4   7
ATOM      5  O   UNL     1      40.601 -26.094 -15.865  0.00  0.00    -0.243 OA
ATOM      6  O   UNL     1      40.870 -24.640 -14.126  0.00  0.00    -0.243 OA
ATOM      7  C   UNL     1      40.220 -25.455 -14.845  0.00  0.00    +0.394 C 
ENDBRANCH   4   7
BRANCH   4   8
ATOM      8  O   UNL     1      38.414 -27.023 -14.682  0.00  0.00    -0.372 OA
ATOM      9  H   UNL     1      39.156 -27.466 -15.123  0.00  0.00    +0.211 HD
ENDBRANCH   4   8
ENDBRANCH   1   4
BRANCH   1  10
ATOM     10  C   UNL     1      37.275 -23.584 -14.177  0.00  0.00    +0.109 C 
BRANCH  10  12
ATOM     11  O   UNL     1      35.749 -24.810 -12.719  0.00  0.00    -0.284 OA
ATOM     12  C   UNL     1      36.709 -24.065 -12.859  0.00  0.00    +0.255 C 
BRANCH  12  15
ATOM     13  O   UNL     1      36.717 -23.968 -10.515  0.00  0.00    -0.237 OA
ATOM     14  O   UNL     1      38.405 -22.955 -11.664  0.00  0.00    -0.237 OA
ATOM     15  C   UNL     1      37.334 -23.622 -11.564  0.00  0.00    +0.422 C 
ENDBRANCH  12  15
ENDBRANCH  10  12
ENDBRANCH   1  10
TORSDOF 7
ENDMDL
MODEL 7
REMARK VINA RESULT:      -6.3      1.685      2.480
REMARK  Name = 5288442
REMARK  7 active torsions:
REMARK  status: ('A' for Active; 'I' for Inactive)
REMARK    1  A    between atoms: C_1  and  O_2
REMARK    2  A    between atoms: C_1  and  C_4
REMARK    3  A    between atoms: C_1  and  C_10
REMARK    4  A    between atoms: C_4  and  C_7
REMARK    5  A    between atoms: C_4  and  O_8
REMARK    6  A    between atoms: C_10  and  C_12
REMARK    7  A    between atoms: C_12  and  C_15
REMARK                            x       y       z     vdW  Elec       q    Type
REMARK                         _______ _______ _______ _____ _____    ______ ____
ROOT
ATOM      1  C   UNL     1      36.446 -23.170 -13.459  0.00  0.00    +0.156 C 
ENDROOT
BRANCH   1   2
ATOM      2  O   UNL     1      37.751 -23.160 -12.872  0.00  0.00    -0.381 OA
ATOM      3  H   UNL     1      37.671 -23.108 -11.907  0.00  0.00    +0.210 HD
ENDBRANCH   1   2
BRANCH   1   4
ATOM      4  C   UNL     1      35.504 -23.943 -12.529  0.00  0.00    +0.242 C 
BRANCH   4   7
ATOM      5  O   UNL     1      36.571 -25.899 -11.685  0.00  0.00    -0.243 OA
ATOM      6  O   UNL     1      36.248 -24.121 -10.291  0.00  0.00    -0.243 OA
ATOM      7  C   UNL     1      36.166 -24.740 -11.392  0.00  0.00    +0.394 C 
ENDBRANCH   4   7
BRANCH   4   8
ATOM      8  O   UNL     1      34.720 -24.855 -13.302  0.00  0.00    -0.372 OA
ATOM      9  H   UNL     1      34.771 -24.609 -14.240  0.00  0.00    +0.211 HD
ENDBRANCH   4   8
ENDBRANCH   1   4
BRANCH   1  10
ATOM     10  C   UNL     1      36.574 -23.797 -14.853  0.00  0.00    +0.109 C 
BRANCH  10  12
ATOM     11  O   UNL     1      38.886 -24.578 -14.882  0.00  0.00    -0.284 OA
ATOM     12  C   UNL     1      37.688 -24.819 -14.924  0.00  0.00    +0.255 C 
BRANCH  12  15
ATOM     13  O   UNL     1      36.218 -26.543 -15.532  0.00  0.00    -0.237 OA
ATOM     14  O   UNL     1      38.267 -27.087 -14.694  0.00  0.00    -0.237 OA
ATOM     15  C   UNL     1      37.363 -26.281 -15.062  0.00  0.00    +0.422 C 
ENDBRANCH  12  15
ENDBRANCH  10  12
ENDBRANCH   1  10
TORSDOF 7
ENDMDL
MODEL 8
REMARK VINA RESULT:      -6.2      2.110      4.888
REMARK  Name = 5288442
REMARK  7 active torsions:
REMARK  status: ('A' for Active; 'I' for Inactive)
REMARK    1  A    between atoms: C_1  and  O_2
REMARK    2  A    between atoms: C_1  and  C_4
REMARK    3  A    between atoms: C_1  and  C_10
REMARK    4  A    between atoms: C_4  and  C_7
REMARK    5  A    between atoms: C_4  and  O_8
REMARK    6  A    between atoms: C_10  and  C_12
REMARK    7  A    between atoms: C_12  and  C_15
REMARK                            x       y       z     vdW  Elec       q    Type
REMARK                         _______ _______ _______ _____ _____    ______ ____
ROOT
ATOM      1  C   UNL     1      37.045 -24.329 -14.380  0.00  0.00    +0.156 C 
ENDROOT
BRANCH   1   2
ATOM      2  O   UNL     1      37.127 -23.931 -15.753  0.00  0.00    -0.381 OA
ATOM      3  H   UNL     1      36.456 -24.405 -16.268  0.00  0.00    +0.210 HD
ENDBRANCH   1   2
BRANCH   1   4
ATOM      4  C   UNL     1      36.478 -25.753 -14.325  0.00  0.00    +0.242 C 
BRANCH   4   7
ATOM      5  O   UNL     1      38.346 -27.203 -14.613  0.00  0.00    -0.243 OA
ATOM      6  O   UNL     1      36.669 -27.229 -16.162  0.00  0.00    -0.243 OA
ATOM      7  C   UNL     1      37.247 -26.827 -15.110  0.00  0.00    +0.394 C 
ENDBRANCH   4   7
BRANCH   4   8
ATOM      8  O   UNL     1      35.131 -25.743 -14.802  0.00  0.00    -0.372 OA
ATOM      9  H   UNL     1      34.728 -24.879 -14.617  0.00  0.00    +0.211 HD
ENDBRANCH   4   8
ENDBRANCH   1   4
BRANCH   1  10
ATOM     10  C   UNL     1      36.171 -23.298 -13.655  0.00  0.00    +0.109 C 
BRANCH  10  12
ATOM     11  O   UNL     1      34.700 -24.368 -12.028  0.00  0.00    -0.284 OA
ATOM     12  C   UNL     1      35.737 -23.773 -12.285  0.00  0.00    +0.255 C 
BRANCH  12  15
ATOM     13  O   UNL     1      37.600 -22.756 -11.285  0.00  0.00    -0.237 OA
ATOM     14  O   UNL     1      36.264 -24.099 -10.016  0.00  0.00    -0.237 OA
ATOM     15  C   UNL     1      36.612 -23.521 -11.087  0.00  0.00    +0.422 C 
ENDBRANCH  12  15
ENDBRANCH  10  12
ENDBRANCH   1  10
TORSDOF 7
ENDMDL
MODEL 9
REMARK VINA RESULT:      -6.1      8.211     10.347
REMARK  Name = 5288442
REMARK  7 active torsions:
REMARK  status: ('A' for Active; 'I' for Inactive)
REMARK    1  A    between atoms: C_1  and  O_2
REMARK    2  A    between atoms: C_1  and  C_4
REMARK    3  A    between atoms: C_1  and  C_10
REMARK    4  A    between atoms: C_4  and  C_7
REMARK    5  A    between atoms: C_4  and  O_8
REMARK    6  A    between atoms: C_10  and  C_12
REMARK    7  A    between atoms: C_12  and  C_15
REMARK                            x       y       z     vdW  Elec       q    Type
REMARK                         _______ _______ _______ _____ _____    ______ ____
ROOT
ATOM      1  C   UNL     1      29.167 -24.418 -15.503  0.00  0.00    +0.156 C 
ENDROOT
BRANCH   1   2
ATOM      2  O   UNL     1      28.648 -25.176 -14.406  0.00  0.00    -0.381 OA
ATOM      3  H   UNL     1      28.106 -25.905 -14.745  0.00  0.00    +0.210 HD
ENDBRANCH   1   2
BRANCH   1   4
ATOM      4  C   UNL     1      30.689 -24.319 -15.343  0.00  0.00    +0.242 C 
BRANCH   4   7
ATOM      5  O   UNL     1      31.568 -22.800 -13.732  0.00  0.00    -0.243 OA
ATOM      6  O   UNL     1      31.195 -24.968 -13.126  0.00  0.00    -0.243 OA
ATOM      7  C   UNL     1      31.210 -23.993 -13.933  0.00  0.00    +0.394 C 
ENDBRANCH   4   7
BRANCH   4   8
ATOM      8  O   UNL     1      31.193 -23.323 -16.236  0.00  0.00    -0.372 OA
ATOM      9  H   UNL     1      30.462 -22.955 -16.756  0.00  0.00    +0.211 HD
ENDBRANCH   4   8
ENDBRANCH   1   4
BRANCH   1  10
ATOM     10  C   UNL     1      28.465 -23.054 -15.492  0.00  0.00    +0.109 C 
BRANCH  10  12
ATOM     11  O   UNL     1      27.882 -23.326 -17.846  0.00  0.00    -0.284 OA
ATOM     12  C   UNL     1      27.679 -22.802 -16.760  0.00  0.00    +0.255 C 
BRANCH  12  15
ATOM     13  O   UNL     1      25.645 -22.036 -15.878  0.00  0.00    -0.237 OA
ATOM     14  O   UNL     1      26.580 -20.911 -17.626  0.00  0.00    -0.237 OA
ATOM     15  C   UNL     1      26.532 -21.828 -16.755  0.00  0.00    +0.422 C 
ENDBRANCH  12  15
ENDBRANCH  10  12
ENDBRANCH   1  10
TORSDOF 7
ENDMDL
