MODEL 1
REMARK VINA RESULT:      -6.4      0.000      0.000
REMARK  Name = 2758978
REMARK  5 active torsions:
REMARK  status: ('A' for Active; 'I' for Inactive)
REMARK    1  A    between atoms: C_3  and  O_8
REMARK    2  A    between atoms: C_4  and  O_10
REMARK    3  A    between atoms: C_5  and  C_14
REMARK    4  A    between atoms: C_7  and  O_12
REMARK    5  A    between atoms: C_14  and  O_15
REMARK                            x       y       z     vdW  Elec       q    Type
REMARK                         _______ _______ _______ _____ _____    ______ ____
ROOT
ATOM      1  F   UNL     1      36.680 -23.381 -14.347  0.00  0.00    -0.229 F 
ATOM      2  O   UNL     1      39.122 -24.292 -13.225  0.00  0.00    -0.326 OA
ATOM      3  C   UNL     1      38.021 -25.958 -14.629  0.00  0.00    +0.170 C 
ATOM      4  C   UNL     1      36.705 -25.687 -13.905  0.00  0.00    +0.177 C 
ATOM      5  C   UNL     1      39.204 -25.637 -13.706  0.00  0.00    +0.176 C 
ATOM      6  C   UNL     1      36.694 -24.280 -13.319  0.00  0.00    +0.246 C 
ATOM      7  C   UNL     1      37.935 -24.004 -12.482  0.00  0.00    +0.268 C 
ENDROOT
BRANCH   3   8
ATOM      8  O   UNL     1      38.046 -27.332 -15.006  0.00  0.00    -0.379 OA
ATOM      9  H   UNL     1      38.949 -27.677 -14.914  0.00  0.00    +0.211 HD
ENDBRANCH   3   8
BRANCH   4  10
ATOM     10  O   UNL     1      35.622 -25.831 -14.820  0.00  0.00    -0.379 OA
ATOM     11  H   UNL     1      35.050 -26.558 -14.531  0.00  0.00    +0.211 HD
ENDBRANCH   4  10
BRANCH   7  12
ATOM     12  O   UNL     1      37.864 -24.734 -11.263  0.00  0.00    -0.358 OA
ATOM     13  H   UNL     1      38.669 -25.262 -11.155  0.00  0.00    +0.213 HD
ENDBRANCH   7  12
BRANCH   5  14
ATOM     14  C   UNL     1      40.544 -25.773 -14.423  0.00  0.00    +0.169 C 
BRANCH  14  15
ATOM     15  O   UNL     1      40.306 -25.820 -15.819  0.00  0.00    -0.379 OA
ATOM     16  H   UNL     1      41.141 -25.986 -16.284  0.00  0.00    +0.211 HD
ENDBRANCH  14  15
ENDBRANCH   5  14
TORSDOF 5
ENDMDL
MODEL 2
REMARK VINA RESULT:      -6.2      1.892      3.472
REMARK  Name = 2758978
REMARK  5 active torsions:
REMARK  status: ('A' for Active; 'I' for Inactive)
REMARK    1  A    between atoms: C_3  and  O_8
REMARK    2  A    between atoms: C_4  and  O_10
REMARK    3  A    between atoms: C_5  and  C_14
REMARK    4  A    between atoms: C_7  and  O_12
REMARK    5  A    between atoms: C_14  and  O_15
REMARK                            x       y       z     vdW  Elec       q    Type
REMARK                         _______ _______ _______ _____ _____    ______ ____
ROOT
ATOM      1  F   UNL     1      38.795 -24.560 -12.246  0.00  0.00    -0.229 F 
ATOM      2  O   UNL     1      38.368 -23.937 -14.982  0.00  0.00    -0.326 OA
ATOM      3  C   UNL     1      36.373 -24.784 -13.860  0.00  0.00    +0.170 C 
ATOM      4  C   UNL     1      37.195 -25.933 -13.281  0.00  0.00    +0.177 C 
ATOM      5  C   UNL     1      36.998 -24.301 -15.175  0.00  0.00    +0.176 C 
ATOM      6  C   UNL     1      38.665 -25.544 -13.184  0.00  0.00    +0.246 C 
ATOM      7  C   UNL     1      39.197 -24.999 -14.501  0.00  0.00    +0.268 C 
ENDROOT
BRANCH   3   8
ATOM      8  O   UNL     1      35.047 -25.257 -14.087  0.00  0.00    -0.379 OA
ATOM      9  H   UNL     1      34.418 -24.529 -13.961  0.00  0.00    +0.211 HD
ENDBRANCH   3   8
BRANCH   4  10
ATOM     10  O   UNL     1      36.703 -26.263 -11.986  0.00  0.00    -0.379 OA
ATOM     11  H   UNL     1      37.282 -25.876 -11.312  0.00  0.00    +0.211 HD
ENDBRANCH   4  10
BRANCH   7  12
ATOM     12  O   UNL     1      39.327 -26.058 -15.442  0.00  0.00    -0.358 OA
ATOM     13  H   UNL     1      40.158 -25.957 -15.931  0.00  0.00    +0.213 HD
ENDBRANCH   7  12
BRANCH   5  14
ATOM     14  C   UNL     1      36.285 -23.073 -15.732  0.00  0.00    +0.169 C 
BRANCH  14  15
ATOM     15  O   UNL     1      35.167 -23.505 -16.486  0.00  0.00    -0.379 OA
ATOM     16  H   UNL     1      34.582 -24.037 -15.924  0.00  0.00    +0.211 HD
ENDBRANCH  14  15
ENDBRANCH   5  14
TORSDOF 5
ENDMDL
MODEL 3
REMARK VINA RESULT:      -6.1      1.852      2.212
REMARK  Name = 2758978
REMARK  5 active torsions:
REMARK  status: ('A' for Active; 'I' for Inactive)
REMARK    1  A    between atoms: C_3  and  O_8
REMARK    2  A    between atoms: C_4  and  O_10
REMARK    3  A    between atoms: C_5  and  C_14
REMARK    4  A    between atoms: C_7  and  O_12
REMARK    5  A    between atoms: C_14  and  O_15
REMARK                            x       y       z     vdW  Elec       q    Type
REMARK                         _______ _______ _______ _____ _____    ______ ____
ROOT
ATOM      1  F   UNL     1      37.068 -24.093 -11.698  0.00  0.00    -0.229 F 
ATOM      2  O   UNL     1      38.673 -25.985 -13.075  0.00  0.00    -0.326 OA
ATOM      3  C   UNL     1      37.964 -24.117 -14.476  0.00  0.00    +0.170 C 
ATOM      4  C   UNL     1      36.533 -24.295 -13.976  0.00  0.00    +0.177 C 
ATOM      5  C   UNL     1      38.717 -25.452 -14.401  0.00  0.00    +0.176 C 
ATOM      6  C   UNL     1      36.522 -24.957 -12.604  0.00  0.00    +0.246 C 
ATOM      7  C   UNL     1      37.353 -26.232 -12.582  0.00  0.00    +0.268 C 
ENDROOT
BRANCH   3   8
ATOM      8  O   UNL     1      37.910 -23.654 -15.823  0.00  0.00    -0.379 OA
ATOM      9  H   UNL     1      38.296 -22.764 -15.875  0.00  0.00    +0.211 HD
ENDBRANCH   3   8
BRANCH   4  10
ATOM     10  O   UNL     1      35.897 -23.022 -13.896  0.00  0.00    -0.379 OA
ATOM     11  H   UNL     1      36.204 -22.557 -13.102  0.00  0.00    +0.211 HD
ENDBRANCH   4  10
BRANCH   7  12
ATOM     12  O   UNL     1      36.682 -27.255 -13.309  0.00  0.00    -0.358 OA
ATOM     13  H   UNL     1      35.810 -27.412 -12.916  0.00  0.00    +0.213 HD
ENDBRANCH   7  12
BRANCH   5  14
ATOM     14  C   UNL     1      40.188 -25.302 -14.774  0.00  0.00    +0.169 C 
BRANCH  14  15
ATOM     15  O   UNL     1      40.376 -25.814 -16.081  0.00  0.00    -0.379 OA
ATOM     16  H   UNL     1      40.780 -25.133 -16.641  0.00  0.00    +0.211 HD
ENDBRANCH  14  15
ENDBRANCH   5  14
TORSDOF 5
ENDMDL
MODEL 4
REMARK VINA RESULT:      -6.1      1.660      2.102
REMARK  Name = 2758978
REMARK  5 active torsions:
REMARK  status: ('A' for Active; 'I' for Inactive)
REMARK    1  A    between atoms: C_3  and  O_8
REMARK    2  A    between atoms: C_4  and  O_10
REMARK    3  A    between atoms: C_5  and  C_14
REMARK    4  A    between atoms: C_7  and  O_12
REMARK    5  A    between atoms: C_14  and  O_15
REMARK                            x       y       z     vdW  Elec       q    Type
REMARK                         _______ _______ _______ _____ _____    ______ ____
ROOT
ATOM      1  F   UNL     1      35.522 -23.222 -13.592  0.00  0.00    -0.229 F 
ATOM      2  O   UNL     1      38.294 -23.824 -13.629  0.00  0.00    -0.326 OA
ATOM      3  C   UNL     1      36.917 -25.656 -12.789  0.00  0.00    +0.170 C 
ATOM      4  C   UNL     1      36.187 -24.677 -11.874  0.00  0.00    +0.177 C 
ATOM      5  C   UNL     1      38.334 -25.145 -13.082  0.00  0.00    +0.176 C 
ATOM      6  C   UNL     1      36.252 -23.263 -12.439  0.00  0.00    +0.246 C 
ATOM      7  C   UNL     1      37.677 -22.853 -12.781  0.00  0.00    +0.268 C 
ENDROOT
BRANCH   3   8
ATOM      8  O   UNL     1      36.972 -26.921 -12.134  0.00  0.00    -0.379 OA
ATOM      9  H   UNL     1      36.241 -27.479 -12.444  0.00  0.00    +0.211 HD
ENDBRANCH   3   8
BRANCH   4  10
ATOM     10  O   UNL     1      34.826 -25.076 -11.742  0.00  0.00    -0.379 OA
ATOM     11  H   UNL     1      34.783 -26.032 -11.588  0.00  0.00    +0.211 HD
ENDBRANCH   4  10
BRANCH   7  12
ATOM     12  O   UNL     1      38.412 -22.629 -11.583  0.00  0.00    -0.358 OA
ATOM     13  H   UNL     1      39.028 -21.892 -11.715  0.00  0.00    +0.213 HD
ENDBRANCH   7  12
BRANCH   5  14
ATOM     14  C   UNL     1      39.064 -26.025 -14.091  0.00  0.00    +0.169 C 
BRANCH  14  15
ATOM     15  O   UNL     1      38.165 -27.014 -14.561  0.00  0.00    -0.379 OA
ATOM     16  H   UNL     1      38.539 -27.446 -15.345  0.00  0.00    +0.211 HD
ENDBRANCH  14  15
ENDBRANCH   5  14
TORSDOF 5
ENDMDL
MODEL 5
REMARK VINA RESULT:      -6.1      1.441      4.134
REMARK  Name = 2758978
REMARK  5 active torsions:
REMARK  status: ('A' for Active; 'I' for Inactive)
REMARK    1  A    between atoms: C_3  and  O_8
REMARK    2  A    between atoms: C_4  and  O_10
REMARK    3  A    between atoms: C_5  and  C_14
REMARK    4  A    between atoms: C_7  and  O_12
REMARK    5  A    between atoms: C_14  and  O_15
REMARK                            x       y       z     vdW  Elec       q    Type
REMARK                         _______ _______ _______ _____ _____    ______ ____
ROOT
ATOM      1  F   UNL     1      37.859 -23.818 -15.331  0.00  0.00    -0.229 F 
ATOM      2  O   UNL     1      35.617 -24.841 -13.925  0.00  0.00    -0.326 OA
ATOM      3  C   UNL     1      37.609 -24.611 -12.533  0.00  0.00    +0.170 C 
ATOM      4  C   UNL     1      38.433 -25.310 -13.612  0.00  0.00    +0.177 C 
ATOM      5  C   UNL     1      36.145 -25.064 -12.615  0.00  0.00    +0.176 C 
ATOM      6  C   UNL     1      37.786 -25.135 -14.980  0.00  0.00    +0.246 C 
ATOM      7  C   UNL     1      36.315 -25.528 -14.967  0.00  0.00    +0.268 C 
ENDROOT
BRANCH   3   8
ATOM      8  O   UNL     1      38.162 -24.947 -11.263  0.00  0.00    -0.379 OA
ATOM      9  H   UNL     1      38.386 -25.891 -11.247  0.00  0.00    +0.211 HD
ENDBRANCH   3   8
BRANCH   4  10
ATOM     10  O   UNL     1      39.748 -24.762 -13.633  0.00  0.00    -0.379 OA
ATOM     11  H   UNL     1      39.696 -23.801 -13.747  0.00  0.00    +0.211 HD
ENDBRANCH   4  10
BRANCH   7  12
ATOM     12  O   UNL     1      36.197 -26.942 -14.863  0.00  0.00    -0.358 OA
ATOM     13  H   UNL     1      36.986 -27.361 -15.239  0.00  0.00    +0.213 HD
ENDBRANCH   7  12
BRANCH   5  14
ATOM     14  C   UNL     1      35.254 -24.303 -11.638  0.00  0.00    +0.169 C 
BRANCH  14  15
ATOM     15  O   UNL     1      35.285 -24.967 -10.388  0.00  0.00    -0.379 OA
ATOM     16  H   UNL     1      34.614 -24.586  -9.801  0.00  0.00    +0.211 HD
ENDBRANCH  14  15
ENDBRANCH   5  14
TORSDOF 5
ENDMDL
MODEL 6
REMARK VINA RESULT:      -6.0      2.005      3.259
REMARK  Name = 2758978
REMARK  5 active torsions:
REMARK  status: ('A' for Active; 'I' for Inactive)
REMARK    1  A    between atoms: C_3  and  O_8
REMARK    2  A    between atoms: C_4  and  O_10
REMARK    3  A    between atoms: C_5  and  C_14
REMARK    4  A    between atoms: C_7  and  O_12
REMARK    5  A    between atoms: C_14  and  O_15
REMARK                            x       y       z     vdW  Elec       q    Type
REMARK                         _______ _______ _______ _____ _____    ______ ____
ROOT
ATOM      1  F   UNL     1      37.027 -27.061 -13.460  0.00  0.00    -0.229 F 
ATOM      2  O   UNL     1      36.123 -24.390 -13.138  0.00  0.00    -0.326 OA
ATOM      3  C   UNL     1      37.893 -24.618 -14.804  0.00  0.00    +0.170 C 
ATOM      4  C   UNL     1      38.703 -25.455 -13.816  0.00  0.00    +0.177 C 
ATOM      5  C   UNL     1      36.961 -23.666 -14.043  0.00  0.00    +0.176 C 
ATOM      6  C   UNL     1      37.785 -26.132 -12.806  0.00  0.00    +0.246 C 
ATOM      7  C   UNL     1      36.834 -25.140 -12.150  0.00  0.00    +0.268 C 
ENDROOT
BRANCH   3   8
ATOM      8  O   UNL     1      38.804 -23.879 -15.612  0.00  0.00    -0.379 OA
ATOM      9  H   UNL     1      38.334 -23.148 -16.045  0.00  0.00    +0.211 HD
ENDBRANCH   3   8
BRANCH   4  10
ATOM     10  O   UNL     1      39.441 -26.445 -14.528  0.00  0.00    -0.379 OA
ATOM     11  H   UNL     1      40.388 -26.320 -14.365  0.00  0.00    +0.211 HD
ENDBRANCH   4  10
BRANCH   7  12
ATOM     12  O   UNL     1      37.555 -24.309 -11.248  0.00  0.00    -0.358 OA
ATOM     13  H   UNL     1      37.827 -23.497 -11.703  0.00  0.00    +0.213 HD
ENDBRANCH   7  12
BRANCH   5  14
ATOM     14  C   UNL     1      36.040 -22.894 -14.983  0.00  0.00    +0.169 C 
BRANCH  14  15
ATOM     15  O   UNL     1      35.874 -23.646 -16.171  0.00  0.00    -0.379 OA
ATOM     16  H   UNL     1      36.709 -24.085 -16.396  0.00  0.00    +0.211 HD
ENDBRANCH  14  15
ENDBRANCH   5  14
TORSDOF 5
ENDMDL
MODEL 7
REMARK VINA RESULT:      -6.0      1.824      3.518
REMARK  Name = 2758978
REMARK  5 active torsions:
REMARK  status: ('A' for Active; 'I' for Inactive)
REMARK    1  A    between atoms: C_3  and  O_8
REMARK    2  A    between atoms: C_4  and  O_10
REMARK    3  A    between atoms: C_5  and  C_14
REMARK    4  A    between atoms: C_7  and  O_12
REMARK    5  A    between atoms: C_14  and  O_15
REMARK                            x       y       z     vdW  Elec       q    Type
REMARK                         _______ _______ _______ _____ _____    ______ ____
ROOT
ATOM      1  F   UNL     1      38.409 -26.869 -14.262  0.00  0.00    -0.229 F 
ATOM      2  O   UNL     1      38.568 -24.164 -13.419  0.00  0.00    -0.326 OA
ATOM      3  C   UNL     1      36.292 -25.048 -13.410  0.00  0.00    +0.170 C 
ATOM      4  C   UNL     1      36.511 -25.602 -14.816  0.00  0.00    +0.177 C 
ATOM      5  C   UNL     1      37.197 -23.831 -13.179  0.00  0.00    +0.176 C 
ATOM      6  C   UNL     1      37.993 -25.851 -15.071  0.00  0.00    +0.246 C 
ATOM      7  C   UNL     1      38.838 -24.628 -14.744  0.00  0.00    +0.268 C 
ENDROOT
BRANCH   3   8
ATOM      8  O   UNL     1      34.922 -24.677 -13.287  0.00  0.00    -0.379 OA
ATOM      9  H   UNL     1      34.459 -25.327 -12.736  0.00  0.00    +0.211 HD
ENDBRANCH   3   8
BRANCH   4  10
ATOM     10  O   UNL     1      35.791 -26.823 -14.962  0.00  0.00    -0.379 OA
ATOM     11  H   UNL     1      34.887 -26.632 -15.253  0.00  0.00    +0.211 HD
ENDBRANCH   4  10
BRANCH   7  12
ATOM     12  O   UNL     1      38.627 -23.622 -15.728  0.00  0.00    -0.358 OA
ATOM     13  H   UNL     1      37.716 -23.675 -16.054  0.00  0.00    +0.213 HD
ENDBRANCH   7  12
BRANCH   5  14
ATOM     14  C   UNL     1      37.107 -23.313 -11.747  0.00  0.00    +0.169 C 
BRANCH  14  15
ATOM     15  O   UNL     1      36.871 -24.412 -10.885  0.00  0.00    -0.379 OA
ATOM     16  H   UNL     1      36.467 -25.137 -11.386  0.00  0.00    +0.211 HD
ENDBRANCH  14  15
ENDBRANCH   5  14
TORSDOF 5
ENDMDL
MODEL 8
REMARK VINA RESULT:      -5.9      2.213      3.800
REMARK  Name = 2758978
REMARK  5 active torsions:
REMARK  status: ('A' for Active; 'I' for Inactive)
REMARK    1  A    between atoms: C_3  and  O_8
REMARK    2  A    between atoms: C_4  and  O_10
REMARK    3  A    between atoms: C_5  and  C_14
REMARK    4  A    between atoms: C_7  and  O_12
REMARK    5  A    between atoms: C_14  and  O_15
REMARK                            x       y       z     vdW  Elec       q    Type
REMARK                         _______ _______ _______ _____ _____    ______ ____
ROOT
ATOM      1  F   UNL     1      38.009 -23.491 -15.231  0.00  0.00    -0.229 F 
ATOM      2  O   UNL     1      35.946 -23.166 -13.310  0.00  0.00    -0.326 OA
ATOM      3  C   UNL     1      36.957 -25.387 -13.277  0.00  0.00    +0.170 C 
ATOM      4  C   UNL     1      36.816 -25.466 -14.795  0.00  0.00    +0.177 C 
ATOM      5  C   UNL     1      35.884 -24.457 -12.697  0.00  0.00    +0.176 C 
ATOM      6  C   UNL     1      36.784 -24.069 -15.404  0.00  0.00    +0.246 C 
ATOM      7  C   UNL     1      35.754 -23.177 -14.727  0.00  0.00    +0.268 C 
ENDROOT
BRANCH   3   8
ATOM      8  O   UNL     1      36.810 -26.703 -12.748  0.00  0.00    -0.379 OA
ATOM      9  H   UNL     1      37.014 -26.695 -11.799  0.00  0.00    +0.211 HD
ENDBRANCH   3   8
BRANCH   4  10
ATOM     10  O   UNL     1      37.911 -26.198 -15.336  0.00  0.00    -0.379 OA
ATOM     11  H   UNL     1      37.592 -27.040 -15.693  0.00  0.00    +0.211 HD
ENDBRANCH   4  10
BRANCH   7  12
ATOM     12  O   UNL     1      34.444 -23.592 -15.096  0.00  0.00    -0.358 OA
ATOM     13  H   UNL     1      34.446 -24.542 -15.285  0.00  0.00    +0.213 HD
ENDBRANCH   7  12
BRANCH   5  14
ATOM     14  C   UNL     1      36.058 -24.247 -11.196  0.00  0.00    +0.169 C 
BRANCH  14  15
ATOM     15  O   UNL     1      35.294 -25.223 -10.512  0.00  0.00    -0.379 OA
ATOM     16  H   UNL     1      34.952 -25.871 -11.148  0.00  0.00    +0.211 HD
ENDBRANCH  14  15
ENDBRANCH   5  14
TORSDOF 5
ENDMDL
MODEL 9
REMARK VINA RESULT:      -5.8      2.196      4.159
REMARK  Name = 2758978
REMARK  5 active torsions:
REMARK  status: ('A' for Active; 'I' for Inactive)
REMARK    1  A    between atoms: C_3  and  O_8
REMARK    2  A    between atoms: C_4  and  O_10
REMARK    3  A    between atoms: C_5  and  C_14
REMARK    4  A    between atoms: C_7  and  O_12
REMARK    5  A    between atoms: C_14  and  O_15
REMARK                            x       y       z     vdW  Elec       q    Type
REMARK                         _______ _______ _______ _____ _____    ______ ____
ROOT
ATOM      1  F   UNL     1      38.522 -24.263 -12.589  0.00  0.00    -0.229 F 
ATOM      2  O   UNL     1      36.694 -25.132 -14.578  0.00  0.00    -0.326 OA
ATOM      3  C   UNL     1      35.632 -23.896 -12.761  0.00  0.00    +0.170 C 
ATOM      4  C   UNL     1      36.386 -24.754 -11.747  0.00  0.00    +0.177 C 
ATOM      5  C   UNL     1      35.438 -24.676 -14.068  0.00  0.00    +0.176 C 
ATOM      6  C   UNL     1      37.669 -25.304 -12.358  0.00  0.00    +0.246 C 
ATOM      7  C   UNL     1      37.413 -25.994 -13.691  0.00  0.00    +0.268 C 
ENDROOT
BRANCH   3   8
ATOM      8  O   UNL     1      34.369 -23.551 -12.198  0.00  0.00    -0.379 OA
ATOM      9  H   UNL     1      33.658 -23.876 -12.774  0.00  0.00    +0.211 HD
ENDBRANCH   3   8
BRANCH   4  10
ATOM     10  O   UNL     1      36.703 -23.967 -10.603  0.00  0.00    -0.379 OA
ATOM     11  H   UNL     1      36.833 -23.044 -10.871  0.00  0.00    +0.211 HD
ENDBRANCH   4  10
BRANCH   7  12
ATOM     12  O   UNL     1      36.744 -27.230 -13.471  0.00  0.00    -0.358 OA
ATOM     13  H   UNL     1      37.371 -27.878 -13.115  0.00  0.00    +0.213 HD
ENDBRANCH   7  12
BRANCH   5  14
ATOM     14  C   UNL     1      34.798 -23.821 -15.156  0.00  0.00    +0.169 C 
BRANCH  14  15
ATOM     15  O   UNL     1      34.948 -22.457 -14.805  0.00  0.00    -0.379 OA
ATOM     16  H   UNL     1      35.664 -22.366 -14.157  0.00  0.00    +0.211 HD
ENDBRANCH  14  15
ENDBRANCH   5  14
TORSDOF 5
ENDMDL
