MODEL 1
REMARK VINA RESULT:      -8.9      0.000      0.000
REMARK  Name = 13116
REMARK  5 active torsions:
REMARK  status: ('A' for Active; 'I' for Inactive)
REMARK    1  A    between atoms: C_7  and  O_22
REMARK    2  A    between atoms: C_9  and  C_24
REMARK    3  A    between atoms: C_16  and  N_19
REMARK    4  A    between atoms: C_24  and  O_25
REMARK    5  A    between atoms: O_25  and  C_28
REMARK                            x       y       z     vdW  Elec       q    Type
REMARK                         _______ _______ _______ _____ _____    ______ ____
ROOT
ATOM      1  O   UNL     1      31.919 -24.537 -13.000  0.00  0.00    -0.286 OA
ATOM      2  O   UNL     1      33.747 -22.879 -17.745  0.00  0.00    -0.286 OA
ATOM      3  N   UNL     1      36.815 -23.033 -12.712  0.00  0.00    +0.389 N 
ATOM      4  N   UNL     1      34.735 -24.778 -13.693  0.00  0.00    -0.290 N 
ATOM      5  C   UNL     1      37.015 -24.271 -13.462  0.00  0.00    -0.031 C 
ATOM      6  C   UNL     1      36.365 -24.278 -12.113  0.00  0.00    -0.053 C 
ATOM      7  C   UNL     1      36.012 -24.800 -14.441  0.00  0.00    +0.141 C 
ATOM      8  C   UNL     1      34.924 -24.679 -12.252  0.00  0.00    +0.070 C 
ATOM      9  C   UNL     1      35.695 -24.003 -15.748  0.00  0.00    +0.111 C 
ATOM     10  C   UNL     1      33.735 -24.236 -14.465  0.00  0.00    +0.088 C 
ATOM     11  C   UNL     1      34.195 -23.808 -15.640  0.00  0.00    +0.042 C 
ATOM     12  C   UNL     1      37.910 -22.405 -12.010  0.00  0.00    -0.100 C 
ATOM     13  C   UNL     1      32.327 -24.121 -14.079  0.00  0.00    +0.206 C 
ATOM     14  C   UNL     1      33.313 -23.221 -16.649  0.00  0.00    +0.206 C 
ATOM     15  C   UNL     1      31.413 -23.478 -15.081  0.00  0.00    +0.034 C 
ATOM     16  C   UNL     1      31.865 -23.058 -16.283  0.00  0.00    +0.080 C 
ATOM     17  C   UNL     1      29.985 -23.361 -14.619  0.00  0.00    +0.036 C 
ATOM     18  H   UNL     1      36.403 -22.140 -12.984  0.00  0.00    -0.080 HD
ENDROOT
BRANCH  16  19
ATOM     19  N   UNL     1      31.113 -22.468 -17.262  0.00  0.00    -0.355 N 
ATOM     20  H   UNL     1      30.889 -21.512 -17.201  0.00  0.00    +0.142 HD
ATOM     21  H   UNL     1      30.797 -23.000 -18.028  0.00  0.00    +0.142 HD
ENDBRANCH  16  19
BRANCH   7  22
ATOM     22  O   UNL     1      36.347 -26.148 -14.772  0.00  0.00    -0.341 OA
ATOM     23  C   UNL     1      37.746 -26.368 -14.690  0.00  0.00    +0.176 C 
ENDBRANCH   7  22
BRANCH   9  24
ATOM     24  C   UNL     1      36.490 -22.736 -16.030  0.00  0.00    +0.218 C 
BRANCH  24  25
ATOM     25  O   UNL     1      36.666 -22.613 -17.431  0.00  0.00    -0.434 OA
BRANCH  25  28
ATOM     26  O   UNL     1      36.354 -20.960 -19.002  0.00  0.00    -0.227 OA
ATOM     27  N   UNL     1      37.464 -20.536 -17.034  0.00  0.00    -0.295 N 
ATOM     28  C   UNL     1      36.788 -21.338 -17.919  0.00  0.00    +0.398 C 
ATOM     29  H   UNL     1      37.786 -20.906 -16.180  0.00  0.00    +0.148 HD
ATOM     30  H   UNL     1      37.627 -19.590 -17.252  0.00  0.00    +0.148 HD
ENDBRANCH  25  28
ENDBRANCH  24  25
ENDBRANCH   9  24
TORSDOF 5
ENDMDL
MODEL 2
REMARK VINA RESULT:      -8.0      1.837      4.811
REMARK  Name = 13116
REMARK  5 active torsions:
REMARK  status: ('A' for Active; 'I' for Inactive)
REMARK    1  A    between atoms: C_7  and  O_22
REMARK    2  A    between atoms: C_9  and  C_24
REMARK    3  A    between atoms: C_16  and  N_19
REMARK    4  A    between atoms: C_24  and  O_25
REMARK    5  A    between atoms: O_25  and  C_28
REMARK                            x       y       z     vdW  Elec       q    Type
REMARK                         _______ _______ _______ _____ _____    ______ ____
ROOT
ATOM      1  O   UNL     1      37.294 -21.914 -17.794  0.00  0.00    -0.286 OA
ATOM      2  O   UNL     1      32.144 -23.094 -16.963  0.00  0.00    -0.286 OA
ATOM      3  N   UNL     1      36.767 -26.054 -14.811  0.00  0.00    +0.389 N 
ATOM      4  N   UNL     1      36.431 -23.238 -15.351  0.00  0.00    -0.290 N 
ATOM      5  C   UNL     1      36.326 -25.043 -13.853  0.00  0.00    -0.031 C 
ATOM      6  C   UNL     1      37.689 -24.984 -14.472  0.00  0.00    -0.053 C 
ATOM      7  C   UNL     1      35.599 -23.798 -14.261  0.00  0.00    +0.141 C 
ATOM      8  C   UNL     1      37.782 -23.784 -15.370  0.00  0.00    +0.070 C 
ATOM      9  C   UNL     1      34.171 -23.892 -14.890  0.00  0.00    +0.111 C 
ATOM     10  C   UNL     1      35.643 -22.863 -16.413  0.00  0.00    +0.088 C 
ATOM     11  C   UNL     1      34.362 -23.174 -16.211  0.00  0.00    +0.042 C 
ATOM     12  C   UNL     1      37.193 -27.361 -14.368  0.00  0.00    -0.100 C 
ATOM     13  C   UNL     1      36.114 -22.207 -17.634  0.00  0.00    +0.206 C 
ATOM     14  C   UNL     1      33.324 -22.845 -17.189  0.00  0.00    +0.206 C 
ATOM     15  C   UNL     1      35.072 -21.904 -18.671  0.00  0.00    +0.034 C 
ATOM     16  C   UNL     1      33.768 -22.196 -18.469  0.00  0.00    +0.080 C 
ATOM     17  C   UNL     1      35.618 -21.255 -19.915  0.00  0.00    +0.036 C 
ATOM     18  H   UNL     1      36.324 -26.423 -15.653  0.00  0.00    -0.080 HD
ENDROOT
BRANCH  16  19
ATOM     19  N   UNL     1      32.746 -21.955 -19.347  0.00  0.00    -0.355 N 
ATOM     20  H   UNL     1      32.765 -22.356 -20.246  0.00  0.00    +0.142 HD
ATOM     21  H   UNL     1      31.992 -21.381 -19.079  0.00  0.00    +0.142 HD
ENDBRANCH  16  19
BRANCH   7  22
ATOM     22  O   UNL     1      35.578 -22.886 -13.162  0.00  0.00    -0.341 OA
ATOM     23  C   UNL     1      35.670 -23.570 -11.922  0.00  0.00    +0.176 C 
ENDBRANCH   7  22
BRANCH   9  24
ATOM     24  C   UNL     1      33.518 -25.264 -14.993  0.00  0.00    +0.218 C 
BRANCH  24  25
ATOM     25  O   UNL     1      32.659 -25.442 -13.880  0.00  0.00    -0.434 OA
BRANCH  25  28
ATOM     26  O   UNL     1      31.248 -23.845 -13.010  0.00  0.00    -0.227 OA
ATOM     27  N   UNL     1      30.717 -24.976 -14.939  0.00  0.00    -0.295 N 
ATOM     28  C   UNL     1      31.519 -24.680 -13.866  0.00  0.00    +0.398 C 
ATOM     29  H   UNL     1      30.996 -25.661 -15.590  0.00  0.00    +0.148 HD
ATOM     30  H   UNL     1      29.860 -24.505 -15.058  0.00  0.00    +0.148 HD
ENDBRANCH  25  28
ENDBRANCH  24  25
ENDBRANCH   9  24
TORSDOF 5
ENDMDL
MODEL 3
REMARK VINA RESULT:      -7.8      2.047      4.773
REMARK  Name = 13116
REMARK  5 active torsions:
REMARK  status: ('A' for Active; 'I' for Inactive)
REMARK    1  A    between atoms: C_7  and  O_22
REMARK    2  A    between atoms: C_9  and  C_24
REMARK    3  A    between atoms: C_16  and  N_19
REMARK    4  A    between atoms: C_24  and  O_25
REMARK    5  A    between atoms: O_25  and  C_28
REMARK                            x       y       z     vdW  Elec       q    Type
REMARK                         _______ _______ _______ _____ _____    ______ ____
ROOT
ATOM      1  O   UNL     1      32.970 -22.559 -19.096  0.00  0.00    -0.286 OA
ATOM      2  O   UNL     1      37.789 -21.642 -16.965  0.00  0.00    -0.286 OA
ATOM      3  N   UNL     1      32.898 -23.056 -13.990  0.00  0.00    +0.389 N 
ATOM      4  N   UNL     1      33.788 -23.850 -16.620  0.00  0.00    -0.290 N 
ATOM      5  C   UNL     1      33.658 -24.262 -14.312  0.00  0.00    -0.031 C 
ATOM      6  C   UNL     1      32.281 -24.043 -14.860  0.00  0.00    -0.053 C 
ATOM      7  C   UNL     1      34.592 -24.347 -15.480  0.00  0.00    +0.141 C 
ATOM      8  C   UNL     1      32.357 -23.858 -16.348  0.00  0.00    +0.070 C 
ATOM      9  C   UNL     1      35.883 -23.465 -15.520  0.00  0.00    +0.111 C 
ATOM     10  C   UNL     1      34.514 -22.951 -17.365  0.00  0.00    +0.088 C 
ATOM     11  C   UNL     1      35.708 -22.711 -16.823  0.00  0.00    +0.042 C 
ATOM     12  C   UNL     1      32.244 -22.909 -12.711  0.00  0.00    -0.100 C 
ATOM     13  C   UNL     1      34.065 -22.312 -18.603  0.00  0.00    +0.206 C 
ATOM     14  C   UNL     1      36.676 -21.812 -17.453  0.00  0.00    +0.206 C 
ATOM     15  C   UNL     1      35.024 -21.349 -19.240  0.00  0.00    +0.034 C 
ATOM     16  C   UNL     1      36.245 -21.113 -18.711  0.00  0.00    +0.080 C 
ATOM     17  C   UNL     1      34.499 -20.702 -20.494  0.00  0.00    +0.036 C 
ATOM     18  H   UNL     1      33.150 -22.068 -14.038  0.00  0.00    -0.080 HD
ENDROOT
BRANCH  16  19
ATOM     19  N   UNL     1      37.188 -20.260 -19.217  0.00  0.00    -0.355 N 
ATOM     20  H   UNL     1      37.044 -19.288 -19.179  0.00  0.00    +0.142 HD
ATOM     21  H   UNL     1      38.012 -20.621 -19.620  0.00  0.00    +0.142 HD
ENDBRANCH  16  19
BRANCH   7  22
ATOM     22  O   UNL     1      34.940 -25.714 -15.703  0.00  0.00    -0.341 OA
ATOM     23  C   UNL     1      36.190 -26.031 -15.112  0.00  0.00    +0.176 C 
ENDBRANCH   7  22
BRANCH   9  24
ATOM     24  C   UNL     1      36.198 -22.595 -14.310  0.00  0.00    +0.218 C 
BRANCH  24  25
ATOM     25  O   UNL     1      37.397 -23.062 -13.716  0.00  0.00    -0.434 OA
BRANCH  25  28
ATOM     26  O   UNL     1      38.397 -22.956 -11.646  0.00  0.00    -0.227 OA
ATOM     27  N   UNL     1      36.161 -23.443 -11.863  0.00  0.00    -0.295 N 
ATOM     28  C   UNL     1      37.408 -23.137 -12.347  0.00  0.00    +0.398 C 
ATOM     29  H   UNL     1      35.409 -23.577 -12.485  0.00  0.00    +0.148 HD
ATOM     30  H   UNL     1      36.018 -23.531 -10.892  0.00  0.00    +0.148 HD
ENDBRANCH  25  28
ENDBRANCH  24  25
ENDBRANCH   9  24
TORSDOF 5
ENDMDL
MODEL 4
REMARK VINA RESULT:      -7.7      1.689      2.287
REMARK  Name = 13116
REMARK  5 active torsions:
REMARK  status: ('A' for Active; 'I' for Inactive)
REMARK    1  A    between atoms: C_7  and  O_22
REMARK    2  A    between atoms: C_9  and  C_24
REMARK    3  A    between atoms: C_16  and  N_19
REMARK    4  A    between atoms: C_24  and  O_25
REMARK    5  A    between atoms: O_25  and  C_28
REMARK                            x       y       z     vdW  Elec       q    Type
REMARK                         _______ _______ _______ _____ _____    ______ ____
ROOT
ATOM      1  O   UNL     1      31.553 -24.127 -14.499  0.00  0.00    -0.286 OA
ATOM      2  O   UNL     1      35.219 -22.739 -18.138  0.00  0.00    -0.286 OA
ATOM      3  N   UNL     1      36.128 -23.281 -12.337  0.00  0.00    +0.389 N 
ATOM      4  N   UNL     1      34.370 -24.739 -14.104  0.00  0.00    -0.290 N 
ATOM      5  C   UNL     1      36.441 -24.537 -13.015  0.00  0.00    -0.031 C 
ATOM      6  C   UNL     1      35.335 -24.454 -12.008  0.00  0.00    -0.053 C 
ATOM      7  C   UNL     1      35.822 -24.932 -14.321  0.00  0.00    +0.141 C 
ATOM      8  C   UNL     1      34.015 -24.662 -12.692  0.00  0.00    +0.070 C 
ATOM      9  C   UNL     1      36.119 -24.104 -15.614  0.00  0.00    +0.111 C 
ATOM     10  C   UNL     1      33.808 -24.073 -15.166  0.00  0.00    +0.088 C 
ATOM     11  C   UNL     1      34.726 -23.712 -16.064  0.00  0.00    +0.042 C 
ATOM     12  C   UNL     1      36.947 -22.801 -11.249  0.00  0.00    -0.100 C 
ATOM     13  C   UNL     1      32.384 -23.772 -15.328  0.00  0.00    +0.206 C 
ATOM     14  C   UNL     1      34.366 -23.017 -17.300  0.00  0.00    +0.206 C 
ATOM     15  C   UNL     1      32.000 -23.017 -16.566  0.00  0.00    +0.034 C 
ATOM     16  C   UNL     1      32.919 -22.664 -17.493  0.00  0.00    +0.080 C 
ATOM     17  C   UNL     1      30.529 -22.712 -16.665  0.00  0.00    +0.036 C 
ATOM     18  H   UNL     1      35.961 -22.342 -12.701  0.00  0.00    -0.080 HD
ENDROOT
BRANCH  16  19
ATOM     19  N   UNL     1      32.668 -21.983 -18.653  0.00  0.00    -0.355 N 
ATOM     20  H   UNL     1      32.188 -21.125 -18.625  0.00  0.00    +0.142 HD
ATOM     21  H   UNL     1      32.970 -22.351 -19.515  0.00  0.00    +0.142 HD
ENDBRANCH  16  19
BRANCH   7  22
ATOM     22  O   UNL     1      36.088 -26.314 -14.567  0.00  0.00    -0.341 OA
ATOM     23  C   UNL     1      37.177 -26.776 -13.785  0.00  0.00    +0.176 C 
ENDBRANCH   7  22
BRANCH   9  24
ATOM     24  C   UNL     1      37.112 -22.953 -15.520  0.00  0.00    +0.218 C 
BRANCH  24  25
ATOM     25  O   UNL     1      38.378 -23.409 -15.964  0.00  0.00    -0.434 OA
BRANCH  25  28
ATOM     26  O   UNL     1      39.103 -24.016 -13.866  0.00  0.00    -0.227 OA
ATOM     27  N   UNL     1      39.796 -25.155 -15.739  0.00  0.00    -0.295 N 
ATOM     28  C   UNL     1      39.092 -24.178 -15.081  0.00  0.00    +0.398 C 
ATOM     29  H   UNL     1      39.743 -25.227 -16.719  0.00  0.00    +0.148 HD
ATOM     30  H   UNL     1      40.357 -25.784 -15.229  0.00  0.00    +0.148 HD
ENDBRANCH  25  28
ENDBRANCH  24  25
ENDBRANCH   9  24
TORSDOF 5
ENDMDL
MODEL 5
REMARK VINA RESULT:      -7.2      2.108      4.542
REMARK  Name = 13116
REMARK  5 active torsions:
REMARK  status: ('A' for Active; 'I' for Inactive)
REMARK    1  A    between atoms: C_7  and  O_22
REMARK    2  A    between atoms: C_9  and  C_24
REMARK    3  A    between atoms: C_16  and  N_19
REMARK    4  A    between atoms: C_24  and  O_25
REMARK    5  A    between atoms: O_25  and  C_28
REMARK                            x       y       z     vdW  Elec       q    Type
REMARK                         _______ _______ _______ _____ _____    ______ ____
ROOT
ATOM      1  O   UNL     1      36.852 -21.437 -18.233  0.00  0.00    -0.286 OA
ATOM      2  O   UNL     1      32.910 -23.931 -15.615  0.00  0.00    -0.286 OA
ATOM      3  N   UNL     1      38.656 -25.208 -15.259  0.00  0.00    +0.389 N 
ATOM      4  N   UNL     1      37.318 -22.678 -15.642  0.00  0.00    -0.290 N 
ATOM      5  C   UNL     1      38.283 -24.265 -14.206  0.00  0.00    -0.031 C 
ATOM      6  C   UNL     1      39.267 -23.890 -15.272  0.00  0.00    -0.053 C 
ATOM      7  C   UNL     1      37.119 -23.329 -14.328  0.00  0.00    +0.141 C 
ATOM      8  C   UNL     1      38.679 -22.818 -16.143  0.00  0.00    +0.070 C 
ATOM      9  C   UNL     1      35.663 -23.893 -14.405  0.00  0.00    +0.111 C 
ATOM     10  C   UNL     1      36.141 -22.660 -16.353  0.00  0.00    +0.088 C 
ATOM     11  C   UNL     1      35.165 -23.297 -15.707  0.00  0.00    +0.042 C 
ATOM     12  C   UNL     1      39.583 -26.284 -14.998  0.00  0.00    -0.100 C 
ATOM     13  C   UNL     1      35.945 -22.034 -17.662  0.00  0.00    +0.206 C 
ATOM     14  C   UNL     1      33.808 -23.384 -16.248  0.00  0.00    +0.206 C 
ATOM     15  C   UNL     1      34.573 -22.153 -18.257  0.00  0.00    +0.034 C 
ATOM     16  C   UNL     1      33.570 -22.779 -17.602  0.00  0.00    +0.080 C 
ATOM     17  C   UNL     1      34.437 -21.515 -19.614  0.00  0.00    +0.036 C 
ATOM     18  H   UNL     1      38.086 -25.776 -15.887  0.00  0.00    -0.080 HD
ENDROOT
BRANCH  16  19
ATOM     19  N   UNL     1      32.288 -22.934 -18.057  0.00  0.00    -0.355 N 
ATOM     20  H   UNL     1      31.533 -22.882 -17.428  0.00  0.00    +0.142 HD
ATOM     21  H   UNL     1      32.122 -23.098 -19.014  0.00  0.00    +0.142 HD
ENDBRANCH  16  19
BRANCH   7  22
ATOM     22  O   UNL     1      37.198 -22.348 -13.293  0.00  0.00    -0.341 OA
ATOM     23  C   UNL     1      37.352 -22.952 -12.019  0.00  0.00    +0.176 C 
ENDBRANCH   7  22
BRANCH   9  24
ATOM     24  C   UNL     1      35.464 -25.396 -14.267  0.00  0.00    +0.218 C 
BRANCH  24  25
ATOM     25  O   UNL     1      35.603 -25.991 -15.545  0.00  0.00    -0.434 OA
BRANCH  25  28
ATOM     26  O   UNL     1      36.764 -27.654 -16.633  0.00  0.00    -0.227 OA
ATOM     27  N   UNL     1      36.538 -27.663 -14.346  0.00  0.00    -0.295 N 
ATOM     28  C   UNL     1      36.339 -27.147 -15.601  0.00  0.00    +0.398 C 
ATOM     29  H   UNL     1      36.167 -27.203 -13.558  0.00  0.00    +0.148 HD
ATOM     30  H   UNL     1      37.053 -28.495 -14.232  0.00  0.00    +0.148 HD
ENDBRANCH  25  28
ENDBRANCH  24  25
ENDBRANCH   9  24
TORSDOF 5
ENDMDL
MODEL 6
REMARK VINA RESULT:      -7.0      2.103      4.734
REMARK  Name = 13116
REMARK  5 active torsions:
REMARK  status: ('A' for Active; 'I' for Inactive)
REMARK    1  A    between atoms: C_7  and  O_22
REMARK    2  A    between atoms: C_9  and  C_24
REMARK    3  A    between atoms: C_16  and  N_19
REMARK    4  A    between atoms: C_24  and  O_25
REMARK    5  A    between atoms: O_25  and  C_28
REMARK                            x       y       z     vdW  Elec       q    Type
REMARK                         _______ _______ _______ _____ _____    ______ ____
ROOT
ATOM      1  O   UNL     1      36.454 -22.049 -18.373  0.00  0.00    -0.286 OA
ATOM      2  O   UNL     1      32.535 -23.425 -15.003  0.00  0.00    -0.286 OA
ATOM      3  N   UNL     1      38.079 -25.427 -14.871  0.00  0.00    +0.389 N 
ATOM      4  N   UNL     1      37.036 -22.846 -15.635  0.00  0.00    -0.290 N 
ATOM      5  C   UNL     1      37.944 -24.263 -13.998  0.00  0.00    -0.031 C 
ATOM      6  C   UNL     1      38.847 -24.236 -15.193  0.00  0.00    -0.053 C 
ATOM      7  C   UNL     1      36.900 -23.208 -14.206  0.00  0.00    +0.141 C 
ATOM      8  C   UNL     1      38.308 -23.270 -16.208  0.00  0.00    +0.070 C 
ATOM      9  C   UNL     1      35.385 -23.560 -14.052  0.00  0.00    +0.111 C 
ATOM     10  C   UNL     1      35.802 -22.790 -16.237  0.00  0.00    +0.088 C 
ATOM     11  C   UNL     1      34.828 -23.149 -15.401  0.00  0.00    +0.042 C 
ATOM     12  C   UNL     1      38.887 -26.559 -14.479  0.00  0.00    -0.100 C 
ATOM     13  C   UNL     1      35.546 -22.393 -17.623  0.00  0.00    +0.206 C 
ATOM     14  C   UNL     1      33.421 -23.138 -15.802  0.00  0.00    +0.206 C 
ATOM     15  C   UNL     1      34.114 -22.422 -18.070  0.00  0.00    +0.034 C 
ATOM     16  C   UNL     1      33.117 -22.765 -17.225  0.00  0.00    +0.080 C 
ATOM     17  C   UNL     1      33.915 -22.032 -19.511  0.00  0.00    +0.036 C 
ATOM     18  H   UNL     1      37.379 -26.013 -15.326  0.00  0.00    -0.080 HD
ENDROOT
BRANCH  16  19
ATOM     19  N   UNL     1      31.784 -22.815 -17.534  0.00  0.00    -0.355 N 
ATOM     20  H   UNL     1      31.439 -23.536 -18.108  0.00  0.00    +0.142 HD
ATOM     21  H   UNL     1      31.171 -22.130 -17.181  0.00  0.00    +0.142 HD
ENDBRANCH  16  19
BRANCH   7  22
ATOM     22  O   UNL     1      37.213 -22.074 -13.396  0.00  0.00    -0.341 OA
ATOM     23  C   UNL     1      37.753 -22.468 -12.144  0.00  0.00    +0.176 C 
ENDBRANCH   7  22
BRANCH   9  24
ATOM     24  C   UNL     1      35.014 -24.968 -13.605  0.00  0.00    +0.218 C 
BRANCH  24  25
ATOM     25  O   UNL     1      34.651 -24.928 -12.236  0.00  0.00    -0.434 OA
BRANCH  25  28
ATOM     26  O   UNL     1      36.590 -25.919 -11.488  0.00  0.00    -0.227 OA
ATOM     27  N   UNL     1      35.500 -24.336 -10.226  0.00  0.00    -0.295 N 
ATOM     28  C   UNL     1      35.663 -25.132 -11.333  0.00  0.00    +0.398 C 
ATOM     29  H   UNL     1      34.730 -23.726 -10.167  0.00  0.00    +0.148 HD
ATOM     30  H   UNL     1      36.155 -24.376  -9.491  0.00  0.00    +0.148 HD
ENDBRANCH  25  28
ENDBRANCH  24  25
ENDBRANCH   9  24
TORSDOF 5
ENDMDL
MODEL 7
REMARK VINA RESULT:      -6.9      7.695     11.011
REMARK  Name = 13116
REMARK  5 active torsions:
REMARK  status: ('A' for Active; 'I' for Inactive)
REMARK    1  A    between atoms: C_7  and  O_22
REMARK    2  A    between atoms: C_9  and  C_24
REMARK    3  A    between atoms: C_16  and  N_19
REMARK    4  A    between atoms: C_24  and  O_25
REMARK    5  A    between atoms: O_25  and  C_28
REMARK                            x       y       z     vdW  Elec       q    Type
REMARK                         _______ _______ _______ _____ _____    ______ ____
ROOT
ATOM      1  O   UNL     1      33.795 -17.391 -26.037  0.00  0.00    -0.286 OA
ATOM      2  O   UNL     1      34.600 -13.651 -22.300  0.00  0.00    -0.286 OA
ATOM      3  N   UNL     1      33.755 -19.403 -21.318  0.00  0.00    +0.389 N 
ATOM      4  N   UNL     1      35.067 -18.048 -23.504  0.00  0.00    -0.290 N 
ATOM      5  C   UNL     1      35.184 -19.114 -21.415  0.00  0.00    -0.031 C 
ATOM      6  C   UNL     1      34.506 -20.016 -22.400  0.00  0.00    -0.053 C 
ATOM      7  C   UNL     1      35.727 -17.947 -22.182  0.00  0.00    +0.141 C 
ATOM      8  C   UNL     1      34.502 -19.367 -23.755  0.00  0.00    +0.070 C 
ATOM      9  C   UNL     1      35.414 -16.487 -21.718  0.00  0.00    +0.111 C 
ATOM     10  C   UNL     1      34.587 -16.821 -23.897  0.00  0.00    +0.088 C 
ATOM     11  C   UNL     1      34.773 -15.894 -22.957  0.00  0.00    +0.042 C 
ATOM     12  C   UNL     1      33.253 -20.345 -20.345  0.00  0.00    -0.100 C 
ATOM     13  C   UNL     1      33.941 -16.529 -25.178  0.00  0.00    +0.206 C 
ATOM     14  C   UNL     1      34.375 -14.500 -23.157  0.00  0.00    +0.206 C 
ATOM     15  C   UNL     1      33.481 -15.115 -25.384  0.00  0.00    +0.034 C 
ATOM     16  C   UNL     1      33.682 -14.163 -24.447  0.00  0.00    +0.080 C 
ATOM     17  C   UNL     1      32.800 -14.880 -26.706  0.00  0.00    +0.036 C 
ATOM     18  H   UNL     1      32.948 -18.787 -21.222  0.00  0.00    -0.080 HD
ENDROOT
BRANCH  16  19
ATOM     19  N   UNL     1      33.307 -12.850 -24.542  0.00  0.00    -0.355 N 
ATOM     20  H   UNL     1      32.786 -12.433 -23.819  0.00  0.00    +0.142 HD
ATOM     21  H   UNL     1      33.558 -12.323 -25.335  0.00  0.00    +0.142 HD
ENDBRANCH  16  19
BRANCH   7  22
ATOM     22  O   UNL     1      37.137 -18.106 -22.340  0.00  0.00    -0.341 OA
ATOM     23  C   UNL     1      37.653 -19.067 -21.434  0.00  0.00    +0.176 C 
ENDBRANCH   7  22
BRANCH   9  24
ATOM     24  C   UNL     1      34.623 -16.294 -20.430  0.00  0.00    +0.218 C 
BRANCH  24  25
ATOM     25  O   UNL     1      33.317 -16.809 -20.619  0.00  0.00    -0.434 OA
BRANCH  25  28
ATOM     26  O   UNL     1      31.096 -16.206 -20.562  0.00  0.00    -0.227 OA
ATOM     27  N   UNL     1      32.756 -14.670 -20.150  0.00  0.00    -0.295 N 
ATOM     28  C   UNL     1      32.284 -15.922 -20.454  0.00  0.00    +0.398 C 
ATOM     29  H   UNL     1      33.726 -14.512 -20.079  0.00  0.00    +0.148 HD
ATOM     30  H   UNL     1      32.125 -13.929 -20.003  0.00  0.00    +0.148 HD
ENDBRANCH  25  28
ENDBRANCH  24  25
ENDBRANCH   9  24
TORSDOF 5
ENDMDL
MODEL 8
REMARK VINA RESULT:      -6.8      2.109      3.691
REMARK  Name = 13116
REMARK  5 active torsions:
REMARK  status: ('A' for Active; 'I' for Inactive)
REMARK    1  A    between atoms: C_7  and  O_22
REMARK    2  A    between atoms: C_9  and  C_24
REMARK    3  A    between atoms: C_16  and  N_19
REMARK    4  A    between atoms: C_24  and  O_25
REMARK    5  A    between atoms: O_25  and  C_28
REMARK                            x       y       z     vdW  Elec       q    Type
REMARK                         _______ _______ _______ _____ _____    ______ ____
ROOT
ATOM      1  O   UNL     1      32.055 -22.926 -17.430  0.00  0.00    -0.286 OA
ATOM      2  O   UNL     1      37.242 -21.962 -18.309  0.00  0.00    -0.286 OA
ATOM      3  N   UNL     1      34.825 -23.471 -13.147  0.00  0.00    +0.389 N 
ATOM      4  N   UNL     1      34.116 -24.228 -15.841  0.00  0.00    -0.290 N 
ATOM      5  C   UNL     1      35.288 -24.663 -13.854  0.00  0.00    -0.031 C 
ATOM      6  C   UNL     1      33.837 -24.459 -13.545  0.00  0.00    -0.053 C 
ATOM      7  C   UNL     1      35.420 -24.725 -15.345  0.00  0.00    +0.141 C 
ATOM      8  C   UNL     1      33.074 -24.259 -14.823  0.00  0.00    +0.070 C 
ATOM      9  C   UNL     1      36.467 -23.825 -16.079  0.00  0.00    +0.111 C 
ATOM     10  C   UNL     1      34.302 -23.313 -16.850  0.00  0.00    +0.088 C 
ATOM     11  C   UNL     1      35.595 -23.061 -17.056  0.00  0.00    +0.042 C 
ATOM     12  C   UNL     1      34.989 -23.346 -11.717  0.00  0.00    -0.100 C 
ATOM     13  C   UNL     1      33.239 -22.668 -17.623  0.00  0.00    +0.206 C 
ATOM     14  C   UNL     1      36.046 -22.142 -18.102  0.00  0.00    +0.206 C 
ATOM     15  C   UNL     1      33.678 -21.686 -18.669  0.00  0.00    +0.034 C 
ATOM     16  C   UNL     1      34.987 -21.438 -18.900  0.00  0.00    +0.080 C 
ATOM     17  C   UNL     1      32.543 -21.034 -19.412  0.00  0.00    +0.036 C 
ATOM     18  H   UNL     1      35.002 -22.480 -13.311  0.00  0.00    -0.080 HD
ENDROOT
BRANCH  16  19
ATOM     19  N   UNL     1      35.486 -20.568 -19.831  0.00  0.00    -0.355 N 
ATOM     20  H   UNL     1      35.315 -19.603 -19.744  0.00  0.00    +0.142 HD
ATOM     21  H   UNL     1      36.018 -20.908 -20.587  0.00  0.00    +0.142 HD
ENDBRANCH  16  19
BRANCH   7  22
ATOM     22  O   UNL     1      35.595 -26.085 -15.745  0.00  0.00    -0.341 OA
ATOM     23  C   UNL     1      36.607 -26.720 -14.981  0.00  0.00    +0.176 C 
ENDBRANCH   7  22
BRANCH   9  24
ATOM     24  C   UNL     1      37.394 -22.962 -15.233  0.00  0.00    +0.218 C 
BRANCH  24  25
ATOM     25  O   UNL     1      38.731 -23.366 -15.470  0.00  0.00    -0.434 OA
BRANCH  25  28
ATOM     26  O   UNL     1      38.980 -24.588 -13.535  0.00  0.00    -0.227 OA
ATOM     27  N   UNL     1      39.897 -25.302 -15.518  0.00  0.00    -0.295 N 
ATOM     28  C   UNL     1      39.183 -24.431 -14.734  0.00  0.00    +0.398 C 
ATOM     29  H   UNL     1      40.023 -25.113 -16.476  0.00  0.00    +0.148 HD
ATOM     30  H   UNL     1      40.284 -26.116 -15.122  0.00  0.00    +0.148 HD
ENDBRANCH  25  28
ENDBRANCH  24  25
ENDBRANCH   9  24
TORSDOF 5
ENDMDL
MODEL 9
REMARK VINA RESULT:      -6.8      2.072      5.193
REMARK  Name = 13116
REMARK  5 active torsions:
REMARK  status: ('A' for Active; 'I' for Inactive)
REMARK    1  A    between atoms: C_7  and  O_22
REMARK    2  A    between atoms: C_9  and  C_24
REMARK    3  A    between atoms: C_16  and  N_19
REMARK    4  A    between atoms: C_24  and  O_25
REMARK    5  A    between atoms: O_25  and  C_28
REMARK                            x       y       z     vdW  Elec       q    Type
REMARK                         _______ _______ _______ _____ _____    ______ ____
ROOT
ATOM      1  O   UNL     1      34.664 -25.011 -12.075  0.00  0.00    -0.286 OA
ATOM      2  O   UNL     1      35.901 -22.746 -16.760  0.00  0.00    -0.286 OA
ATOM      3  N   UNL     1      30.835 -25.469 -15.459  0.00  0.00    +0.389 N 
ATOM      4  N   UNL     1      32.600 -23.898 -13.798  0.00  0.00    -0.290 N 
ATOM      5  C   UNL     1      30.718 -24.036 -15.196  0.00  0.00    -0.031 C 
ATOM      6  C   UNL     1      30.595 -25.039 -14.091  0.00  0.00    -0.053 C 
ATOM      7  C   UNL     1      31.898 -23.169 -14.879  0.00  0.00    +0.141 C 
ATOM      8  C   UNL     1      31.759 -24.898 -13.153  0.00  0.00    +0.070 C 
ATOM      9  C   UNL     1      33.010 -22.931 -15.952  0.00  0.00    +0.111 C 
ATOM     10  C   UNL     1      33.950 -23.946 -14.049  0.00  0.00    +0.088 C 
ATOM     11  C   UNL     1      34.255 -23.397 -15.224  0.00  0.00    +0.042 C 
ATOM     12  C   UNL     1      29.741 -26.208 -16.043  0.00  0.00    -0.100 C 
ATOM     13  C   UNL     1      34.961 -24.525 -13.161  0.00  0.00    +0.206 C 
ATOM     14  C   UNL     1      35.636 -23.301 -15.698  0.00  0.00    +0.206 C 
ATOM     15  C   UNL     1      36.380 -24.479 -13.650  0.00  0.00    +0.034 C 
ATOM     16  C   UNL     1      36.702 -23.907 -14.831  0.00  0.00    +0.080 C 
ATOM     17  C   UNL     1      37.371 -25.113 -12.710  0.00  0.00    +0.036 C 
ATOM     18  H   UNL     1      31.541 -26.006 -15.962  0.00  0.00    -0.080 HD
ENDROOT
BRANCH  16  19
ATOM     19  N   UNL     1      37.961 -23.811 -15.359  0.00  0.00    -0.355 N 
ATOM     20  H   UNL     1      38.573 -23.106 -15.047  0.00  0.00    +0.142 HD
ATOM     21  H   UNL     1      38.255 -24.448 -16.051  0.00  0.00    +0.142 HD
ENDBRANCH  16  19
BRANCH   7  22
ATOM     22  O   UNL     1      31.436 -21.912 -14.383  0.00  0.00    -0.341 OA
ATOM     23  C   UNL     1      30.050 -21.738 -14.630  0.00  0.00    +0.176 C 
ENDBRANCH   7  22
BRANCH   9  24
ATOM     24  C   UNL     1      32.813 -23.529 -17.339  0.00  0.00    +0.218 C 
BRANCH  24  25
ATOM     25  O   UNL     1      32.487 -22.486 -18.241  0.00  0.00    -0.434 OA
BRANCH  25  28
ATOM     26  O   UNL     1      34.385 -22.916 -19.470  0.00  0.00    -0.227 OA
ATOM     27  N   UNL     1      33.110 -21.045 -19.868  0.00  0.00    -0.295 N 
ATOM     28  C   UNL     1      33.414 -22.213 -19.214  0.00  0.00    +0.398 C 
ATOM     29  H   UNL     1      32.312 -20.529 -19.609  0.00  0.00    +0.148 HD
ATOM     30  H   UNL     1      33.690 -20.723 -20.595  0.00  0.00    +0.148 HD
ENDBRANCH  25  28
ENDBRANCH  24  25
ENDBRANCH   9  24
TORSDOF 5
ENDMDL
