MODEL 1
REMARK VINA RESULT:      -6.5      0.000      0.000
REMARK  Name = 123938
REMARK  11 active torsions:
REMARK  status: ('A' for Active; 'I' for Inactive)
REMARK    1  A    between atoms: N_2  and  C_16
REMARK    2  A    between atoms: C_3  and  C_5
REMARK    3  A    between atoms: C_5  and  C_6
REMARK    4  A    between atoms: C_6  and  C_7
REMARK    5  A    between atoms: C_7  and  N_8
REMARK    6  A    between atoms: C_7  and  C_13
REMARK    7  A    between atoms: C_13  and  O_14
REMARK    8  A    between atoms: C_16  and  C_18
REMARK    9  A    between atoms: C_16  and  C_21
REMARK   10  A    between atoms: C_18  and  O_19
REMARK   11  A    between atoms: C_21  and  S_22
REMARK                            x       y       z     vdW  Elec       q    Type
REMARK                         _______ _______ _______ _____ _____    ______ ____
ROOT
ATOM      1  O   UNK     1      32.076 -24.797 -13.450  0.00  0.00    -0.275 OA
ATOM      2  N   UNK     1      33.756 -23.425 -14.280  0.00  0.00    -0.296 N 
ATOM      3  C   UNK     1      32.439 -23.762 -14.003  0.00  0.00    +0.223 C 
ATOM      4  H   UNK     1      33.938 -22.568 -14.729  0.00  0.00    +0.150 HD
ENDROOT
BRANCH   3   5
ATOM      5  C   UNK     1      31.476 -22.690 -14.481  0.00  0.00    +0.083 C 
BRANCH   5   6
ATOM      6  C   UNK     1      30.719 -23.106 -15.745  0.00  0.00    -0.001 C 
BRANCH   6   7
ATOM      7  C   UNK     1      29.246 -23.433 -15.477  0.00  0.00    +0.036 C 
BRANCH   7   8
ATOM      8  N   UNK     1      29.121 -24.840 -15.086  0.00  0.00    +0.389 N 
ATOM      9  H   UNK     1      28.226 -25.205 -15.411  0.00  0.00    -0.088 HD
ATOM     10  H   UNK     1      29.170 -24.916 -14.070  0.00  0.00    -0.088 HD
ATOM     11  H   UNK     1      29.880 -25.378 -15.504  0.00  0.00    -0.088 HD
ENDBRANCH   7   8
BRANCH   7  13
ATOM     12  O   UNK     1      27.878 -24.161 -17.358  0.00  0.00    -0.253 OA
ATOM     13  C   UNK     1      28.405 -23.253 -16.728  0.00  0.00    +0.293 C 
BRANCH  13  14
ATOM     14  O   UNK     1      28.314 -21.951 -17.104  0.00  0.00    -0.482 OA
ATOM     15  H   UNK     1      27.558 -21.448 -16.872  0.00  0.00    +0.295 HD
ENDBRANCH  13  14
ENDBRANCH   7  13
ENDBRANCH   6   7
ENDBRANCH   5   6
ENDBRANCH   3   5
BRANCH   2  16
ATOM     16  C   UNK     1      34.871 -24.276 -13.938  0.00  0.00    +0.182 C 
BRANCH  16  18
ATOM     17  O   UNK     1      36.093 -23.225 -12.126  0.00  0.00    -0.248 OA
ATOM     18  C   UNK     1      35.307 -24.089 -12.494  0.00  0.00    +0.333 C 
BRANCH  18  19
ATOM     19  O   UNK     1      34.750 -24.987 -11.647  0.00  0.00    -0.479 OA
ATOM     20  H   UNK     1      33.818 -25.054 -11.581  0.00  0.00    +0.295 HD
ENDBRANCH  18  19
ENDBRANCH  16  18
BRANCH  16  21
ATOM     21  C   UNK     1      36.034 -24.120 -14.921  0.00  0.00    +0.084 C 
BRANCH  21  22
ATOM     22  S   UNK     1      37.266 -25.462 -14.821  0.00  0.00    -0.166 S 
ATOM     23  H   UNK     1      36.829 -26.415 -13.955  0.00  0.00    +0.102 HD
ENDBRANCH  21  22
ENDBRANCH  16  21
ENDBRANCH   2  16
TORSDOF 11
ENDMDL
MODEL 2
REMARK VINA RESULT:      -6.4     10.483     11.254
REMARK  Name = 123938
REMARK  11 active torsions:
REMARK  status: ('A' for Active; 'I' for Inactive)
REMARK    1  A    between atoms: N_2  and  C_16
REMARK    2  A    between atoms: C_3  and  C_5
REMARK    3  A    between atoms: C_5  and  C_6
REMARK    4  A    between atoms: C_6  and  C_7
REMARK    5  A    between atoms: C_7  and  N_8
REMARK    6  A    between atoms: C_7  and  C_13
REMARK    7  A    between atoms: C_13  and  O_14
REMARK    8  A    between atoms: C_16  and  C_18
REMARK    9  A    between atoms: C_16  and  C_21
REMARK   10  A    between atoms: C_18  and  O_19
REMARK   11  A    between atoms: C_21  and  S_22
REMARK                            x       y       z     vdW  Elec       q    Type
REMARK                         _______ _______ _______ _____ _____    ______ ____
ROOT
ATOM      1  O   UNK     1      34.989 -15.731 -19.878  0.00  0.00    -0.275 OA
ATOM      2  N   UNK     1      34.518 -17.078 -21.711  0.00  0.00    -0.296 N 
ATOM      3  C   UNK     1      34.641 -15.865 -21.048  0.00  0.00    +0.223 C 
ATOM      4  H   UNK     1      34.230 -17.072 -22.653  0.00  0.00    +0.150 HD
ENDROOT
BRANCH   3   5
ATOM      5  C   UNK     1      34.281 -14.697 -21.949  0.00  0.00    +0.083 C 
BRANCH   5   6
ATOM      6  C   UNK     1      33.298 -15.092 -23.054  0.00  0.00    -0.001 C 
BRANCH   6   7
ATOM      7  C   UNK     1      33.880 -14.910 -24.460  0.00  0.00    +0.036 C 
BRANCH   7   8
ATOM      8  N   UNK     1      32.878 -14.284 -25.326  0.00  0.00    +0.389 N 
ATOM      9  H   UNK     1      32.016 -14.829 -25.300  0.00  0.00    -0.088 HD
ATOM     10  H   UNK     1      33.229 -14.251 -26.284  0.00  0.00    -0.088 HD
ATOM     11  H   UNK     1      32.691 -13.336 -25.000  0.00  0.00    -0.088 HD
ENDBRANCH   7   8
BRANCH   7  13
ATOM     12  O   UNK     1      33.579 -16.797 -25.974  0.00  0.00    -0.253 OA
ATOM     13  C   UNK     1      34.225 -16.247 -25.090  0.00  0.00    +0.293 C 
BRANCH  13  14
ATOM     14  O   UNK     1      35.339 -16.802 -24.544  0.00  0.00    -0.482 OA
ATOM     15  H   UNK     1      35.885 -17.362 -25.060  0.00  0.00    +0.295 HD
ENDBRANCH  13  14
ENDBRANCH   7  13
ENDBRANCH   6   7
ENDBRANCH   5   6
ENDBRANCH   3   5
BRANCH   2  16
ATOM     16  C   UNK     1      34.792 -18.347 -21.080  0.00  0.00    +0.182 C 
BRANCH  16  18
ATOM     17  O   UNK     1      36.865 -19.424 -20.429  0.00  0.00    -0.248 OA
ATOM     18  C   UNK     1      36.243 -18.765 -21.253  0.00  0.00    +0.333 C 
BRANCH  18  19
ATOM     19  O   UNK     1      36.793 -18.323 -22.410  0.00  0.00    -0.479 OA
ATOM     20  H   UNK     1      37.455 -17.661 -22.391  0.00  0.00    +0.295 HD
ENDBRANCH  18  19
ENDBRANCH  16  18
BRANCH  16  21
ATOM     21  C   UNK     1      33.815 -19.435 -21.532  0.00  0.00    +0.084 C 
BRANCH  21  22
ATOM     22  S   UNK     1      33.303 -20.565 -20.194  0.00  0.00    -0.166 S 
ATOM     23  H   UNK     1      33.882 -21.781 -20.382  0.00  0.00    +0.102 HD
ENDBRANCH  21  22
ENDBRANCH  16  21
ENDBRANCH   2  16
TORSDOF 11
ENDMDL
MODEL 3
REMARK VINA RESULT:      -6.3      8.703     10.049
REMARK  Name = 123938
REMARK  11 active torsions:
REMARK  status: ('A' for Active; 'I' for Inactive)
REMARK    1  A    between atoms: N_2  and  C_16
REMARK    2  A    between atoms: C_3  and  C_5
REMARK    3  A    between atoms: C_5  and  C_6
REMARK    4  A    between atoms: C_6  and  C_7
REMARK    5  A    between atoms: C_7  and  N_8
REMARK    6  A    between atoms: C_7  and  C_13
REMARK    7  A    between atoms: C_13  and  O_14
REMARK    8  A    between atoms: C_16  and  C_18
REMARK    9  A    between atoms: C_16  and  C_21
REMARK   10  A    between atoms: C_18  and  O_19
REMARK   11  A    between atoms: C_21  and  S_22
REMARK                            x       y       z     vdW  Elec       q    Type
REMARK                         _______ _______ _______ _____ _____    ______ ____
ROOT
ATOM      1  O   UNK     1      35.820 -18.453 -20.522  0.00  0.00    -0.275 OA
ATOM      2  N   UNK     1      34.363 -17.660 -22.148  0.00  0.00    -0.296 N 
ATOM      3  C   UNK     1      34.855 -18.611 -21.265  0.00  0.00    +0.223 C 
ATOM      4  H   UNK     1      33.582 -17.891 -22.701  0.00  0.00    +0.150 HD
ENDROOT
BRANCH   3   5
ATOM      5  C   UNK     1      34.056 -19.900 -21.330  0.00  0.00    +0.083 C 
BRANCH   5   6
ATOM      6  C   UNK     1      33.856 -20.534 -19.951  0.00  0.00    -0.001 C 
BRANCH   6   7
ATOM      7  C   UNK     1      34.625 -21.849 -19.783  0.00  0.00    +0.036 C 
BRANCH   7   8
ATOM      8  N   UNK     1      33.703 -22.904 -19.358  0.00  0.00    +0.389 N 
ATOM      9  H   UNK     1      34.066 -23.812 -19.651  0.00  0.00    -0.088 HD
ATOM     10  H   UNK     1      32.789 -22.750 -19.786  0.00  0.00    -0.088 HD
ATOM     11  H   UNK     1      33.609 -22.887 -18.343  0.00  0.00    -0.088 HD
ENDBRANCH   7   8
BRANCH   7  13
ATOM     12  O   UNK     1      35.737 -22.428 -17.693  0.00  0.00    -0.253 OA
ATOM     13  C   UNK     1      35.683 -21.734 -18.701  0.00  0.00    +0.293 C 
BRANCH  13  14
ATOM     14  O   UNK     1      36.575 -20.741 -18.956  0.00  0.00    -0.482 OA
ATOM     15  H   UNK     1      36.789 -20.120 -18.288  0.00  0.00    +0.295 HD
ENDBRANCH  13  14
ENDBRANCH   7  13
ENDBRANCH   6   7
ENDBRANCH   5   6
ENDBRANCH   3   5
BRANCH   2  16
ATOM     16  C   UNK     1      34.948 -16.348 -22.292  0.00  0.00    +0.182 C 
BRANCH  16  18
ATOM     17  O   UNK     1      33.542 -14.521 -21.540  0.00  0.00    -0.248 OA
ATOM     18  C   UNK     1      34.391 -15.364 -21.277  0.00  0.00    +0.333 C 
BRANCH  18  19
ATOM     19  O   UNK     1      34.941 -15.497 -20.046  0.00  0.00    -0.479 OA
ATOM     20  H   UNK     1      34.613 -16.144 -19.453  0.00  0.00    +0.295 HD
ENDBRANCH  18  19
ENDBRANCH  16  18
BRANCH  16  21
ATOM     21  C   UNK     1      34.841 -15.826 -23.727  0.00  0.00    +0.084 C 
BRANCH  21  22
ATOM     22  S   UNK     1      34.619 -17.140 -24.972  0.00  0.00    -0.166 S 
ATOM     23  H   UNK     1      33.596 -16.808 -25.805  0.00  0.00    +0.102 HD
ENDBRANCH  21  22
ENDBRANCH  16  21
ENDBRANCH   2  16
TORSDOF 11
ENDMDL
MODEL 4
REMARK VINA RESULT:      -6.3      3.635      7.560
REMARK  Name = 123938
REMARK  11 active torsions:
REMARK  status: ('A' for Active; 'I' for Inactive)
REMARK    1  A    between atoms: N_2  and  C_16
REMARK    2  A    between atoms: C_3  and  C_5
REMARK    3  A    between atoms: C_5  and  C_6
REMARK    4  A    between atoms: C_6  and  C_7
REMARK    5  A    between atoms: C_7  and  N_8
REMARK    6  A    between atoms: C_7  and  C_13
REMARK    7  A    between atoms: C_13  and  O_14
REMARK    8  A    between atoms: C_16  and  C_18
REMARK    9  A    between atoms: C_16  and  C_21
REMARK   10  A    between atoms: C_18  and  O_19
REMARK   11  A    between atoms: C_21  and  S_22
REMARK                            x       y       z     vdW  Elec       q    Type
REMARK                         _______ _______ _______ _____ _____    ______ ____
ROOT
ATOM      1  O   UNK     1      36.357 -23.456 -12.476  0.00  0.00    -0.275 OA
ATOM      2  N   UNK     1      35.106 -24.878 -13.822  0.00  0.00    -0.296 N 
ATOM      3  C   UNK     1      36.156 -24.562 -12.972  0.00  0.00    +0.223 C 
ATOM      4  H   UNK     1      35.039 -25.799 -14.165  0.00  0.00    +0.150 HD
ENDROOT
BRANCH   3   5
ATOM      5  C   UNK     1      37.056 -25.761 -12.726  0.00  0.00    +0.083 C 
BRANCH   5   6
ATOM      6  C   UNK     1      37.838 -26.171 -13.975  0.00  0.00    -0.001 C 
BRANCH   6   7
ATOM      7  C   UNK     1      38.981 -25.205 -14.306  0.00  0.00    +0.036 C 
BRANCH   7   8
ATOM      8  N   UNK     1      38.604 -24.374 -15.452  0.00  0.00    +0.389 N 
ATOM      9  H   UNK     1      38.553 -24.954 -16.290  0.00  0.00    -0.088 HD
ATOM     10  H   UNK     1      39.302 -23.642 -15.586  0.00  0.00    -0.088 HD
ATOM     11  H   UNK     1      37.693 -23.948 -15.279  0.00  0.00    -0.088 HD
ENDBRANCH   7   8
BRANCH   7  13
ATOM     12  O   UNK     1      41.002 -26.514 -13.931  0.00  0.00    -0.253 OA
ATOM     13  C   UNK     1      40.238 -25.955 -14.708  0.00  0.00    +0.293 C 
BRANCH  13  14
ATOM     14  O   UNK     1      40.450 -25.922 -16.049  0.00  0.00    -0.482 OA
ATOM     15  H   UNK     1      39.722 -25.903 -16.639  0.00  0.00    +0.295 HD
ENDBRANCH  13  14
ENDBRANCH   7  13
ENDBRANCH   6   7
ENDBRANCH   5   6
ENDBRANCH   3   5
BRANCH   2  16
ATOM     16  C   UNK     1      34.109 -23.916 -14.227  0.00  0.00    +0.182 C 
BRANCH  16  18
ATOM     17  O   UNK     1      32.017 -23.439 -13.096  0.00  0.00    -0.248 OA
ATOM     18  C   UNK     1      32.737 -24.250 -13.666  0.00  0.00    +0.333 C 
BRANCH  18  19
ATOM     19  O   UNK     1      32.387 -25.547 -13.845  0.00  0.00    -0.479 OA
ATOM     20  H   UNK     1      32.145 -26.073 -13.109  0.00  0.00    +0.295 HD
ENDBRANCH  18  19
ENDBRANCH  16  18
BRANCH  16  21
ATOM     21  C   UNK     1      34.086 -23.717 -15.744  0.00  0.00    +0.084 C 
BRANCH  21  22
ATOM     22  S   UNK     1      32.440 -23.290 -16.404  0.00  0.00    -0.166 S 
ATOM     23  H   UNK     1      31.869 -22.338 -15.617  0.00  0.00    +0.102 HD
ENDBRANCH  21  22
ENDBRANCH  16  21
ENDBRANCH   2  16
TORSDOF 11
ENDMDL
MODEL 5
REMARK VINA RESULT:      -6.2      8.239      9.693
REMARK  Name = 123938
REMARK  11 active torsions:
REMARK  status: ('A' for Active; 'I' for Inactive)
REMARK    1  A    between atoms: N_2  and  C_16
REMARK    2  A    between atoms: C_3  and  C_5
REMARK    3  A    between atoms: C_5  and  C_6
REMARK    4  A    between atoms: C_6  and  C_7
REMARK    5  A    between atoms: C_7  and  N_8
REMARK    6  A    between atoms: C_7  and  C_13
REMARK    7  A    between atoms: C_13  and  O_14
REMARK    8  A    between atoms: C_16  and  C_18
REMARK    9  A    between atoms: C_16  and  C_21
REMARK   10  A    between atoms: C_18  and  O_19
REMARK   11  A    between atoms: C_21  and  S_22
REMARK                            x       y       z     vdW  Elec       q    Type
REMARK                         _______ _______ _______ _____ _____    ______ ____
ROOT
ATOM      1  O   UNK     1      34.352 -19.846 -21.557  0.00  0.00    -0.275 OA
ATOM      2  N   UNK     1      35.528 -17.944 -20.929  0.00  0.00    -0.296 N 
ATOM      3  C   UNK     1      35.314 -19.312 -21.010  0.00  0.00    +0.223 C 
ATOM      4  H   UNK     1      36.334 -17.621 -20.465  0.00  0.00    +0.150 HD
ENDROOT
BRANCH   3   5
ATOM      5  C   UNK     1      36.420 -20.093 -20.322  0.00  0.00    +0.083 C 
BRANCH   5   6
ATOM      6  C   UNK     1      36.017 -21.540 -20.027  0.00  0.00    -0.001 C 
BRANCH   6   7
ATOM      7  C   UNK     1      35.090 -21.664 -18.813  0.00  0.00    +0.036 C 
BRANCH   7   8
ATOM      8  N   UNK     1      35.820 -22.278 -17.701  0.00  0.00    +0.389 N 
ATOM      9  H   UNK     1      36.633 -22.778 -18.062  0.00  0.00    -0.088 HD
ATOM     10  H   UNK     1      35.208 -22.934 -17.213  0.00  0.00    -0.088 HD
ATOM     11  H   UNK     1      36.127 -21.553 -17.053  0.00  0.00    -0.088 HD
ENDBRANCH   7   8
BRANCH   7  13
ATOM     12  O   UNK     1      33.801 -23.732 -18.738  0.00  0.00    -0.253 OA
ATOM     13  C   UNK     1      33.910 -22.571 -19.112  0.00  0.00    +0.293 C 
BRANCH  13  14
ATOM     14  O   UNK     1      32.971 -21.957 -19.879  0.00  0.00    -0.482 OA
ATOM     15  H   UNK     1      32.893 -21.023 -19.867  0.00  0.00    +0.295 HD
ENDBRANCH  13  14
ENDBRANCH   7  13
ENDBRANCH   6   7
ENDBRANCH   5   6
ENDBRANCH   3   5
BRANCH   2  16
ATOM     16  C   UNK     1      34.620 -16.974 -21.494  0.00  0.00    +0.182 C 
BRANCH  16  18
ATOM     17  O   UNK     1      35.316 -15.605 -23.371  0.00  0.00    -0.248 OA
ATOM     18  C   UNK     1      34.929 -16.691 -22.955  0.00  0.00    +0.333 C 
BRANCH  18  19
ATOM     19  O   UNK     1      34.719 -17.758 -23.762  0.00  0.00    -0.479 OA
ATOM     20  H   UNK     1      34.737 -17.652 -24.693  0.00  0.00    +0.295 HD
ENDBRANCH  18  19
ENDBRANCH  16  18
BRANCH  16  21
ATOM     21  C   UNK     1      34.552 -15.695 -20.655  0.00  0.00    +0.084 C 
BRANCH  21  22
ATOM     22  S   UNK     1      32.908 -14.907 -20.649  0.00  0.00    -0.166 S 
ATOM     23  H   UNK     1      31.985 -15.778 -21.140  0.00  0.00    +0.102 HD
ENDBRANCH  21  22
ENDBRANCH  16  21
ENDBRANCH   2  16
TORSDOF 11
ENDMDL
MODEL 6
REMARK VINA RESULT:      -6.2      2.449      2.814
REMARK  Name = 123938
REMARK  11 active torsions:
REMARK  status: ('A' for Active; 'I' for Inactive)
REMARK    1  A    between atoms: N_2  and  C_16
REMARK    2  A    between atoms: C_3  and  C_5
REMARK    3  A    between atoms: C_5  and  C_6
REMARK    4  A    between atoms: C_6  and  C_7
REMARK    5  A    between atoms: C_7  and  N_8
REMARK    6  A    between atoms: C_7  and  C_13
REMARK    7  A    between atoms: C_13  and  O_14
REMARK    8  A    between atoms: C_16  and  C_18
REMARK    9  A    between atoms: C_16  and  C_21
REMARK   10  A    between atoms: C_18  and  O_19
REMARK   11  A    between atoms: C_21  and  S_22
REMARK                            x       y       z     vdW  Elec       q    Type
REMARK                         _______ _______ _______ _____ _____    ______ ____
ROOT
ATOM      1  O   UNK     1      34.169 -23.542 -16.033  0.00  0.00    -0.275 OA
ATOM      2  N   UNK     1      34.995 -24.967 -14.395  0.00  0.00    -0.296 N 
ATOM      3  C   UNK     1      34.023 -24.178 -14.992  0.00  0.00    +0.223 C 
ATOM      4  H   UNK     1      34.773 -25.436 -13.558  0.00  0.00    +0.150 HD
ENDROOT
BRANCH   3   5
ATOM      5  C   UNK     1      32.732 -24.182 -14.193  0.00  0.00    +0.083 C 
BRANCH   5   6
ATOM      6  C   UNK     1      31.855 -22.964 -14.493  0.00  0.00    -0.001 C 
BRANCH   6   7
ATOM      7  C   UNK     1      30.503 -23.341 -15.108  0.00  0.00    +0.036 C 
BRANCH   7   8
ATOM      8  N   UNK     1      30.414 -24.797 -15.240  0.00  0.00    +0.389 N 
ATOM      9  H   UNK     1      29.611 -25.038 -15.822  0.00  0.00    -0.088 HD
ATOM     10  H   UNK     1      30.301 -25.216 -14.316  0.00  0.00    -0.088 HD
ATOM     11  H   UNK     1      31.267 -25.153 -15.672  0.00  0.00    -0.088 HD
ENDBRANCH   7   8
BRANCH   7  13
ATOM     12  O   UNK     1      29.292 -22.458 -17.031  0.00  0.00    -0.253 OA
ATOM     13  C   UNK     1      30.354 -22.768 -16.506  0.00  0.00    +0.293 C 
BRANCH  13  14
ATOM     14  O   UNK     1      31.548 -22.654 -17.145  0.00  0.00    -0.482 OA
ATOM     15  H   UNK     1      31.619 -22.123 -17.914  0.00  0.00    +0.295 HD
ENDBRANCH  13  14
ENDBRANCH   7  13
ENDBRANCH   6   7
ENDBRANCH   5   6
ENDBRANCH   3   5
BRANCH   2  16
ATOM     16  C   UNK     1      36.320 -25.130 -14.946  0.00  0.00    +0.182 C 
BRANCH  16  18
ATOM     17  O   UNK     1      36.712 -27.240 -16.076  0.00  0.00    -0.248 OA
ATOM     18  C   UNK     1      36.722 -26.593 -15.036  0.00  0.00    +0.333 C 
BRANCH  18  19
ATOM     19  O   UNK     1      37.080 -27.123 -13.842  0.00  0.00    -0.479 OA
ATOM     20  H   UNK     1      37.067 -28.051 -13.718  0.00  0.00    +0.295 HD
ENDBRANCH  18  19
ENDBRANCH  16  18
BRANCH  16  21
ATOM     21  C   UNK     1      37.358 -24.285 -14.204  0.00  0.00    +0.084 C 
BRANCH  21  22
ATOM     22  S   UNK     1      36.773 -23.643 -12.601  0.00  0.00    -0.166 S 
ATOM     23  H   UNK     1      37.608 -22.658 -12.174  0.00  0.00    +0.102 HD
ENDBRANCH  21  22
ENDBRANCH  16  21
ENDBRANCH   2  16
TORSDOF 11
ENDMDL
MODEL 7
REMARK VINA RESULT:      -6.2      2.122      2.299
REMARK  Name = 123938
REMARK  11 active torsions:
REMARK  status: ('A' for Active; 'I' for Inactive)
REMARK    1  A    between atoms: N_2  and  C_16
REMARK    2  A    between atoms: C_3  and  C_5
REMARK    3  A    between atoms: C_5  and  C_6
REMARK    4  A    between atoms: C_6  and  C_7
REMARK    5  A    between atoms: C_7  and  N_8
REMARK    6  A    between atoms: C_7  and  C_13
REMARK    7  A    between atoms: C_13  and  O_14
REMARK    8  A    between atoms: C_16  and  C_18
REMARK    9  A    between atoms: C_16  and  C_21
REMARK   10  A    between atoms: C_18  and  O_19
REMARK   11  A    between atoms: C_21  and  S_22
REMARK                            x       y       z     vdW  Elec       q    Type
REMARK                         _______ _______ _______ _____ _____    ______ ____
ROOT
ATOM      1  O   UNK     1      33.692 -22.973 -16.973  0.00  0.00    -0.275 OA
ATOM      2  N   UNK     1      34.272 -24.133 -15.045  0.00  0.00    -0.296 N 
ATOM      3  C   UNK     1      33.402 -23.437 -15.873  0.00  0.00    +0.223 C 
ATOM      4  H   UNK     1      33.936 -24.461 -14.180  0.00  0.00    +0.150 HD
ENDROOT
BRANCH   3   5
ATOM      5  C   UNK     1      32.025 -23.300 -15.248  0.00  0.00    +0.083 C 
BRANCH   5   6
ATOM      6  C   UNK     1      30.930 -23.066 -16.291  0.00  0.00    -0.001 C 
BRANCH   6   7
ATOM      7  C   UNK     1      29.526 -23.375 -15.761  0.00  0.00    +0.036 C 
BRANCH   7   8
ATOM      8  N   UNK     1      29.457 -24.779 -15.349  0.00  0.00    +0.389 N 
ATOM      9  H   UNK     1      28.492 -25.019 -15.119  0.00  0.00    -0.088 HD
ATOM     10  H   UNK     1      30.047 -24.923 -14.529  0.00  0.00    -0.088 HD
ATOM     11  H   UNK     1      29.783 -25.375 -16.110  0.00  0.00    -0.088 HD
ENDBRANCH   7   8
BRANCH   7  13
ATOM     12  O   UNK     1      27.896 -24.093 -17.425  0.00  0.00    -0.253 OA
ATOM     13  C   UNK     1      28.475 -23.186 -16.840  0.00  0.00    +0.293 C 
BRANCH  13  14
ATOM     14  O   UNK     1      28.253 -21.875 -17.118  0.00  0.00    -0.482 OA
ATOM     15  H   UNK     1      28.900 -21.378 -17.580  0.00  0.00    +0.295 HD
ENDBRANCH  13  14
ENDBRANCH   7  13
ENDBRANCH   6   7
ENDBRANCH   5   6
ENDBRANCH   3   5
BRANCH   2  16
ATOM     16  C   UNK     1      35.647 -24.394 -15.398  0.00  0.00    +0.182 C 
BRANCH  16  18
ATOM     17  O   UNK     1      36.214 -26.726 -15.749  0.00  0.00    -0.248 OA
ATOM     18  C   UNK     1      36.087 -25.786 -14.974  0.00  0.00    +0.333 C 
BRANCH  18  19
ATOM     19  O   UNK     1      36.312 -25.893 -13.642  0.00  0.00    -0.479 OA
ATOM     20  H   UNK     1      36.302 -26.735 -13.231  0.00  0.00    +0.295 HD
ENDBRANCH  18  19
ENDBRANCH  16  18
BRANCH  16  21
ATOM     21  C   UNK     1      36.589 -23.304 -14.881  0.00  0.00    +0.084 C 
BRANCH  21  22
ATOM     22  S   UNK     1      37.253 -22.224 -16.192  0.00  0.00    -0.166 S 
ATOM     23  H   UNK     1      37.521 -20.995 -15.675  0.00  0.00    +0.102 HD
ENDBRANCH  21  22
ENDBRANCH  16  21
ENDBRANCH   2  16
TORSDOF 11
ENDMDL
MODEL 8
REMARK VINA RESULT:      -6.2     11.718     13.450
REMARK  Name = 123938
REMARK  11 active torsions:
REMARK  status: ('A' for Active; 'I' for Inactive)
REMARK    1  A    between atoms: N_2  and  C_16
REMARK    2  A    between atoms: C_3  and  C_5
REMARK    3  A    between atoms: C_5  and  C_6
REMARK    4  A    between atoms: C_6  and  C_7
REMARK    5  A    between atoms: C_7  and  N_8
REMARK    6  A    between atoms: C_7  and  C_13
REMARK    7  A    between atoms: C_13  and  O_14
REMARK    8  A    between atoms: C_16  and  C_18
REMARK    9  A    between atoms: C_16  and  C_21
REMARK   10  A    between atoms: C_18  and  O_19
REMARK   11  A    between atoms: C_21  and  S_22
REMARK                            x       y       z     vdW  Elec       q    Type
REMARK                         _______ _______ _______ _____ _____    ______ ____
ROOT
ATOM      1  O   UNK     1      32.024 -13.599 -21.704  0.00  0.00    -0.275 OA
ATOM      2  N   UNK     1      33.310 -14.794 -23.226  0.00  0.00    -0.296 N 
ATOM      3  C   UNK     1      32.766 -14.539 -21.975  0.00  0.00    +0.223 C 
ATOM      4  H   UNK     1      33.896 -15.578 -23.334  0.00  0.00    +0.150 HD
ENDROOT
BRANCH   3   5
ATOM      5  C   UNK     1      33.210 -15.571 -20.952  0.00  0.00    +0.083 C 
BRANCH   5   6
ATOM      6  C   UNK     1      34.665 -16.002 -21.151  0.00  0.00    -0.001 C 
BRANCH   6   7
ATOM      7  C   UNK     1      34.797 -17.457 -21.615  0.00  0.00    +0.036 C 
BRANCH   7   8
ATOM      8  N   UNK     1      35.700 -18.178 -20.714  0.00  0.00    +0.389 N 
ATOM      9  H   UNK     1      36.607 -17.709 -20.695  0.00  0.00    -0.088 HD
ATOM     10  H   UNK     1      35.819 -19.135 -21.047  0.00  0.00    -0.088 HD
ATOM     11  H   UNK     1      35.305 -18.191 -19.774  0.00  0.00    -0.088 HD
ENDBRANCH   7   8
BRANCH   7  13
ATOM     12  O   UNK     1      35.634 -18.578 -23.611  0.00  0.00    -0.253 OA
ATOM     13  C   UNK     1      35.408 -17.539 -23.002  0.00  0.00    +0.293 C 
BRANCH  13  14
ATOM     14  O   UNK     1      35.712 -16.314 -23.504  0.00  0.00    -0.482 OA
ATOM     15  H   UNK     1      36.327 -16.235 -24.207  0.00  0.00    +0.295 HD
ENDBRANCH  13  14
ENDBRANCH   7  13
ENDBRANCH   6   7
ENDBRANCH   5   6
ENDBRANCH   3   5
BRANCH   2  16
ATOM     16  C   UNK     1      33.055 -13.958 -24.375  0.00  0.00    +0.182 C 
BRANCH  16  18
ATOM     17  O   UNK     1      33.760 -15.716 -25.890  0.00  0.00    -0.248 OA
ATOM     18  C   UNK     1      33.026 -14.761 -25.665  0.00  0.00    +0.333 C 
BRANCH  18  19
ATOM     19  O   UNK     1      32.116 -14.305 -26.559  0.00  0.00    -0.479 OA
ATOM     20  H   UNK     1      32.200 -14.521 -27.466  0.00  0.00    +0.295 HD
ENDBRANCH  18  19
ENDBRANCH  16  18
BRANCH  16  21
ATOM     21  C   UNK     1      34.021 -12.773 -24.449  0.00  0.00    +0.084 C 
BRANCH  21  22
ATOM     22  S   UNK     1      33.295 -11.197 -23.887  0.00  0.00    -0.166 S 
ATOM     23  H   UNK     1      33.992 -10.733 -22.815  0.00  0.00    +0.102 HD
ENDBRANCH  21  22
ENDBRANCH  16  21
ENDBRANCH   2  16
TORSDOF 11
ENDMDL
MODEL 9
REMARK VINA RESULT:      -6.2      3.441      7.200
REMARK  Name = 123938
REMARK  11 active torsions:
REMARK  status: ('A' for Active; 'I' for Inactive)
REMARK    1  A    between atoms: N_2  and  C_16
REMARK    2  A    between atoms: C_3  and  C_5
REMARK    3  A    between atoms: C_5  and  C_6
REMARK    4  A    between atoms: C_6  and  C_7
REMARK    5  A    between atoms: C_7  and  N_8
REMARK    6  A    between atoms: C_7  and  C_13
REMARK    7  A    between atoms: C_13  and  O_14
REMARK    8  A    between atoms: C_16  and  C_18
REMARK    9  A    between atoms: C_16  and  C_21
REMARK   10  A    between atoms: C_18  and  O_19
REMARK   11  A    between atoms: C_21  and  S_22
REMARK                            x       y       z     vdW  Elec       q    Type
REMARK                         _______ _______ _______ _____ _____    ______ ____
ROOT
ATOM      1  O   UNK     1      35.379 -25.135 -15.721  0.00  0.00    -0.275 OA
ATOM      2  N   UNK     1      34.311 -23.076 -15.862  0.00  0.00    -0.296 N 
ATOM      3  C   UNK     1      35.237 -23.973 -15.348  0.00  0.00    +0.223 C 
ATOM      4  H   UNK     1      34.280 -22.166 -15.489  0.00  0.00    +0.150 HD
ENDROOT
BRANCH   3   5
ATOM      5  C   UNK     1      36.066 -23.346 -14.241  0.00  0.00    +0.083 C 
BRANCH   5   6
ATOM      6  C   UNK     1      37.490 -23.904 -14.190  0.00  0.00    -0.001 C 
BRANCH   6   7
ATOM      7  C   UNK     1      37.738 -24.795 -12.968  0.00  0.00    +0.036 C 
BRANCH   7   8
ATOM      8  N   UNK     1      36.694 -25.820 -12.890  0.00  0.00    +0.389 N 
ATOM      9  H   UNK     1      35.785 -25.372 -12.772  0.00  0.00    -0.088 HD
ATOM     10  H   UNK     1      36.877 -26.433 -12.094  0.00  0.00    -0.088 HD
ATOM     11  H   UNK     1      36.692 -26.371 -13.749  0.00  0.00    -0.088 HD
ENDBRANCH   7   8
BRANCH   7  13
ATOM     12  O   UNK     1      36.856 -24.194 -10.776  0.00  0.00    -0.253 OA
ATOM     13  C   UNK     1      37.660 -23.997 -11.679  0.00  0.00    +0.293 C 
BRANCH  13  14
ATOM     14  O   UNK     1      38.579 -22.997 -11.637  0.00  0.00    -0.482 OA
ATOM     15  H   UNK     1      39.490 -23.201 -11.564  0.00  0.00    +0.295 HD
ENDBRANCH  13  14
ENDBRANCH   7  13
ENDBRANCH   6   7
ENDBRANCH   5   6
ENDBRANCH   3   5
BRANCH   2  16
ATOM     16  C   UNK     1      33.390 -23.421 -16.919  0.00  0.00    +0.182 C 
BRANCH  16  18
ATOM     17  O   UNK     1      34.902 -22.696 -18.672  0.00  0.00    -0.248 OA
ATOM     18  C   UNK     1      33.759 -22.753 -18.234  0.00  0.00    +0.333 C 
BRANCH  18  19
ATOM     19  O   UNK     1      32.697 -22.207 -18.873  0.00  0.00    -0.479 OA
ATOM     20  H   UNK     1      32.393 -22.577 -19.678  0.00  0.00    +0.295 HD
ENDBRANCH  18  19
ENDBRANCH  16  18
BRANCH  16  21
ATOM     21  C   UNK     1      31.936 -23.160 -16.522  0.00  0.00    +0.084 C 
BRANCH  21  22
ATOM     22  S   UNK     1      31.671 -23.074 -14.719  0.00  0.00    -0.166 S 
ATOM     23  H   UNK     1      31.000 -21.930 -14.413  0.00  0.00    +0.102 HD
ENDBRANCH  21  22
ENDBRANCH  16  21
ENDBRANCH   2  16
TORSDOF 11
ENDMDL
