MODEL 1
REMARK VINA RESULT:      -9.8      0.000      0.000
REMARK  Name = 3236724
REMARK  8 active torsions:
REMARK  status: ('A' for Active; 'I' for Inactive)
REMARK    1  A    between atoms: C_1  and  N_2
REMARK    2  A    between atoms: C_1  and  C_14
REMARK    3  A    between atoms: N_2  and  S_4
REMARK    4  A    between atoms: S_4  and  C_7
REMARK    5  A    between atoms: C_14  and  C_15
REMARK    6  A    between atoms: C_15  and  O_16
REMARK    7  A    between atoms: O_16  and  C_19
REMARK    8  A    between atoms: N_18  and  C_22
REMARK                            x       y       z     vdW  Elec       q    Type
REMARK                         _______ _______ _______ _____ _____    ______ ____
ROOT
ATOM      1  C   UNL     1      34.711 -23.882 -16.157  0.00  0.00    +0.095 C 
ENDROOT
BRANCH   1   2
ATOM      2  N   UNL     1      34.740 -22.819 -17.185  0.00  0.00    -0.179 NA
ATOM      3  H   UNL     1      34.585 -21.935 -16.700  0.00  0.00    +0.149 HD
BRANCH   2   4
ATOM      4  S   UNL     1      33.646 -22.864 -18.485  0.00  0.00    +0.060 S 
ATOM      5  O   UNL     1      32.316 -22.536 -18.006  0.00  0.00    -0.153 OA
ATOM      6  O   UNL     1      33.869 -24.079 -19.246  0.00  0.00    -0.153 OA
BRANCH   4   7
ATOM      7  C   UNL     1      34.213 -21.519 -19.483  0.00  0.00    +0.122 C 
ATOM      8  C   UNL     1      33.286 -20.687 -20.086  0.00  0.00    +0.020 C 
ATOM      9  C   UNL     1      35.574 -21.324 -19.644  0.00  0.00    +0.020 C 
ATOM     10  C   UNL     1      35.101 -19.415 -21.047  0.00  0.00    -0.022 C 
ATOM     11  C   UNL     1      33.734 -19.627 -20.874  0.00  0.00    -0.003 C 
ATOM     12  C   UNL     1      36.022 -20.263 -20.431  0.00  0.00    -0.003 C 
ATOM     13  C   UNL     1      35.580 -18.282 -21.890  0.00  0.00    +0.031 C 
ENDBRANCH   4   7
ENDBRANCH   2   4
ENDBRANCH   1   2
BRANCH   1  14
ATOM     14  C   UNL     1      34.455 -23.282 -14.782  0.00  0.00    +0.066 C 
BRANCH  14  15
ATOM     15  C   UNL     1      33.713 -24.231 -13.850  0.00  0.00    +0.212 C 
BRANCH  15  16
ATOM     16  O   UNL     1      32.690 -23.507 -13.179  0.00  0.00    -0.434 OA
BRANCH  16  19
ATOM     17  O   UNL     1      30.691 -24.567 -12.849  0.00  0.00    -0.226 OA
ATOM     18  N   UNL     1      31.062 -23.167 -14.689  0.00  0.00    -0.250 N 
ATOM     19  C   UNL     1      31.395 -23.821 -13.518  0.00  0.00    +0.405 C 
ATOM     20  H   UNL     1      31.767 -22.604 -15.084  0.00  0.00    +0.158 HD
BRANCH  18  22
ATOM     21  N   UNL     1      27.426 -23.289 -16.766  0.00  0.00    -0.242 NA
ATOM     22  C   UNL     1      29.835 -23.208 -15.389  0.00  0.00    +0.056 C 
ATOM     23  C   UNL     1      29.559 -24.283 -16.212  0.00  0.00    +0.035 C 
ATOM     24  C   UNL     1      28.932 -22.174 -15.240  0.00  0.00    +0.035 C 
ATOM     25  C   UNL     1      28.343 -24.275 -16.877  0.00  0.00    +0.100 C 
ATOM     26  C   UNL     1      27.745 -22.261 -15.949  0.00  0.00    +0.100 C 
ENDBRANCH  18  22
ENDBRANCH  16  19
ENDBRANCH  15  16
ENDBRANCH  14  15
ENDBRANCH   1  14
TORSDOF 8
ENDMDL
MODEL 2
REMARK VINA RESULT:      -9.8      2.283      4.865
REMARK  Name = 3236724
REMARK  8 active torsions:
REMARK  status: ('A' for Active; 'I' for Inactive)
REMARK    1  A    between atoms: C_1  and  N_2
REMARK    2  A    between atoms: C_1  and  C_14
REMARK    3  A    between atoms: N_2  and  S_4
REMARK    4  A    between atoms: S_4  and  C_7
REMARK    5  A    between atoms: C_14  and  C_15
REMARK    6  A    between atoms: C_15  and  O_16
REMARK    7  A    between atoms: O_16  and  C_19
REMARK    8  A    between atoms: N_18  and  C_22
REMARK                            x       y       z     vdW  Elec       q    Type
REMARK                         _______ _______ _______ _____ _____    ______ ____
ROOT
ATOM      1  C   UNL     1      31.566 -23.520 -16.926  0.00  0.00    +0.095 C 
ENDROOT
BRANCH   1   2
ATOM      2  N   UNL     1      32.284 -22.530 -17.758  0.00  0.00    -0.179 NA
ATOM      3  H   UNL     1      31.687 -22.334 -18.562  0.00  0.00    +0.149 HD
BRANCH   2   4
ATOM      4  S   UNL     1      33.828 -22.894 -18.370  0.00  0.00    +0.060 S 
ATOM      5  O   UNL     1      33.754 -24.097 -19.177  0.00  0.00    -0.153 OA
ATOM      6  O   UNL     1      34.795 -22.796 -17.292  0.00  0.00    -0.153 OA
BRANCH   4   7
ATOM      7  C   UNL     1      34.120 -21.527 -19.452  0.00  0.00    +0.122 C 
ATOM      8  C   UNL     1      33.042 -20.808 -19.938  0.00  0.00    +0.020 C 
ATOM      9  C   UNL     1      35.421 -21.202 -19.794  0.00  0.00    +0.020 C 
ATOM     10  C   UNL     1      34.577 -19.388 -21.148  0.00  0.00    -0.022 C 
ATOM     11  C   UNL     1      33.272 -19.731 -20.793  0.00  0.00    -0.003 C 
ATOM     12  C   UNL     1      35.652 -20.124 -20.649  0.00  0.00    -0.003 C 
ATOM     13  C   UNL     1      34.823 -18.236 -22.063  0.00  0.00    +0.031 C 
ENDBRANCH   4   7
ENDBRANCH   2   4
ENDBRANCH   1   2
BRANCH   1  14
ATOM     14  C   UNL     1      30.755 -22.816 -15.848  0.00  0.00    +0.066 C 
BRANCH  14  15
ATOM     15  C   UNL     1      31.389 -22.918 -14.467  0.00  0.00    +0.212 C 
BRANCH  15  16
ATOM     16  O   UNL     1      32.803 -22.904 -14.610  0.00  0.00    -0.434 OA
BRANCH  16  19
ATOM     17  O   UNL     1      33.002 -24.668 -13.169  0.00  0.00    -0.226 OA
ATOM     18  N   UNL     1      34.755 -24.014 -14.577  0.00  0.00    -0.250 N 
ATOM     19  C   UNL     1      33.488 -23.945 -14.030  0.00  0.00    +0.405 C 
ATOM     20  H   UNL     1      34.965 -23.341 -15.264  0.00  0.00    +0.158 HD
BRANCH  18  22
ATOM     21  N   UNL     1      37.810 -26.735 -13.671  0.00  0.00    -0.242 NA
ATOM     22  C   UNL     1      35.786 -24.931 -14.271  0.00  0.00    +0.056 C 
ATOM     23  C   UNL     1      36.145 -25.884 -15.204  0.00  0.00    +0.035 C 
ATOM     24  C   UNL     1      36.417 -24.860 -13.045  0.00  0.00    +0.035 C 
ATOM     25  C   UNL     1      37.161 -26.760 -14.856  0.00  0.00    +0.100 C 
ATOM     26  C   UNL     1      37.420 -25.783 -12.794  0.00  0.00    +0.100 C 
ENDBRANCH  18  22
ENDBRANCH  16  19
ENDBRANCH  15  16
ENDBRANCH  14  15
ENDBRANCH   1  14
TORSDOF 8
ENDMDL
MODEL 3
REMARK VINA RESULT:      -9.7      6.590     10.805
REMARK  Name = 3236724
REMARK  8 active torsions:
REMARK  status: ('A' for Active; 'I' for Inactive)
REMARK    1  A    between atoms: C_1  and  N_2
REMARK    2  A    between atoms: C_1  and  C_14
REMARK    3  A    between atoms: N_2  and  S_4
REMARK    4  A    between atoms: S_4  and  C_7
REMARK    5  A    between atoms: C_14  and  C_15
REMARK    6  A    between atoms: C_15  and  O_16
REMARK    7  A    between atoms: O_16  and  C_19
REMARK    8  A    between atoms: N_18  and  C_22
REMARK                            x       y       z     vdW  Elec       q    Type
REMARK                         _______ _______ _______ _____ _____    ______ ____
ROOT
ATOM      1  C   UNL     1      34.681 -19.033 -23.958  0.00  0.00    +0.095 C 
ENDROOT
BRANCH   1   2
ATOM      2  N   UNL     1      34.473 -18.202 -22.753  0.00  0.00    -0.179 NA
ATOM      3  H   UNL     1      34.452 -17.231 -23.065  0.00  0.00    +0.149 HD
BRANCH   2   4
ATOM      4  S   UNL     1      35.581 -18.279 -21.466  0.00  0.00    +0.060 S 
ATOM      5  O   UNL     1      35.392 -17.131 -20.599  0.00  0.00    -0.153 OA
ATOM      6  O   UNL     1      36.896 -18.586 -21.996  0.00  0.00    -0.153 OA
BRANCH   4   7
ATOM      7  C   UNL     1      35.027 -19.715 -20.597  0.00  0.00    +0.122 C 
ATOM      8  C   UNL     1      35.961 -20.563 -20.028  0.00  0.00    +0.020 C 
ATOM      9  C   UNL     1      33.669 -19.966 -20.503  0.00  0.00    +0.020 C 
ATOM     10  C   UNL     1      34.159 -21.965 -19.238  0.00  0.00    -0.022 C 
ATOM     11  C   UNL     1      35.524 -21.697 -19.344  0.00  0.00    -0.003 C 
ATOM     12  C   UNL     1      33.231 -21.099 -19.818  0.00  0.00    -0.003 C 
ATOM     13  C   UNL     1      33.692 -23.178 -18.507  0.00  0.00    +0.031 C 
ENDBRANCH   4   7
ENDBRANCH   2   4
ENDBRANCH   1   2
BRANCH   1  14
ATOM     14  C   UNL     1      34.500 -18.196 -25.216  0.00  0.00    +0.066 C 
BRANCH  14  15
ATOM     15  C   UNL     1      34.484 -16.699 -24.935  0.00  0.00    +0.212 C 
BRANCH  15  16
ATOM     16  O   UNL     1      33.941 -16.027 -26.064  0.00  0.00    -0.434 OA
BRANCH  16  19
ATOM     17  O   UNL     1      32.480 -14.351 -26.599  0.00  0.00    -0.226 OA
ATOM     18  N   UNL     1      33.674 -14.359 -24.585  0.00  0.00    -0.250 N 
ATOM     19  C   UNL     1      33.281 -14.847 -25.816  0.00  0.00    +0.405 C 
ATOM     20  H   UNL     1      34.334 -14.902 -24.096  0.00  0.00    +0.158 HD
BRANCH  18  22
ATOM     21  N   UNL     1      32.407 -10.850 -22.677  0.00  0.00    -0.242 NA
ATOM     22  C   UNL     1      33.246 -13.175 -23.942  0.00  0.00    +0.056 C 
ATOM     23  C   UNL     1      33.730 -11.956 -24.372  0.00  0.00    +0.035 C 
ATOM     24  C   UNL     1      32.351 -13.257 -22.893  0.00  0.00    +0.035 C 
ATOM     25  C   UNL     1      33.280 -10.825 -23.709  0.00  0.00    +0.100 C 
ATOM     26  C   UNL     1      31.964 -12.069 -22.295  0.00  0.00    +0.100 C 
ENDBRANCH  18  22
ENDBRANCH  16  19
ENDBRANCH  15  16
ENDBRANCH  14  15
ENDBRANCH   1  14
TORSDOF 8
ENDMDL
MODEL 4
REMARK VINA RESULT:      -9.6      6.554     10.538
REMARK  Name = 3236724
REMARK  8 active torsions:
REMARK  status: ('A' for Active; 'I' for Inactive)
REMARK    1  A    between atoms: C_1  and  N_2
REMARK    2  A    between atoms: C_1  and  C_14
REMARK    3  A    between atoms: N_2  and  S_4
REMARK    4  A    between atoms: S_4  and  C_7
REMARK    5  A    between atoms: C_14  and  C_15
REMARK    6  A    between atoms: C_15  and  O_16
REMARK    7  A    between atoms: O_16  and  C_19
REMARK    8  A    between atoms: N_18  and  C_22
REMARK                            x       y       z     vdW  Elec       q    Type
REMARK                         _______ _______ _______ _____ _____    ______ ____
ROOT
ATOM      1  C   UNL     1      34.806 -18.620 -24.140  0.00  0.00    +0.095 C 
ENDROOT
BRANCH   1   2
ATOM      2  N   UNL     1      34.401 -18.279 -22.759  0.00  0.00    -0.179 NA
ATOM      3  H   UNL     1      34.050 -17.321 -22.783  0.00  0.00    +0.149 HD
BRANCH   2   4
ATOM      4  S   UNL     1      35.537 -18.355 -21.496  0.00  0.00    +0.060 S 
ATOM      5  O   UNL     1      35.372 -17.201 -20.632  0.00  0.00    -0.153 OA
ATOM      6  O   UNL     1      36.838 -18.670 -22.054  0.00  0.00    -0.153 OA
BRANCH   4   7
ATOM      7  C   UNL     1      34.996 -19.784 -20.608  0.00  0.00    +0.122 C 
ATOM      8  C   UNL     1      33.640 -20.027 -20.479  0.00  0.00    +0.020 C 
ATOM      9  C   UNL     1      35.939 -20.633 -20.056  0.00  0.00    +0.020 C 
ATOM     10  C   UNL     1      34.149 -22.021 -19.215  0.00  0.00    -0.022 C 
ATOM     11  C   UNL     1      33.213 -21.153 -19.777  0.00  0.00    -0.003 C 
ATOM     12  C   UNL     1      35.513 -21.761 -19.355  0.00  0.00    -0.003 C 
ATOM     13  C   UNL     1      33.693 -23.226 -18.464  0.00  0.00    +0.031 C 
ENDBRANCH   4   7
ENDBRANCH   2   4
ENDBRANCH   1   2
BRANCH   1  14
ATOM     14  C   UNL     1      34.843 -17.369 -25.005  0.00  0.00    +0.066 C 
BRANCH  14  15
ATOM     15  C   UNL     1      34.099 -16.194 -24.382  0.00  0.00    +0.212 C 
BRANCH  15  16
ATOM     16  O   UNL     1      35.007 -15.449 -23.582  0.00  0.00    -0.434 OA
BRANCH  16  19
ATOM     17  O   UNL     1      34.558 -14.356 -21.624  0.00  0.00    -0.226 OA
ATOM     18  N   UNL     1      33.857 -13.524 -23.698  0.00  0.00    -0.250 N 
ATOM     19  C   UNL     1      34.472 -14.420 -22.845  0.00  0.00    +0.405 C 
ATOM     20  H   UNL     1      33.893 -13.746 -24.656  0.00  0.00    +0.158 HD
BRANCH  18  22
ATOM     21  N   UNL     1      31.857  -9.978 -22.707  0.00  0.00    -0.242 NA
ATOM     22  C   UNL     1      33.183 -12.327 -23.363  0.00  0.00    +0.056 C 
ATOM     23  C   UNL     1      32.130 -12.369 -22.471  0.00  0.00    +0.035 C 
ATOM     24  C   UNL     1      33.588 -11.137 -23.934  0.00  0.00    +0.035 C 
ATOM     25  C   UNL     1      31.501 -11.169 -22.177  0.00  0.00    +0.100 C 
ATOM     26  C   UNL     1      32.893  -9.993 -23.574  0.00  0.00    +0.100 C 
ENDBRANCH  18  22
ENDBRANCH  16  19
ENDBRANCH  15  16
ENDBRANCH  14  15
ENDBRANCH   1  14
TORSDOF 8
ENDMDL
MODEL 5
REMARK VINA RESULT:      -9.4      3.707      5.550
REMARK  Name = 3236724
REMARK  8 active torsions:
REMARK  status: ('A' for Active; 'I' for Inactive)
REMARK    1  A    between atoms: C_1  and  N_2
REMARK    2  A    between atoms: C_1  and  C_14
REMARK    3  A    between atoms: N_2  and  S_4
REMARK    4  A    between atoms: S_4  and  C_7
REMARK    5  A    between atoms: C_14  and  C_15
REMARK    6  A    between atoms: C_15  and  O_16
REMARK    7  A    between atoms: O_16  and  C_19
REMARK    8  A    between atoms: N_18  and  C_22
REMARK                            x       y       z     vdW  Elec       q    Type
REMARK                         _______ _______ _______ _____ _____    ______ ____
ROOT
ATOM      1  C   UNL     1      33.845 -19.801 -21.164  0.00  0.00    +0.095 C 
ENDROOT
BRANCH   1   2
ATOM      2  N   UNL     1      33.751 -18.339 -20.963  0.00  0.00    -0.179 NA
ATOM      3  H   UNL     1      32.961 -18.015 -21.522  0.00  0.00    +0.149 HD
BRANCH   2   4
ATOM      4  S   UNL     1      35.071 -17.341 -21.355  0.00  0.00    +0.060 S 
ATOM      5  O   UNL     1      36.221 -18.166 -21.672  0.00  0.00    -0.153 OA
ATOM      6  O   UNL     1      35.177 -16.291 -20.359  0.00  0.00    -0.153 OA
BRANCH   4   7
ATOM      7  C   UNL     1      34.517 -16.579 -22.850  0.00  0.00    +0.122 C 
ATOM      8  C   UNL     1      34.738 -17.219 -24.057  0.00  0.00    +0.020 C 
ATOM      9  C   UNL     1      33.875 -15.354 -22.788  0.00  0.00    +0.020 C 
ATOM     10  C   UNL     1      33.652 -15.385 -25.193  0.00  0.00    -0.022 C 
ATOM     11  C   UNL     1      34.303 -16.618 -25.237  0.00  0.00    -0.003 C 
ATOM     12  C   UNL     1      33.438 -14.753 -23.968  0.00  0.00    -0.003 C 
ATOM     13  C   UNL     1      33.188 -14.741 -26.456  0.00  0.00    +0.031 C 
ENDBRANCH   4   7
ENDBRANCH   2   4
ENDBRANCH   1   2
BRANCH   1  14
ATOM     14  C   UNL     1      32.974 -20.531 -20.152  0.00  0.00    +0.066 C 
BRANCH  14  15
ATOM     15  C   UNL     1      33.759 -21.518 -19.297  0.00  0.00    +0.212 C 
BRANCH  15  16
ATOM     16  O   UNL     1      32.922 -22.625 -18.990  0.00  0.00    -0.434 OA
BRANCH  16  19
ATOM     17  O   UNL     1      34.063 -23.611 -17.272  0.00  0.00    -0.226 OA
ATOM     18  N   UNL     1      31.805 -23.022 -17.083  0.00  0.00    -0.250 N 
ATOM     19  C   UNL     1      33.026 -23.138 -17.719  0.00  0.00    +0.405 C 
ATOM     20  H   UNL     1      31.082 -22.610 -17.608  0.00  0.00    +0.158 HD
BRANCH  18  22
ATOM     21  N   UNL     1      30.801 -24.207 -13.191  0.00  0.00    -0.242 NA
ATOM     22  C   UNL     1      31.467 -23.422 -15.770  0.00  0.00    +0.056 C 
ATOM     23  C   UNL     1      30.521 -24.410 -15.584  0.00  0.00    +0.035 C 
ATOM     24  C   UNL     1      32.088 -22.818 -14.694  0.00  0.00    +0.035 C 
ATOM     25  C   UNL     1      30.224 -24.766 -14.278  0.00  0.00    +0.100 C 
ATOM     26  C   UNL     1      31.720 -23.244 -13.428  0.00  0.00    +0.100 C 
ENDBRANCH  18  22
ENDBRANCH  16  19
ENDBRANCH  15  16
ENDBRANCH  14  15
ENDBRANCH   1  14
TORSDOF 8
ENDMDL
MODEL 6
REMARK VINA RESULT:      -9.4      2.887      7.706
REMARK  Name = 3236724
REMARK  8 active torsions:
REMARK  status: ('A' for Active; 'I' for Inactive)
REMARK    1  A    between atoms: C_1  and  N_2
REMARK    2  A    between atoms: C_1  and  C_14
REMARK    3  A    between atoms: N_2  and  S_4
REMARK    4  A    between atoms: S_4  and  C_7
REMARK    5  A    between atoms: C_14  and  C_15
REMARK    6  A    between atoms: C_15  and  O_16
REMARK    7  A    between atoms: O_16  and  C_19
REMARK    8  A    between atoms: N_18  and  C_22
REMARK                            x       y       z     vdW  Elec       q    Type
REMARK                         _______ _______ _______ _____ _____    ______ ____
ROOT
ATOM      1  C   UNL     1      36.601 -22.062 -17.303  0.00  0.00    +0.095 C 
ENDROOT
BRANCH   1   2
ATOM      2  N   UNL     1      35.375 -22.873 -17.143  0.00  0.00    -0.179 NA
ATOM      3  H   UNL     1      34.589 -22.270 -17.389  0.00  0.00    +0.149 HD
BRANCH   2   4
ATOM      4  S   UNL     1      35.007 -23.571 -15.637  0.00  0.00    +0.060 S 
ATOM      5  O   UNL     1      35.620 -22.787 -14.581  0.00  0.00    -0.153 OA
ATOM      6  O   UNL     1      35.238 -25.001 -15.714  0.00  0.00    -0.153 OA
BRANCH   4   7
ATOM      7  C   UNL     1      33.258 -23.335 -15.546  0.00  0.00    +0.122 C 
ATOM      8  C   UNL     1      32.535 -23.178 -16.716  0.00  0.00    +0.020 C 
ATOM      9  C   UNL     1      32.643 -23.308 -14.307  0.00  0.00    +0.020 C 
ATOM     10  C   UNL     1      30.518 -22.962 -15.405  0.00  0.00    -0.022 C 
ATOM     11  C   UNL     1      31.155 -22.990 -16.645  0.00  0.00    -0.003 C 
ATOM     12  C   UNL     1      31.262 -23.122 -14.235  0.00  0.00    -0.003 C 
ATOM     13  C   UNL     1      29.043 -22.760 -15.328  0.00  0.00    +0.031 C 
ENDBRANCH   4   7
ENDBRANCH   2   4
ENDBRANCH   1   2
BRANCH   1  14
ATOM     14  C   UNL     1      36.582 -21.331 -18.637  0.00  0.00    +0.066 C 
BRANCH  14  15
ATOM     15  C   UNL     1      35.558 -21.899 -19.611  0.00  0.00    +0.212 C 
BRANCH  15  16
ATOM     16  O   UNL     1      34.295 -21.301 -19.347  0.00  0.00    -0.434 OA
BRANCH  16  19
ATOM     17  O   UNL     1      32.627 -20.264 -20.518  0.00  0.00    -0.226 OA
ATOM     18  N   UNL     1      34.888 -19.807 -20.915  0.00  0.00    -0.250 N 
ATOM     19  C   UNL     1      33.820 -20.428 -20.296  0.00  0.00    +0.405 C 
ATOM     20  H   UNL     1      35.783 -20.069 -20.598  0.00  0.00    +0.158 HD
BRANCH  18  22
ATOM     21  N   UNL     1      34.790 -16.944 -23.973  0.00  0.00    -0.242 NA
ATOM     22  C   UNL     1      34.855 -18.841 -21.946  0.00  0.00    +0.056 C 
ATOM     23  C   UNL     1      34.804 -19.255 -23.262  0.00  0.00    +0.035 C 
ATOM     24  C   UNL     1      34.873 -17.498 -21.621  0.00  0.00    +0.035 C 
ATOM     25  C   UNL     1      34.773 -18.269 -24.236  0.00  0.00    +0.100 C 
ATOM     26  C   UNL     1      34.840 -16.592 -22.669  0.00  0.00    +0.100 C 
ENDBRANCH  18  22
ENDBRANCH  16  19
ENDBRANCH  15  16
ENDBRANCH  14  15
ENDBRANCH   1  14
TORSDOF 8
ENDMDL
MODEL 7
REMARK VINA RESULT:      -9.1      6.351     10.506
REMARK  Name = 3236724
REMARK  8 active torsions:
REMARK  status: ('A' for Active; 'I' for Inactive)
REMARK    1  A    between atoms: C_1  and  N_2
REMARK    2  A    between atoms: C_1  and  C_14
REMARK    3  A    between atoms: N_2  and  S_4
REMARK    4  A    between atoms: S_4  and  C_7
REMARK    5  A    between atoms: C_14  and  C_15
REMARK    6  A    between atoms: C_15  and  O_16
REMARK    7  A    between atoms: O_16  and  C_19
REMARK    8  A    between atoms: N_18  and  C_22
REMARK                            x       y       z     vdW  Elec       q    Type
REMARK                         _______ _______ _______ _____ _____    ______ ____
ROOT
ATOM      1  C   UNL     1      34.756 -16.257 -21.527  0.00  0.00    +0.095 C 
ENDROOT
BRANCH   1   2
ATOM      2  N   UNL     1      34.246 -17.640 -21.410  0.00  0.00    -0.179 NA
ATOM      3  H   UNL     1      33.973 -17.772 -20.436  0.00  0.00    +0.149 HD
BRANCH   2   4
ATOM      4  S   UNL     1      35.244 -18.953 -21.823  0.00  0.00    +0.060 S 
ATOM      5  O   UNL     1      36.625 -18.615 -21.535  0.00  0.00    -0.153 OA
ATOM      6  O   UNL     1      34.868 -19.433 -23.139  0.00  0.00    -0.153 OA
BRANCH   4   7
ATOM      7  C   UNL     1      34.728 -20.179 -20.659  0.00  0.00    +0.122 C 
ATOM      8  C   UNL     1      35.681 -20.980 -20.055  0.00  0.00    +0.020 C 
ATOM      9  C   UNL     1      33.381 -20.317 -20.375  0.00  0.00    +0.020 C 
ATOM     10  C   UNL     1      33.921 -22.102 -18.838  0.00  0.00    -0.022 C 
ATOM     11  C   UNL     1      35.275 -21.949 -19.138  0.00  0.00    -0.003 C 
ATOM     12  C   UNL     1      32.974 -21.285 -19.457  0.00  0.00    -0.003 C 
ATOM     13  C   UNL     1      33.487 -23.138 -17.858  0.00  0.00    +0.031 C 
ENDBRANCH   4   7
ENDBRANCH   2   4
ENDBRANCH   1   2
BRANCH   1  14
ATOM     14  C   UNL     1      34.362 -15.441 -20.305  0.00  0.00    +0.066 C 
BRANCH  14  15
ATOM     15  C   UNL     1      32.896 -15.025 -20.317  0.00  0.00    +0.212 C 
BRANCH  15  16
ATOM     16  O   UNL     1      32.378 -15.215 -21.627  0.00  0.00    -0.434 OA
BRANCH  16  19
ATOM     17  O   UNL     1      31.961 -13.030 -22.159  0.00  0.00    -0.226 OA
ATOM     18  N   UNL     1      33.032 -14.486 -23.648  0.00  0.00    -0.250 N 
ATOM     19  C   UNL     1      32.416 -14.125 -22.465  0.00  0.00    +0.405 C 
ATOM     20  H   UNL     1      33.335 -15.420 -23.710  0.00  0.00    +0.158 HD
BRANCH  18  22
ATOM     21  N   UNL     1      33.767 -12.088 -27.005  0.00  0.00    -0.242 NA
ATOM     22  C   UNL     1      33.280 -13.678 -24.781  0.00  0.00    +0.056 C 
ATOM     23  C   UNL     1      33.814 -12.415 -24.610  0.00  0.00    +0.035 C 
ATOM     24  C   UNL     1      32.985 -14.162 -26.040  0.00  0.00    +0.035 C 
ATOM     25  C   UNL     1      34.038 -11.662 -25.751  0.00  0.00    +0.100 C 
ATOM     26  C   UNL     1      33.246 -13.330 -27.117  0.00  0.00    +0.100 C 
ENDBRANCH  18  22
ENDBRANCH  16  19
ENDBRANCH  15  16
ENDBRANCH  14  15
ENDBRANCH   1  14
TORSDOF 8
ENDMDL
MODEL 8
REMARK VINA RESULT:      -9.1      7.926     12.148
REMARK  Name = 3236724
REMARK  8 active torsions:
REMARK  status: ('A' for Active; 'I' for Inactive)
REMARK    1  A    between atoms: C_1  and  N_2
REMARK    2  A    between atoms: C_1  and  C_14
REMARK    3  A    between atoms: N_2  and  S_4
REMARK    4  A    between atoms: S_4  and  C_7
REMARK    5  A    between atoms: C_14  and  C_15
REMARK    6  A    between atoms: C_15  and  O_16
REMARK    7  A    between atoms: O_16  and  C_19
REMARK    8  A    between atoms: N_18  and  C_22
REMARK                            x       y       z     vdW  Elec       q    Type
REMARK                         _______ _______ _______ _____ _____    ______ ____
ROOT
ATOM      1  C   UNL     1      34.625 -15.880 -21.720  0.00  0.00    +0.095 C 
ENDROOT
BRANCH   1   2
ATOM      2  N   UNL     1      34.189 -17.264 -21.436  0.00  0.00    -0.179 NA
ATOM      3  H   UNL     1      34.174 -17.365 -20.421  0.00  0.00    +0.149 HD
BRANCH   2   4
ATOM      4  S   UNL     1      35.077 -18.578 -22.047  0.00  0.00    +0.060 S 
ATOM      5  O   UNL     1      36.496 -18.308 -21.904  0.00  0.00    -0.153 OA
ATOM      6  O   UNL     1      34.532 -18.954 -23.338  0.00  0.00    -0.153 OA
BRANCH   4   7
ATOM      7  C   UNL     1      34.649 -19.864 -20.912  0.00  0.00    +0.122 C 
ATOM      8  C   UNL     1      35.653 -20.646 -20.367  0.00  0.00    +0.020 C 
ATOM      9  C   UNL     1      33.319 -20.066 -20.590  0.00  0.00    +0.020 C 
ATOM     10  C   UNL     1      33.980 -21.879 -19.136  0.00  0.00    -0.022 C 
ATOM     11  C   UNL     1      35.315 -21.661 -19.473  0.00  0.00    -0.003 C 
ATOM     12  C   UNL     1      32.981 -21.081 -19.695  0.00  0.00    -0.003 C 
ATOM     13  C   UNL     1      33.619 -22.965 -18.180  0.00  0.00    +0.031 C 
ENDBRANCH   4   7
ENDBRANCH   2   4
ENDBRANCH   1   2
BRANCH   1  14
ATOM     14  C   UNL     1      34.145 -15.446 -23.097  0.00  0.00    +0.066 C 
BRANCH  14  15
ATOM     15  C   UNL     1      34.113 -13.932 -23.265  0.00  0.00    +0.212 C 
BRANCH  15  16
ATOM     16  O   UNL     1      33.616 -13.625 -24.561  0.00  0.00    -0.434 OA
BRANCH  16  19
ATOM     17  O   UNL     1      33.837 -11.957 -26.109  0.00  0.00    -0.226 OA
ATOM     18  N   UNL     1      33.546 -11.502 -23.831  0.00  0.00    -0.250 N 
ATOM     19  C   UNL     1      33.682 -12.307 -24.946  0.00  0.00    +0.405 C 
ATOM     20  H   UNL     1      33.428 -11.970 -22.973  0.00  0.00    +0.158 HD
BRANCH  18  22
ATOM     21  N   UNL     1      33.570  -7.316 -23.656  0.00  0.00    -0.242 NA
ATOM     22  C   UNL     1      33.555 -10.090 -23.772  0.00  0.00    +0.056 C 
ATOM     23  C   UNL     1      32.411  -9.420 -23.382  0.00  0.00    +0.035 C 
ATOM     24  C   UNL     1      34.705  -9.403 -24.103  0.00  0.00    +0.035 C 
ATOM     25  C   UNL     1      32.471  -8.037 -23.340  0.00  0.00    +0.100 C 
ATOM     26  C   UNL     1      34.662  -8.020 -24.030  0.00  0.00    +0.100 C 
ENDBRANCH  18  22
ENDBRANCH  16  19
ENDBRANCH  15  16
ENDBRANCH  14  15
ENDBRANCH   1  14
TORSDOF 8
ENDMDL
MODEL 9
REMARK VINA RESULT:      -9.1      7.038     10.343
REMARK  Name = 3236724
REMARK  8 active torsions:
REMARK  status: ('A' for Active; 'I' for Inactive)
REMARK    1  A    between atoms: C_1  and  N_2
REMARK    2  A    between atoms: C_1  and  C_14
REMARK    3  A    between atoms: N_2  and  S_4
REMARK    4  A    between atoms: S_4  and  C_7
REMARK    5  A    between atoms: C_14  and  C_15
REMARK    6  A    between atoms: C_15  and  O_16
REMARK    7  A    between atoms: O_16  and  C_19
REMARK    8  A    between atoms: N_18  and  C_22
REMARK                            x       y       z     vdW  Elec       q    Type
REMARK                         _______ _______ _______ _____ _____    ______ ____
ROOT
ATOM      1  C   UNL     1      34.848 -16.178 -21.431  0.00  0.00    +0.095 C 
ENDROOT
BRANCH   1   2
ATOM      2  N   UNL     1      34.299 -17.548 -21.336  0.00  0.00    -0.179 NA
ATOM      3  H   UNL     1      34.063 -17.704 -20.356  0.00  0.00    +0.149 HD
BRANCH   2   4
ATOM      4  S   UNL     1      35.237 -18.876 -21.832  0.00  0.00    +0.060 S 
ATOM      5  O   UNL     1      36.640 -18.587 -21.600  0.00  0.00    -0.153 OA
ATOM      6  O   UNL     1      34.787 -19.307 -23.142  0.00  0.00    -0.153 OA
BRANCH   4   7
ATOM      7  C   UNL     1      34.739 -20.121 -20.680  0.00  0.00    +0.122 C 
ATOM      8  C   UNL     1      33.392 -20.301 -20.420  0.00  0.00    +0.020 C 
ATOM      9  C   UNL     1      35.706 -20.893 -20.059  0.00  0.00    +0.020 C 
ATOM     10  C   UNL     1      33.959 -22.069 -18.875  0.00  0.00    -0.022 C 
ATOM     11  C   UNL     1      32.999 -21.282 -19.510  0.00  0.00    -0.003 C 
ATOM     12  C   UNL     1      35.313 -21.875 -19.150  0.00  0.00    -0.003 C 
ATOM     13  C   UNL     1      33.538 -23.118 -17.902  0.00  0.00    +0.031 C 
ENDBRANCH   4   7
ENDBRANCH   2   4
ENDBRANCH   1   2
BRANCH   1  14
ATOM     14  C   UNL     1      34.032 -15.220 -20.576  0.00  0.00    +0.066 C 
BRANCH  14  15
ATOM     15  C   UNL     1      32.531 -15.365 -20.792  0.00  0.00    +0.212 C 
BRANCH  15  16
ATOM     16  O   UNL     1      32.189 -14.778 -22.041  0.00  0.00    -0.434 OA
BRANCH  16  19
ATOM     17  O   UNL     1      33.255 -13.027 -23.055  0.00  0.00    -0.226 OA
ATOM     18  N   UNL     1      31.801 -12.714 -21.246  0.00  0.00    -0.250 N 
ATOM     19  C   UNL     1      32.490 -13.445 -22.194  0.00  0.00    +0.405 C 
ATOM     20  H   UNL     1      31.228 -13.231 -20.635  0.00  0.00    +0.158 HD
BRANCH  18  22
ATOM     21  N   UNL     1      31.849  -8.567 -20.650  0.00  0.00    -0.242 NA
ATOM     22  C   UNL     1      31.818 -11.315 -21.045  0.00  0.00    +0.056 C 
ATOM     23  C   UNL     1      31.800 -10.814 -19.759  0.00  0.00    +0.035 C 
ATOM     24  C   UNL     1      31.852 -10.472 -22.138  0.00  0.00    +0.035 C 
ATOM     25  C   UNL     1      31.817  -9.436 -19.615  0.00  0.00    +0.100 C 
ATOM     26  C   UNL     1      31.866  -9.109 -21.888  0.00  0.00    +0.100 C 
ENDBRANCH  18  22
ENDBRANCH  16  19
ENDBRANCH  15  16
ENDBRANCH  14  15
ENDBRANCH   1  14
TORSDOF 8
ENDMDL
