MODEL 1
REMARK VINA RESULT:      -9.8      0.000      0.000
REMARK  Name = 444031
REMARK  7 active torsions:
REMARK  status: ('A' for Active; 'I' for Inactive)
REMARK    1  A    between atoms: C_1  and  C_3
REMARK    2  A    between atoms: C_1  and  C_19
REMARK    3  A    between atoms: C_1  and  C_25
REMARK    4  A    between atoms: C_1  and  C_33
REMARK    5  A    between atoms: N_2  and  C_8
REMARK    6  A    between atoms: C_8  and  C_9
REMARK    7  A    between atoms: C_9  and  C_11
REMARK                            x       y       z     vdW  Elec       q    Type
REMARK                         _______ _______ _______ _____ _____    ______ ____
ROOT
ATOM      1  C   UNL     1      34.678 -18.478 -21.825  0.00  0.00    +0.104 C 
ENDROOT
BRANCH   1   3
ATOM      2  N   UNL     1      33.761 -21.561 -20.027  0.00  0.00    +0.387 N 
ATOM      3  C   UNL     1      33.948 -19.761 -21.464  0.00  0.00    -0.007 C 
ATOM      4  C   UNL     1      32.700 -19.532 -20.609  0.00  0.00    -0.024 C 
ATOM      5  C   UNL     1      34.792 -20.717 -20.631  0.00  0.00    -0.076 C 
ATOM      6  C   UNL     1      32.730 -20.636 -19.554  0.00  0.00    -0.077 C 
ATOM      7  H   UNL     1      33.382 -22.225 -20.703  0.00  0.00    -0.080 HD
BRANCH   2   8
ATOM      8  C   UNL     1      34.284 -22.405 -18.963  0.00  0.00    -0.073 C 
BRANCH   8   9
ATOM      9  C   UNL     1      35.633 -21.884 -18.463  0.00  0.00    +0.004 C 
BRANCH   9  11
ATOM     10  O   UNL     1      36.667 -23.784 -13.279  0.00  0.00    -0.475 OA
ATOM     11  C   UNL     1      35.935 -22.380 -17.082  0.00  0.00    -0.024 C 
ATOM     12  C   UNL     1      34.912 -22.928 -16.303  0.00  0.00    -0.005 C 
ATOM     13  C   UNL     1      37.248 -22.297 -16.587  0.00  0.00    -0.001 C 
ATOM     14  C   UNL     1      35.227 -23.370 -15.032  0.00  0.00    +0.015 C 
ATOM     15  C   UNL     1      36.524 -23.284 -14.548  0.00  0.00    +0.135 C 
ATOM     16  C   UNL     1      34.373 -24.039 -14.026  0.00  0.00    +0.077 C 
ATOM     17  C   UNL     1      37.553 -22.759 -15.305  0.00  0.00    +0.036 C 
ATOM     18  C   UNL     1      35.304 -23.944 -12.818  0.00  0.00    +0.210 C 
ENDBRANCH   9  11
ENDBRANCH   8   9
ENDBRANCH   2   8
ENDBRANCH   1   3
BRANCH   1  19
ATOM     19  C   UNL     1      34.050 -17.201 -21.166  0.00  0.00    -0.011 C 
ATOM     20  C   UNL     1      34.908 -16.260 -20.695  0.00  0.00    -0.004 C 
ATOM     21  C   UNL     1      32.694 -17.131 -21.118  0.00  0.00    -0.004 C 
ATOM     22  C   UNL     1      34.350 -15.124 -20.109  0.00  0.00    -0.000 C 
ATOM     23  C   UNL     1      32.136 -15.995 -20.532  0.00  0.00    -0.000 C 
ATOM     24  C   UNL     1      32.963 -14.991 -20.028  0.00  0.00    -0.000 C 
ENDBRANCH   1  19
BRANCH   1  25
ATOM     25  C   UNL     1      34.675 -18.285 -23.378  0.00  0.00    -0.011 C 
ATOM     26  C   UNL     1      34.746 -17.012 -23.849  0.00  0.00    -0.004 C 
ATOM     27  C   UNL     1      34.603 -19.404 -24.146  0.00  0.00    -0.004 C 
ATOM     28  C   UNL     1      34.744 -16.839 -25.234  0.00  0.00    -0.000 C 
ATOM     29  C   UNL     1      34.601 -19.232 -25.531  0.00  0.00    -0.000 C 
ATOM     30  C   UNL     1      34.671 -17.949 -26.074  0.00  0.00    -0.000 C 
ENDBRANCH   1  25
BRANCH   1  33
ATOM     31  O   UNL     1      36.411 -18.932 -20.111  0.00  0.00    -0.275 OA
ATOM     32  N   UNL     1      37.130 -18.372 -22.201  0.00  0.00    -0.328 N 
ATOM     33  C   UNL     1      36.141 -18.611 -21.269  0.00  0.00    +0.226 C 
ATOM     34  H   UNL     1      38.077 -18.433 -21.941  0.00  0.00    +0.145 HD
ATOM     35  H   UNL     1      36.888 -18.141 -23.127  0.00  0.00    +0.145 HD
ENDBRANCH   1  33
TORSDOF 7
ENDMDL
MODEL 2
REMARK VINA RESULT:      -9.8      0.896      1.853
REMARK  Name = 444031
REMARK  7 active torsions:
REMARK  status: ('A' for Active; 'I' for Inactive)
REMARK    1  A    between atoms: C_1  and  C_3
REMARK    2  A    between atoms: C_1  and  C_19
REMARK    3  A    between atoms: C_1  and  C_25
REMARK    4  A    between atoms: C_1  and  C_33
REMARK    5  A    between atoms: N_2  and  C_8
REMARK    6  A    between atoms: C_8  and  C_9
REMARK    7  A    between atoms: C_9  and  C_11
REMARK                            x       y       z     vdW  Elec       q    Type
REMARK                         _______ _______ _______ _____ _____    ______ ____
ROOT
ATOM      1  C   UNL     1      34.768 -18.549 -21.805  0.00  0.00    +0.104 C 
ENDROOT
BRANCH   1   3
ATOM      2  N   UNL     1      33.909 -21.517 -19.796  0.00  0.00    +0.387 N 
ATOM      3  C   UNL     1      34.109 -19.853 -21.388  0.00  0.00    -0.007 C 
ATOM      4  C   UNL     1      32.758 -19.659 -20.695  0.00  0.00    -0.024 C 
ATOM      5  C   UNL     1      34.929 -20.643 -20.376  0.00  0.00    -0.076 C 
ATOM      6  C   UNL     1      32.760 -20.649 -19.532  0.00  0.00    -0.077 C 
ATOM      7  H   UNL     1      33.664 -22.275 -20.434  0.00  0.00    -0.080 HD
BRANCH   2   8
ATOM      8  C   UNL     1      34.376 -22.203 -18.600  0.00  0.00    -0.073 C 
BRANCH   8   9
ATOM      9  C   UNL     1      33.271 -23.073 -18.000  0.00  0.00    +0.004 C 
BRANCH   9  11
ATOM     10  O   UNL     1      34.206 -23.941 -12.530  0.00  0.00    -0.475 OA
ATOM     11  C   UNL     1      33.492 -23.312 -16.539  0.00  0.00    -0.024 C 
ATOM     12  C   UNL     1      34.788 -23.264 -16.017  0.00  0.00    -0.005 C 
ATOM     13  C   UNL     1      32.393 -23.574 -15.704  0.00  0.00    -0.001 C 
ATOM     14  C   UNL     1      34.956 -23.495 -14.665  0.00  0.00    +0.015 C 
ATOM     15  C   UNL     1      33.866 -23.755 -13.846  0.00  0.00    +0.135 C 
ATOM     16  C   UNL     1      36.185 -23.446 -13.844  0.00  0.00    +0.077 C 
ATOM     17  C   UNL     1      32.576 -23.794 -14.337  0.00  0.00    +0.036 C 
ATOM     18  C   UNL     1      35.646 -24.087 -12.565  0.00  0.00    +0.210 C 
ENDBRANCH   9  11
ENDBRANCH   8   9
ENDBRANCH   2   8
ENDBRANCH   1   3
BRANCH   1  19
ATOM     19  C   UNL     1      34.099 -17.284 -21.163  0.00  0.00    -0.011 C 
ATOM     20  C   UNL     1      34.927 -16.309 -20.705  0.00  0.00    -0.004 C 
ATOM     21  C   UNL     1      32.742 -17.257 -21.113  0.00  0.00    -0.004 C 
ATOM     22  C   UNL     1      34.332 -15.183 -20.135  0.00  0.00    -0.000 C 
ATOM     23  C   UNL     1      32.148 -16.132 -20.542  0.00  0.00    -0.000 C 
ATOM     24  C   UNL     1      32.942 -15.095 -20.053  0.00  0.00    -0.000 C 
ENDBRANCH   1  19
BRANCH   1  25
ATOM     25  C   UNL     1      34.713 -18.400 -23.361  0.00  0.00    -0.011 C 
ATOM     26  C   UNL     1      34.641 -19.542 -24.096  0.00  0.00    -0.004 C 
ATOM     27  C   UNL     1      34.740 -17.139 -23.869  0.00  0.00    -0.004 C 
ATOM     28  C   UNL     1      34.591 -19.409 -25.484  0.00  0.00    -0.000 C 
ATOM     29  C   UNL     1      34.690 -17.006 -25.257  0.00  0.00    -0.000 C 
ATOM     30  C   UNL     1      34.615 -18.141 -26.064  0.00  0.00    -0.000 C 
ENDBRANCH   1  25
BRANCH   1  33
ATOM     31  O   UNL     1      36.566 -18.867 -20.127  0.00  0.00    -0.275 OA
ATOM     32  N   UNL     1      37.201 -18.350 -22.256  0.00  0.00    -0.328 N 
ATOM     33  C   UNL     1      36.250 -18.599 -21.287  0.00  0.00    +0.226 C 
ATOM     34  H   UNL     1      38.157 -18.361 -22.022  0.00  0.00    +0.145 HD
ATOM     35  H   UNL     1      36.923 -18.163 -23.182  0.00  0.00    +0.145 HD
ENDBRANCH   1  33
TORSDOF 7
ENDMDL
MODEL 3
REMARK VINA RESULT:      -9.7      3.567      9.241
REMARK  Name = 444031
REMARK  7 active torsions:
REMARK  status: ('A' for Active; 'I' for Inactive)
REMARK    1  A    between atoms: C_1  and  C_3
REMARK    2  A    between atoms: C_1  and  C_19
REMARK    3  A    between atoms: C_1  and  C_25
REMARK    4  A    between atoms: C_1  and  C_33
REMARK    5  A    between atoms: N_2  and  C_8
REMARK    6  A    between atoms: C_8  and  C_9
REMARK    7  A    between atoms: C_9  and  C_11
REMARK                            x       y       z     vdW  Elec       q    Type
REMARK                         _______ _______ _______ _____ _____    ______ ____
ROOT
ATOM      1  C   UNL     1      35.134 -18.476 -21.494  0.00  0.00    +0.104 C 
ENDROOT
BRANCH   1   3
ATOM      2  N   UNL     1      33.876 -15.024 -21.211  0.00  0.00    +0.387 N 
ATOM      3  C   UNL     1      34.637 -17.181 -20.876  0.00  0.00    -0.007 C 
ATOM      4  C   UNL     1      33.134 -17.180 -20.587  0.00  0.00    -0.024 C 
ATOM      5  C   UNL     1      34.838 -15.970 -21.778  0.00  0.00    -0.076 C 
ATOM      6  C   UNL     1      32.647 -15.795 -21.010  0.00  0.00    -0.077 C 
ATOM      7  H   UNL     1      34.216 -14.631 -20.333  0.00  0.00    -0.080 HD
BRANCH   2   8
ATOM      8  C   UNL     1      33.671 -13.860 -22.060  0.00  0.00    -0.073 C 
BRANCH   8   9
ATOM      9  C   UNL     1      32.213 -13.398 -22.014  0.00  0.00    +0.004 C 
BRANCH   9  11
ATOM     10  O   UNL     1      31.702  -8.419 -19.464  0.00  0.00    -0.475 OA
ATOM     11  C   UNL     1      32.077 -12.084 -21.309  0.00  0.00    -0.024 C 
ATOM     12  C   UNL     1      32.172 -10.894 -22.036  0.00  0.00    -0.005 C 
ATOM     13  C   UNL     1      31.846 -12.061 -19.923  0.00  0.00    -0.001 C 
ATOM     14  C   UNL     1      32.047  -9.700 -21.351  0.00  0.00    +0.015 C 
ATOM     15  C   UNL     1      31.820  -9.684 -19.982  0.00  0.00    +0.135 C 
ATOM     16  C   UNL     1      32.042  -8.312 -21.864  0.00  0.00    +0.077 C 
ATOM     17  C   UNL     1      31.710 -10.847 -19.246  0.00  0.00    +0.036 C 
ATOM     18  C   UNL     1      32.165  -7.564 -20.536  0.00  0.00    +0.210 C 
ENDBRANCH   9  11
ENDBRANCH   8   9
ENDBRANCH   2   8
ENDBRANCH   1   3
BRANCH   1  19
ATOM     19  C   UNL     1      34.831 -18.586 -23.029  0.00  0.00    -0.011 C 
ATOM     20  C   UNL     1      34.848 -19.828 -23.577  0.00  0.00    -0.004 C 
ATOM     21  C   UNL     1      34.574 -17.431 -23.695  0.00  0.00    -0.004 C 
ATOM     22  C   UNL     1      34.577 -19.926 -24.942  0.00  0.00    -0.000 C 
ATOM     23  C   UNL     1      34.305 -17.528 -25.060  0.00  0.00    -0.000 C 
ATOM     24  C   UNL     1      34.306 -18.775 -25.684  0.00  0.00    -0.000 C 
ENDBRANCH   1  19
BRANCH   1  25
ATOM     25  C   UNL     1      34.474 -19.697 -20.772  0.00  0.00    -0.011 C 
ATOM     26  C   UNL     1      35.302 -20.579 -20.153  0.00  0.00    -0.004 C 
ATOM     27  C   UNL     1      33.118 -19.788 -20.815  0.00  0.00    -0.004 C 
ATOM     28  C   UNL     1      34.713 -21.668 -19.508  0.00  0.00    -0.000 C 
ATOM     29  C   UNL     1      32.529 -20.876 -20.170  0.00  0.00    -0.000 C 
ATOM     30  C   UNL     1      33.326 -21.816 -19.517  0.00  0.00    -0.000 C 
ENDBRANCH   1  25
BRANCH   1  33
ATOM     31  O   UNL     1      37.276 -18.704 -20.265  0.00  0.00    -0.275 OA
ATOM     32  N   UNL     1      37.394 -18.283 -22.503  0.00  0.00    -0.328 N 
ATOM     33  C   UNL     1      36.696 -18.492 -21.331  0.00  0.00    +0.226 C 
ATOM     34  H   UNL     1      38.378 -18.276 -22.496  0.00  0.00    +0.145 HD
ATOM     35  H   UNL     1      36.907 -18.140 -23.347  0.00  0.00    +0.145 HD
ENDBRANCH   1  33
TORSDOF 7
ENDMDL
MODEL 4
REMARK VINA RESULT:      -9.7      1.555      2.192
REMARK  Name = 444031
REMARK  7 active torsions:
REMARK  status: ('A' for Active; 'I' for Inactive)
REMARK    1  A    between atoms: C_1  and  C_3
REMARK    2  A    between atoms: C_1  and  C_19
REMARK    3  A    between atoms: C_1  and  C_25
REMARK    4  A    between atoms: C_1  and  C_33
REMARK    5  A    between atoms: N_2  and  C_8
REMARK    6  A    between atoms: C_8  and  C_9
REMARK    7  A    between atoms: C_9  and  C_11
REMARK                            x       y       z     vdW  Elec       q    Type
REMARK                         _______ _______ _______ _____ _____    ______ ____
ROOT
ATOM      1  C   UNL     1      34.733 -18.408 -21.857  0.00  0.00    +0.104 C 
ENDROOT
BRANCH   1   3
ATOM      2  N   UNL     1      33.978 -21.448 -19.915  0.00  0.00    +0.387 N 
ATOM      3  C   UNL     1      34.093 -19.725 -21.452  0.00  0.00    -0.007 C 
ATOM      4  C   UNL     1      32.784 -19.555 -20.678  0.00  0.00    -0.024 C 
ATOM      5  C   UNL     1      34.967 -20.554 -20.519  0.00  0.00    -0.076 C 
ATOM      6  C   UNL     1      32.848 -20.588 -19.555  0.00  0.00    -0.077 C 
ATOM      7  H   UNL     1      33.694 -22.180 -20.566  0.00  0.00    -0.080 HD
BRANCH   2   8
ATOM      8  C   UNL     1      34.509 -22.179 -18.775  0.00  0.00    -0.073 C 
BRANCH   8   9
ATOM      9  C   UNL     1      33.633 -23.388 -18.442  0.00  0.00    +0.004 C 
BRANCH   9  11
ATOM     10  O   UNL     1      32.287 -23.593 -12.993  0.00  0.00    -0.475 OA
ATOM     11  C   UNL     1      33.302 -23.441 -16.983  0.00  0.00    -0.024 C 
ATOM     12  C   UNL     1      31.967 -23.385 -16.572  0.00  0.00    -0.005 C 
ATOM     13  C   UNL     1      34.338 -23.554 -16.039  0.00  0.00    -0.001 C 
ATOM     14  C   UNL     1      31.699 -23.431 -15.217  0.00  0.00    +0.015 C 
ATOM     15  C   UNL     1      32.726 -23.541 -14.291  0.00  0.00    +0.135 C 
ATOM     16  C   UNL     1      30.399 -23.453 -14.511  0.00  0.00    +0.077 C 
ATOM     17  C   UNL     1      34.051 -23.611 -14.674  0.00  0.00    +0.036 C 
ATOM     18  C   UNL     1      30.895 -23.206 -13.086  0.00  0.00    +0.210 C 
ENDBRANCH   9  11
ENDBRANCH   8   9
ENDBRANCH   2   8
ENDBRANCH   1   3
BRANCH   1  19
ATOM     19  C   UNL     1      34.057 -17.160 -21.189  0.00  0.00    -0.011 C 
ATOM     20  C   UNL     1      32.700 -17.148 -21.127  0.00  0.00    -0.004 C 
ATOM     21  C   UNL     1      34.879 -16.185 -20.721  0.00  0.00    -0.004 C 
ATOM     22  C   UNL     1      32.099 -16.040 -20.531  0.00  0.00    -0.000 C 
ATOM     23  C   UNL     1      34.278 -15.076 -20.126  0.00  0.00    -0.000 C 
ATOM     24  C   UNL     1      32.888 -15.003 -20.031  0.00  0.00    -0.000 C 
ENDBRANCH   1  19
BRANCH   1  25
ATOM     25  C   UNL     1      34.658 -18.236 -23.410  0.00  0.00    -0.011 C 
ATOM     26  C   UNL     1      34.741 -16.972 -23.904  0.00  0.00    -0.004 C 
ATOM     27  C   UNL     1      34.517 -19.364 -24.157  0.00  0.00    -0.004 C 
ATOM     28  C   UNL     1      34.675 -16.819 -25.289  0.00  0.00    -0.000 C 
ATOM     29  C   UNL     1      34.451 -19.211 -25.542  0.00  0.00    -0.000 C 
ATOM     30  C   UNL     1      34.530 -17.939 -26.108  0.00  0.00    -0.000 C 
ENDBRANCH   1  25
BRANCH   1  33
ATOM     31  O   UNL     1      36.550 -18.664 -20.190  0.00  0.00    -0.275 OA
ATOM     32  N   UNL     1      37.161 -18.255 -22.348  0.00  0.00    -0.328 N 
ATOM     33  C   UNL     1      36.221 -18.448 -21.357  0.00  0.00    +0.226 C 
ATOM     34  H   UNL     1      38.120 -18.264 -22.127  0.00  0.00    +0.145 HD
ATOM     35  H   UNL     1      36.873 -18.108 -23.278  0.00  0.00    +0.145 HD
ENDBRANCH   1  33
TORSDOF 7
ENDMDL
MODEL 5
REMARK VINA RESULT:      -9.1      7.386     10.740
REMARK  Name = 444031
REMARK  7 active torsions:
REMARK  status: ('A' for Active; 'I' for Inactive)
REMARK    1  A    between atoms: C_1  and  C_3
REMARK    2  A    between atoms: C_1  and  C_19
REMARK    3  A    between atoms: C_1  and  C_25
REMARK    4  A    between atoms: C_1  and  C_33
REMARK    5  A    between atoms: N_2  and  C_8
REMARK    6  A    between atoms: C_8  and  C_9
REMARK    7  A    between atoms: C_9  and  C_11
REMARK                            x       y       z     vdW  Elec       q    Type
REMARK                         _______ _______ _______ _____ _____    ______ ____
ROOT
ATOM      1  C   UNL     1      33.073  -7.786 -23.401  0.00  0.00    +0.104 C 
ENDROOT
BRANCH   1   3
ATOM      2  N   UNL     1      32.023 -11.318 -23.336  0.00  0.00    +0.387 N 
ATOM      3  C   UNL     1      32.357  -9.074 -23.774  0.00  0.00    -0.007 C 
ATOM      4  C   UNL     1      30.974  -9.211 -23.133  0.00  0.00    -0.024 C 
ATOM      5  C   UNL     1      33.098 -10.325 -23.318  0.00  0.00    -0.076 C 
ATOM      6  C   UNL     1      30.884 -10.668 -22.687  0.00  0.00    -0.077 C 
ATOM      7  H   UNL     1      31.796 -11.602 -24.289  0.00  0.00    -0.080 HD
BRANCH   2   8
ATOM      8  C   UNL     1      32.403 -12.562 -22.682  0.00  0.00    -0.073 C 
BRANCH   8   9
ATOM      9  C   UNL     1      33.618 -13.192 -23.365  0.00  0.00    +0.004 C 
BRANCH   9  11
ATOM     10  O   UNL     1      35.431 -17.793 -20.701  0.00  0.00    -0.475 OA
ATOM     11  C   UNL     1      34.092 -14.408 -22.630  0.00  0.00    -0.024 C 
ATOM     12  C   UNL     1      34.565 -15.510 -23.347  0.00  0.00    -0.005 C 
ATOM     13  C   UNL     1      34.064 -14.424 -21.225  0.00  0.00    -0.001 C 
ATOM     14  C   UNL     1      34.989 -16.617 -22.635  0.00  0.00    +0.015 C 
ATOM     15  C   UNL     1      34.957 -16.628 -21.248  0.00  0.00    +0.135 C 
ATOM     16  C   UNL     1      35.587 -17.880 -23.121  0.00  0.00    +0.077 C 
ATOM     17  C   UNL     1      34.507 -15.545 -20.519  0.00  0.00    +0.036 C 
ATOM     18  C   UNL     1      35.508 -18.696 -21.831  0.00  0.00    +0.210 C 
ENDBRANCH   9  11
ENDBRANCH   8   9
ENDBRANCH   2   8
ENDBRANCH   1   3
BRANCH   1  19
ATOM     19  C   UNL     1      32.780  -7.318 -21.933  0.00  0.00    -0.011 C 
ATOM     20  C   UNL     1      32.353  -6.040 -21.763  0.00  0.00    -0.004 C 
ATOM     21  C   UNL     1      32.974  -8.226 -20.942  0.00  0.00    -0.004 C 
ATOM     22  C   UNL     1      32.092  -5.623 -20.458  0.00  0.00    -0.000 C 
ATOM     23  C   UNL     1      32.713  -7.809 -19.637  0.00  0.00    -0.000 C 
ATOM     24  C   UNL     1      32.272  -6.509 -19.394  0.00  0.00    -0.000 C 
ENDBRANCH   1  19
BRANCH   1  25
ATOM     25  C   UNL     1      32.649  -6.641 -24.379  0.00  0.00    -0.011 C 
ATOM     26  C   UNL     1      31.365  -6.201 -24.306  0.00  0.00    -0.004 C 
ATOM     27  C   UNL     1      33.595  -6.166 -25.231  0.00  0.00    -0.004 C 
ATOM     28  C   UNL     1      30.986  -5.179 -25.177  0.00  0.00    -0.000 C 
ATOM     29  C   UNL     1      33.217  -5.143 -26.102  0.00  0.00    -0.000 C 
ATOM     30  C   UNL     1      31.913  -4.650 -26.075  0.00  0.00    -0.000 C 
ENDBRANCH   1  25
BRANCH   1  33
ATOM     31  O   UNL     1      35.469  -7.466 -22.849  0.00  0.00    -0.275 OA
ATOM     32  N   UNL     1      34.950  -9.111 -24.340  0.00  0.00    -0.328 N 
ATOM     33  C   UNL     1      34.614  -8.075 -23.493  0.00  0.00    +0.226 C 
ATOM     34  H   UNL     1      35.894  -9.364 -24.460  0.00  0.00    +0.145 HD
ATOM     35  H   UNL     1      34.246  -9.599 -24.825  0.00  0.00    +0.145 HD
ENDBRANCH   1  33
TORSDOF 7
ENDMDL
MODEL 6
REMARK VINA RESULT:      -8.9      3.191      9.127
REMARK  Name = 444031
REMARK  7 active torsions:
REMARK  status: ('A' for Active; 'I' for Inactive)
REMARK    1  A    between atoms: C_1  and  C_3
REMARK    2  A    between atoms: C_1  and  C_19
REMARK    3  A    between atoms: C_1  and  C_25
REMARK    4  A    between atoms: C_1  and  C_33
REMARK    5  A    between atoms: N_2  and  C_8
REMARK    6  A    between atoms: C_8  and  C_9
REMARK    7  A    between atoms: C_9  and  C_11
REMARK                            x       y       z     vdW  Elec       q    Type
REMARK                         _______ _______ _______ _____ _____    ______ ____
ROOT
ATOM      1  C   UNL     1      35.043 -18.617 -21.284  0.00  0.00    +0.104 C 
ENDROOT
BRANCH   1   3
ATOM      2  N   UNL     1      33.934 -15.195 -20.482  0.00  0.00    +0.387 N 
ATOM      3  C   UNL     1      34.441 -17.449 -20.519  0.00  0.00    -0.007 C 
ATOM      4  C   UNL     1      32.926 -17.321 -20.694  0.00  0.00    -0.024 C 
ATOM      5  C   UNL     1      34.978 -16.097 -20.971  0.00  0.00    -0.076 C 
ATOM      6  C   UNL     1      32.669 -15.825 -20.860  0.00  0.00    -0.077 C 
ATOM      7  H   UNL     1      33.999 -15.066 -19.472  0.00  0.00    -0.080 HD
BRANCH   2   8
ATOM      8  C   UNL     1      34.067 -13.847 -21.016  0.00  0.00    -0.073 C 
BRANCH   8   9
ATOM      9  C   UNL     1      32.797 -13.422 -21.754  0.00  0.00    +0.004 C 
BRANCH   9  11
ATOM     10  O   UNL     1      33.798 -12.338 -27.174  0.00  0.00    -0.475 OA
ATOM     11  C   UNL     1      33.076 -13.108 -23.191  0.00  0.00    -0.024 C 
ATOM     12  C   UNL     1      32.828 -14.072 -24.172  0.00  0.00    -0.005 C 
ATOM     13  C   UNL     1      33.578 -11.843 -23.541  0.00  0.00    -0.001 C 
ATOM     14  C   UNL     1      33.103 -13.750 -25.488  0.00  0.00    +0.015 C 
ATOM     15  C   UNL     1      33.599 -12.499 -25.826  0.00  0.00    +0.135 C 
ATOM     16  C   UNL     1      32.883 -14.539 -26.720  0.00  0.00    +0.077 C 
ATOM     17  C   UNL     1      33.839 -11.526 -24.876  0.00  0.00    +0.036 C 
ATOM     18  C   UNL     1      33.682 -13.682 -27.701  0.00  0.00    +0.210 C 
ENDBRANCH   9  11
ENDBRANCH   8   9
ENDBRANCH   2   8
ENDBRANCH   1   3
BRANCH   1  19
ATOM     19  C   UNL     1      34.736 -18.574 -22.821  0.00  0.00    -0.011 C 
ATOM     20  C   UNL     1      34.637 -17.349 -23.400  0.00  0.00    -0.004 C 
ATOM     21  C   UNL     1      34.595 -19.764 -23.459  0.00  0.00    -0.004 C 
ATOM     22  C   UNL     1      34.365 -17.311 -24.768  0.00  0.00    -0.000 C 
ATOM     23  C   UNL     1      34.322 -19.726 -24.826  0.00  0.00    -0.000 C 
ATOM     24  C   UNL     1      34.207 -18.500 -25.481  0.00  0.00    -0.000 C 
ENDBRANCH   1  19
BRANCH   1  25
ATOM     25  C   UNL     1      34.497 -19.965 -20.709  0.00  0.00    -0.011 C 
ATOM     26  C   UNL     1      35.411 -20.892 -20.315  0.00  0.00    -0.004 C 
ATOM     27  C   UNL     1      33.147 -20.115 -20.643  0.00  0.00    -0.004 C 
ATOM     28  C   UNL     1      34.924 -22.094 -19.801  0.00  0.00    -0.000 C 
ATOM     29  C   UNL     1      32.660 -21.318 -20.130  0.00  0.00    -0.000 C 
ATOM     30  C   UNL     1      33.549 -22.307 -19.709  0.00  0.00    -0.000 C 
ENDBRANCH   1  25
BRANCH   1  33
ATOM     31  O   UNL     1      37.196 -18.670 -20.054  0.00  0.00    -0.275 OA
ATOM     32  N   UNL     1      37.282 -18.272 -22.298  0.00  0.00    -0.328 N 
ATOM     33  C   UNL     1      36.602 -18.516 -21.122  0.00  0.00    +0.226 C 
ATOM     34  H   UNL     1      38.263 -18.193 -22.292  0.00  0.00    +0.145 HD
ATOM     35  H   UNL     1      36.786 -18.177 -23.143  0.00  0.00    +0.145 HD
ENDBRANCH   1  33
TORSDOF 7
ENDMDL
MODEL 7
REMARK VINA RESULT:      -8.8      7.527     11.232
REMARK  Name = 444031
REMARK  7 active torsions:
REMARK  status: ('A' for Active; 'I' for Inactive)
REMARK    1  A    between atoms: C_1  and  C_3
REMARK    2  A    between atoms: C_1  and  C_19
REMARK    3  A    between atoms: C_1  and  C_25
REMARK    4  A    between atoms: C_1  and  C_33
REMARK    5  A    between atoms: N_2  and  C_8
REMARK    6  A    between atoms: C_8  and  C_9
REMARK    7  A    between atoms: C_9  and  C_11
REMARK                            x       y       z     vdW  Elec       q    Type
REMARK                         _______ _______ _______ _____ _____    ______ ____
ROOT
ATOM      1  C   UNL     1      32.744  -7.921 -23.444  0.00  0.00    +0.104 C 
ENDROOT
BRANCH   1   3
ATOM      2  N   UNL     1      34.204 -11.273 -23.908  0.00  0.00    +0.387 N 
ATOM      3  C   UNL     1      33.741  -9.067 -23.397  0.00  0.00    -0.007 C 
ATOM      4  C   UNL     1      34.729  -9.064 -24.566  0.00  0.00    -0.024 C 
ATOM      5  C   UNL     1      33.082 -10.438 -23.477  0.00  0.00    -0.076 C 
ATOM      6  C   UNL     1      34.848 -10.527 -24.990  0.00  0.00    -0.077 C 
ATOM      7  H   UNL     1      34.853 -11.448 -23.140  0.00  0.00    -0.080 HD
BRANCH   2   8
ATOM      8  C   UNL     1      33.783 -12.603 -24.321  0.00  0.00    -0.073 C 
BRANCH   8   9
ATOM      9  C   UNL     1      32.863 -13.236 -23.276  0.00  0.00    +0.004 C 
BRANCH   9  11
ATOM     10  O   UNL     1      35.441 -17.495 -20.673  0.00  0.00    -0.475 OA
ATOM     11  C   UNL     1      33.543 -14.361 -22.557  0.00  0.00    -0.024 C 
ATOM     12  C   UNL     1      34.073 -15.429 -23.285  0.00  0.00    -0.005 C 
ATOM     13  C   UNL     1      33.647 -14.326 -21.155  0.00  0.00    -0.001 C 
ATOM     14  C   UNL     1      34.688 -16.452 -22.587  0.00  0.00    +0.015 C 
ATOM     15  C   UNL     1      34.786 -16.413 -21.204  0.00  0.00    +0.135 C 
ATOM     16  C   UNL     1      35.381 -17.657 -23.094  0.00  0.00    +0.077 C 
ATOM     17  C   UNL     1      34.281 -15.361 -20.465  0.00  0.00    +0.036 C 
ATOM     18  C   UNL     1      35.518 -18.426 -21.780  0.00  0.00    +0.210 C 
ENDBRANCH   9  11
ENDBRANCH   8   9
ENDBRANCH   2   8
ENDBRANCH   1   3
BRANCH   1  19
ATOM     19  C   UNL     1      33.131  -6.805 -24.477  0.00  0.00    -0.011 C 
ATOM     20  C   UNL     1      34.417  -6.784 -24.914  0.00  0.00    -0.004 C 
ATOM     21  C   UNL     1      32.152  -5.945 -24.858  0.00  0.00    -0.004 C 
ATOM     22  C   UNL     1      34.761  -5.793 -25.833  0.00  0.00    -0.000 C 
ATOM     23  C   UNL     1      32.496  -4.954 -25.776  0.00  0.00    -0.000 C 
ATOM     24  C   UNL     1      33.800  -4.877 -26.264  0.00  0.00    -0.000 C 
ENDBRANCH   1  19
BRANCH   1  25
ATOM     25  C   UNL     1      32.624  -7.263 -22.030  0.00  0.00    -0.011 C 
ATOM     26  C   UNL     1      33.115  -7.962 -20.972  0.00  0.00    -0.004 C 
ATOM     27  C   UNL     1      32.037  -6.039 -21.958  0.00  0.00    -0.004 C 
ATOM     28  C   UNL     1      33.009  -7.376 -19.710  0.00  0.00    -0.000 C 
ATOM     29  C   UNL     1      31.931  -5.452 -20.697  0.00  0.00    -0.000 C 
ATOM     30  C   UNL     1      32.416  -6.121 -19.573  0.00  0.00    -0.000 C 
ENDBRANCH   1  25
BRANCH   1  33
ATOM     31  O   UNL     1      30.929  -8.424 -25.057  0.00  0.00    -0.275 OA
ATOM     32  N   UNL     1      30.697  -9.229 -22.937  0.00  0.00    -0.328 N 
ATOM     33  C   UNL     1      31.373  -8.526 -23.912  0.00  0.00    +0.226 C 
ATOM     34  H   UNL     1      29.828  -9.644 -23.141  0.00  0.00    +0.145 HD
ATOM     35  H   UNL     1      31.084  -9.317 -22.036  0.00  0.00    +0.145 HD
ENDBRANCH   1  33
TORSDOF 7
ENDMDL
MODEL 8
REMARK VINA RESULT:      -8.8      3.269      9.280
REMARK  Name = 444031
REMARK  7 active torsions:
REMARK  status: ('A' for Active; 'I' for Inactive)
REMARK    1  A    between atoms: C_1  and  C_3
REMARK    2  A    between atoms: C_1  and  C_19
REMARK    3  A    between atoms: C_1  and  C_25
REMARK    4  A    between atoms: C_1  and  C_33
REMARK    5  A    between atoms: N_2  and  C_8
REMARK    6  A    between atoms: C_8  and  C_9
REMARK    7  A    between atoms: C_9  and  C_11
REMARK                            x       y       z     vdW  Elec       q    Type
REMARK                         _______ _______ _______ _____ _____    ______ ____
ROOT
ATOM      1  C   UNL     1      34.562 -18.264 -21.792  0.00  0.00    +0.104 C 
ENDROOT
BRANCH   1   3
ATOM      2  N   UNL     1      33.882 -17.401 -25.310  0.00  0.00    +0.387 N 
ATOM      3  C   UNL     1      34.054 -18.374 -23.220  0.00  0.00    -0.007 C 
ATOM      4  C   UNL     1      35.009 -19.125 -24.151  0.00  0.00    -0.024 C 
ATOM      5  C   UNL     1      33.872 -17.021 -23.898  0.00  0.00    -0.076 C 
ATOM      6  C   UNL     1      35.006 -18.329 -25.454  0.00  0.00    -0.077 C 
ATOM      7  H   UNL     1      33.001 -17.840 -25.582  0.00  0.00    -0.080 HD
BRANCH   2   8
ATOM      8  C   UNL     1      33.990 -16.252 -26.197  0.00  0.00    -0.073 C 
BRANCH   8   9
ATOM      9  C   UNL     1      32.768 -15.341 -26.064  0.00  0.00    +0.004 C 
BRANCH   9  11
ATOM     10  O   UNL     1      34.101 -10.476 -23.594  0.00  0.00    -0.475 OA
ATOM     11  C   UNL     1      33.114 -14.055 -25.381  0.00  0.00    -0.024 C 
ATOM     12  C   UNL     1      33.800 -13.059 -26.083  0.00  0.00    -0.005 C 
ATOM     13  C   UNL     1      32.739 -13.858 -24.041  0.00  0.00    -0.001 C 
ATOM     14  C   UNL     1      34.108 -11.887 -25.418  0.00  0.00    +0.015 C 
ATOM     15  C   UNL     1      33.736 -11.700 -24.095  0.00  0.00    +0.135 C 
ATOM     16  C   UNL     1      34.761 -10.659 -25.922  0.00  0.00    +0.077 C 
ATOM     17  C   UNL     1      33.047 -12.663 -23.385  0.00  0.00    +0.036 C 
ATOM     18  C   UNL     1      35.018  -9.959 -24.588  0.00  0.00    +0.210 C 
ENDBRANCH   9  11
ENDBRANCH   8   9
ENDBRANCH   2   8
ENDBRANCH   1   3
BRANCH   1  19
ATOM     19  C   UNL     1      34.186 -19.501 -20.905  0.00  0.00    -0.011 C 
ATOM     20  C   UNL     1      32.865 -19.757 -20.724  0.00  0.00    -0.004 C 
ATOM     21  C   UNL     1      35.211 -20.226 -20.386  0.00  0.00    -0.004 C 
ATOM     22  C   UNL     1      32.531 -20.859 -19.936  0.00  0.00    -0.000 C 
ATOM     23  C   UNL     1      34.877 -21.327 -19.597  0.00  0.00    -0.000 C 
ATOM     24  C   UNL     1      33.538 -21.644 -19.372  0.00  0.00    -0.000 C 
ENDBRANCH   1  19
BRANCH   1  25
ATOM     25  C   UNL     1      33.978 -16.978 -21.119  0.00  0.00    -0.011 C 
ATOM     26  C   UNL     1      34.863 -16.037 -20.697  0.00  0.00    -0.004 C 
ATOM     27  C   UNL     1      32.625 -16.894 -21.003  0.00  0.00    -0.004 C 
ATOM     28  C   UNL     1      34.342 -14.890 -20.097  0.00  0.00    -0.000 C 
ATOM     29  C   UNL     1      32.105 -15.747 -20.403  0.00  0.00    -0.000 C 
ATOM     30  C   UNL     1      32.963 -14.745 -19.950  0.00  0.00    -0.000 C 
ENDBRANCH   1  25
BRANCH   1  33
ATOM     31  O   UNL     1      36.876 -18.930 -21.204  0.00  0.00    -0.275 OA
ATOM     32  N   UNL     1      36.626 -17.297 -22.775  0.00  0.00    -0.328 N 
ATOM     33  C   UNL     1      36.129 -18.209 -21.866  0.00  0.00    +0.226 C 
ATOM     34  H   UNL     1      37.598 -17.195 -22.889  0.00  0.00    +0.145 HD
ATOM     35  H   UNL     1      36.007 -16.749 -23.311  0.00  0.00    +0.145 HD
ENDBRANCH   1  33
TORSDOF 7
ENDMDL
MODEL 9
REMARK VINA RESULT:      -8.8      6.702     10.155
REMARK  Name = 444031
REMARK  7 active torsions:
REMARK  status: ('A' for Active; 'I' for Inactive)
REMARK    1  A    between atoms: C_1  and  C_3
REMARK    2  A    between atoms: C_1  and  C_19
REMARK    3  A    between atoms: C_1  and  C_25
REMARK    4  A    between atoms: C_1  and  C_33
REMARK    5  A    between atoms: N_2  and  C_8
REMARK    6  A    between atoms: C_8  and  C_9
REMARK    7  A    between atoms: C_9  and  C_11
REMARK                            x       y       z     vdW  Elec       q    Type
REMARK                         _______ _______ _______ _____ _____    ______ ____
ROOT
ATOM      1  C   UNL     1      32.664  -8.437 -22.396  0.00  0.00    +0.104 C 
ENDROOT
BRANCH   1   3
ATOM      2  N   UNL     1      31.290 -11.514 -20.903  0.00  0.00    +0.387 N 
ATOM      3  C   UNL     1      31.706  -9.379 -21.686  0.00  0.00    -0.007 C 
ATOM      4  C   UNL     1      31.825  -9.335 -20.161  0.00  0.00    -0.024 C 
ATOM      5  C   UNL     1      31.942 -10.845 -22.030  0.00  0.00    -0.076 C 
ATOM      6  C   UNL     1      31.738 -10.792 -19.711  0.00  0.00    -0.077 C 
ATOM      7  H   UNL     1      30.274 -11.487 -20.994  0.00  0.00    -0.080 HD
BRANCH   2   8
ATOM      8  C   UNL     1      31.599 -12.935 -20.844  0.00  0.00    -0.073 C 
BRANCH   8   9
ATOM      9  C   UNL     1      32.170 -13.428 -22.174  0.00  0.00    +0.004 C 
BRANCH   9  11
ATOM     10  O   UNL     1      35.790 -17.674 -21.529  0.00  0.00    -0.475 OA
ATOM     11  C   UNL     1      33.133 -14.557 -21.974  0.00  0.00    -0.024 C 
ATOM     12  C   UNL     1      33.574 -15.296 -23.075  0.00  0.00    -0.005 C 
ATOM     13  C   UNL     1      33.590 -14.858 -20.679  0.00  0.00    -0.001 C 
ATOM     14  C   UNL     1      34.458 -16.335 -22.852  0.00  0.00    +0.015 C 
ATOM     15  C   UNL     1      34.904 -16.628 -21.571  0.00  0.00    +0.135 C 
ATOM     16  C   UNL     1      35.128 -17.230 -23.821  0.00  0.00    +0.077 C 
ATOM     17  C   UNL     1      34.492 -15.904 -20.470  0.00  0.00    +0.036 C 
ATOM     18  C   UNL     1      35.683 -18.268 -22.845  0.00  0.00    +0.210 C 
ENDBRANCH   9  11
ENDBRANCH   8   9
ENDBRANCH   2   8
ENDBRANCH   1   3
BRANCH   1  19
ATOM     19  C   UNL     1      31.941  -7.247 -23.118  0.00  0.00    -0.011 C 
ATOM     20  C   UNL     1      32.186  -5.996 -22.649  0.00  0.00    -0.004 C 
ATOM     21  C   UNL     1      31.125  -7.557 -24.159  0.00  0.00    -0.004 C 
ATOM     22  C   UNL     1      31.543  -4.938 -23.292  0.00  0.00    -0.000 C 
ATOM     23  C   UNL     1      30.482  -6.498 -24.801  0.00  0.00    -0.000 C 
ATOM     24  C   UNL     1      30.691  -5.189 -24.368  0.00  0.00    -0.000 C 
ENDBRANCH   1  19
BRANCH   1  25
ATOM     25  C   UNL     1      33.495  -9.228 -23.460  0.00  0.00    -0.011 C 
ATOM     26  C   UNL     1      33.061 -10.472 -23.793  0.00  0.00    -0.004 C 
ATOM     27  C   UNL     1      34.593  -8.614 -23.977  0.00  0.00    -0.004 C 
ATOM     28  C   UNL     1      33.802 -11.177 -24.743  0.00  0.00    -0.000 C 
ATOM     29  C   UNL     1      35.334  -9.319 -24.926  0.00  0.00    -0.000 C 
ATOM     30  C   UNL     1      34.938 -10.600 -25.309  0.00  0.00    -0.000 C 
ENDBRANCH   1  25
BRANCH   1  33
ATOM     31  O   UNL     1      34.776  -7.525 -21.473  0.00  0.00    -0.275 OA
ATOM     32  N   UNL     1      32.963  -7.565 -20.092  0.00  0.00    -0.328 N 
ATOM     33  C   UNL     1      33.592  -7.812 -21.295  0.00  0.00    +0.226 C 
ATOM     34  H   UNL     1      33.468  -7.173 -19.343  0.00  0.00    +0.145 HD
ATOM     35  H   UNL     1      32.008  -7.781 -19.982  0.00  0.00    +0.145 HD
ENDBRANCH   1  33
TORSDOF 7
ENDMDL
