MODEL 1
REMARK VINA RESULT:      -6.2      0.000      0.000
REMARK  Name = 16666733
REMARK  6 active torsions:
REMARK  status: ('A' for Active; 'I' for Inactive)
REMARK    1  A    between atoms: C_2  and  C_13
REMARK    2  A    between atoms: C_3  and  O_7
REMARK    3  A    between atoms: C_4  and  O_9
REMARK    4  A    between atoms: C_5  and  O_11
REMARK    5  A    between atoms: C_13  and  C_14
REMARK    6  A    between atoms: C_14  and  O_16
REMARK                            x       y       z     vdW  Elec       q    Type
REMARK                         _______ _______ _______ _____ _____    ______ ____
ROOT
ATOM      1  O   UNL     1      36.281 -24.818 -15.478  0.00  0.00    -0.351 OA
ATOM      2  C   UNL     1      36.547 -25.723 -14.402  0.00  0.00    +0.147 C 
ATOM      3  C   UNL     1      36.377 -25.014 -13.054  0.00  0.00    +0.167 C 
ATOM      4  C   UNL     1      34.991 -24.374 -12.946  0.00  0.00    +0.169 C 
ATOM      5  C   UNL     1      34.677 -23.535 -14.184  0.00  0.00    +0.169 C 
ATOM      6  C   UNL     1      34.943 -24.331 -15.454  0.00  0.00    +0.174 C 
ENDROOT
BRANCH   3   7
ATOM      7  O   UNL     1      36.541 -25.960 -12.000  0.00  0.00    -0.379 OA
ATOM      8  H   UNL     1      36.008 -25.688 -11.236  0.00  0.00    +0.211 HD
ENDBRANCH   3   7
BRANCH   4   9
ATOM      9  O   UNL     1      34.944 -23.540 -11.786  0.00  0.00    -0.379 OA
ATOM     10  H   UNL     1      34.343 -22.796 -11.948  0.00  0.00    +0.211 HD
ENDBRANCH   4   9
BRANCH   5  11
ATOM     11  O   UNL     1      33.310 -23.141 -14.171  0.00  0.00    -0.379 OA
ATOM     12  H   UNL     1      33.056 -22.825 -15.053  0.00  0.00    +0.211 HD
ENDBRANCH   5  11
BRANCH   2  13
ATOM     13  C   UNL     1      37.966 -26.253 -14.586  0.00  0.00    +0.061 C 
BRANCH  13  14
ATOM     14  C   UNL     1      39.021 -25.178 -14.322  0.00  0.00    +0.113 C 
ATOM     15  C   UNL     1      40.416 -25.786 -14.250  0.00  0.00    +0.032 C 
BRANCH  14  16
ATOM     16  O   UNL     1      38.989 -24.223 -15.378  0.00  0.00    -0.384 OA
ATOM     17  H   UNL     1      38.667 -24.648 -16.190  0.00  0.00    +0.210 HD
ENDBRANCH  14  16
ENDBRANCH  13  14
ENDBRANCH   2  13
TORSDOF 6
ENDMDL
MODEL 2
REMARK VINA RESULT:      -6.1      1.599      4.249
REMARK  Name = 16666733
REMARK  6 active torsions:
REMARK  status: ('A' for Active; 'I' for Inactive)
REMARK    1  A    between atoms: C_2  and  C_13
REMARK    2  A    between atoms: C_3  and  O_7
REMARK    3  A    between atoms: C_4  and  O_9
REMARK    4  A    between atoms: C_5  and  O_11
REMARK    5  A    between atoms: C_13  and  C_14
REMARK    6  A    between atoms: C_14  and  O_16
REMARK                            x       y       z     vdW  Elec       q    Type
REMARK                         _______ _______ _______ _____ _____    ______ ____
ROOT
ATOM      1  O   UNL     1      36.089 -24.579 -15.438  0.00  0.00    -0.351 OA
ATOM      2  C   UNL     1      35.448 -23.694 -14.515  0.00  0.00    +0.147 C 
ATOM      3  C   UNL     1      35.221 -24.398 -13.172  0.00  0.00    +0.167 C 
ATOM      4  C   UNL     1      36.535 -24.960 -12.623  0.00  0.00    +0.169 C 
ATOM      5  C   UNL     1      37.269 -25.775 -13.687  0.00  0.00    +0.169 C 
ATOM      6  C   UNL     1      37.375 -24.990 -14.986  0.00  0.00    +0.174 C 
ENDROOT
BRANCH   3   7
ATOM      7  O   UNL     1      34.682 -23.468 -12.237  0.00  0.00    -0.379 OA
ATOM      8  H   UNL     1      34.136 -23.940 -11.589  0.00  0.00    +0.211 HD
ENDBRANCH   3   7
BRANCH   4   9
ATOM      9  O   UNL     1      36.259 -25.795 -11.496  0.00  0.00    -0.379 OA
ATOM     10  H   UNL     1      37.090 -26.020 -11.050  0.00  0.00    +0.211 HD
ENDBRANCH   4   9
BRANCH   5  11
ATOM     11  O   UNL     1      38.581 -26.091 -13.237  0.00  0.00    -0.379 OA
ATOM     12  H   UNL     1      39.081 -25.271 -13.092  0.00  0.00    +0.211 HD
ENDBRANCH   5  11
BRANCH   2  13
ATOM     13  C   UNL     1      34.133 -23.245 -15.144  0.00  0.00    +0.061 C 
BRANCH  13  14
ATOM     14  C   UNL     1      34.097 -23.502 -16.651  0.00  0.00    +0.113 C 
ATOM     15  C   UNL     1      32.753 -23.101 -17.244  0.00  0.00    +0.032 C 
BRANCH  14  16
ATOM     16  O   UNL     1      35.123 -22.740 -17.279  0.00  0.00    -0.384 OA
ATOM     17  H   UNL     1      35.989 -23.119 -17.060  0.00  0.00    +0.210 HD
ENDBRANCH  14  16
ENDBRANCH  13  14
ENDBRANCH   2  13
TORSDOF 6
ENDMDL
MODEL 3
REMARK VINA RESULT:      -6.0     11.688     13.335
REMARK  Name = 16666733
REMARK  6 active torsions:
REMARK  status: ('A' for Active; 'I' for Inactive)
REMARK    1  A    between atoms: C_2  and  C_13
REMARK    2  A    between atoms: C_3  and  O_7
REMARK    3  A    between atoms: C_4  and  O_9
REMARK    4  A    between atoms: C_5  and  O_11
REMARK    5  A    between atoms: C_13  and  C_14
REMARK    6  A    between atoms: C_14  and  O_16
REMARK                            x       y       z     vdW  Elec       q    Type
REMARK                         _______ _______ _______ _____ _____    ______ ____
ROOT
ATOM      1  O   UNL     1      34.224 -16.026 -22.678  0.00  0.00    -0.351 OA
ATOM      2  C   UNL     1      34.859 -16.938 -23.577  0.00  0.00    +0.147 C 
ATOM      3  C   UNL     1      34.101 -16.991 -24.909  0.00  0.00    +0.167 C 
ATOM      4  C   UNL     1      33.955 -15.589 -25.508  0.00  0.00    +0.169 C 
ATOM      5  C   UNL     1      33.417 -14.603 -24.471  0.00  0.00    +0.169 C 
ATOM      6  C   UNL     1      34.216 -14.693 -23.179  0.00  0.00    +0.174 C 
ENDROOT
BRANCH   3   7
ATOM      7  O   UNL     1      34.810 -17.821 -25.824  0.00  0.00    -0.379 OA
ATOM      8  H   UNL     1      35.575 -17.337 -26.173  0.00  0.00    +0.211 HD
ENDBRANCH   3   7
BRANCH   4   9
ATOM      9  O   UNL     1      33.060 -15.641 -26.621  0.00  0.00    -0.379 OA
ATOM     10  H   UNL     1      32.912 -16.566 -26.873  0.00  0.00    +0.211 HD
ENDBRANCH   4   9
BRANCH   5  11
ATOM     11  O   UNL     1      33.506 -13.275 -24.972  0.00  0.00    -0.379 OA
ATOM     12  H   UNL     1      33.615 -13.299 -25.937  0.00  0.00    +0.211 HD
ENDBRANCH   5  11
BRANCH   2  13
ATOM     13  C   UNL     1      34.898 -18.304 -22.897  0.00  0.00    +0.061 C 
BRANCH  13  14
ATOM     14  C   UNL     1      34.426 -18.238 -21.445  0.00  0.00    +0.113 C 
ATOM     15  C   UNL     1      34.049 -19.620 -20.928  0.00  0.00    +0.032 C 
BRANCH  14  16
ATOM     16  O   UNL     1      35.474 -17.715 -20.636  0.00  0.00    -0.384 OA
ATOM     17  H   UNL     1      35.915 -18.441 -20.166  0.00  0.00    +0.210 HD
ENDBRANCH  14  16
ENDBRANCH  13  14
ENDBRANCH   2  13
TORSDOF 6
ENDMDL
MODEL 4
REMARK VINA RESULT:      -6.0      9.806     11.450
REMARK  Name = 16666733
REMARK  6 active torsions:
REMARK  status: ('A' for Active; 'I' for Inactive)
REMARK    1  A    between atoms: C_2  and  C_13
REMARK    2  A    between atoms: C_3  and  O_7
REMARK    3  A    between atoms: C_4  and  O_9
REMARK    4  A    between atoms: C_5  and  O_11
REMARK    5  A    between atoms: C_13  and  C_14
REMARK    6  A    between atoms: C_14  and  O_16
REMARK                            x       y       z     vdW  Elec       q    Type
REMARK                         _______ _______ _______ _____ _____    ______ ____
ROOT
ATOM      1  O   UNL     1      34.943 -19.453 -23.700  0.00  0.00    -0.351 OA
ATOM      2  C   UNL     1      34.670 -18.887 -22.414  0.00  0.00    +0.147 C 
ATOM      3  C   UNL     1      35.202 -17.452 -22.339  0.00  0.00    +0.167 C 
ATOM      4  C   UNL     1      34.639 -16.601 -23.481  0.00  0.00    +0.169 C 
ATOM      5  C   UNL     1      34.810 -17.307 -24.825  0.00  0.00    +0.169 C 
ATOM      6  C   UNL     1      34.300 -18.738 -24.751  0.00  0.00    +0.174 C 
ENDROOT
BRANCH   3   7
ATOM      7  O   UNL     1      34.824 -16.874 -21.093  0.00  0.00    -0.379 OA
ATOM      8  H   UNL     1      34.336 -16.051 -21.253  0.00  0.00    +0.211 HD
ENDBRANCH   3   7
BRANCH   4   9
ATOM      9  O   UNL     1      35.319 -15.345 -23.516  0.00  0.00    -0.379 OA
ATOM     10  H   UNL     1      36.171 -15.452 -23.968  0.00  0.00    +0.211 HD
ENDBRANCH   4   9
BRANCH   5  11
ATOM     11  O   UNL     1      34.082 -16.615 -25.833  0.00  0.00    -0.379 OA
ATOM     12  H   UNL     1      34.704 -16.199 -26.454  0.00  0.00    +0.211 HD
ENDBRANCH   5  11
BRANCH   2  13
ATOM     13  C   UNL     1      35.322 -19.786 -21.368  0.00  0.00    +0.061 C 
BRANCH  13  14
ATOM     14  C   UNL     1      34.352 -20.168 -20.251  0.00  0.00    +0.113 C 
ATOM     15  C   UNL     1      32.911 -20.142 -20.743  0.00  0.00    +0.032 C 
BRANCH  14  16
ATOM     16  O   UNL     1      34.660 -21.482 -19.795  0.00  0.00    -0.384 OA
ATOM     17  H   UNL     1      34.998 -22.011 -20.535  0.00  0.00    +0.210 HD
ENDBRANCH  14  16
ENDBRANCH  13  14
ENDBRANCH   2  13
TORSDOF 6
ENDMDL
MODEL 5
REMARK VINA RESULT:      -6.0      4.239      7.002
REMARK  Name = 16666733
REMARK  6 active torsions:
REMARK  status: ('A' for Active; 'I' for Inactive)
REMARK    1  A    between atoms: C_2  and  C_13
REMARK    2  A    between atoms: C_3  and  O_7
REMARK    3  A    between atoms: C_4  and  O_9
REMARK    4  A    between atoms: C_5  and  O_11
REMARK    5  A    between atoms: C_13  and  C_14
REMARK    6  A    between atoms: C_14  and  O_16
REMARK                            x       y       z     vdW  Elec       q    Type
REMARK                         _______ _______ _______ _____ _____    ______ ____
ROOT
ATOM      1  O   UNL     1      31.300 -23.789 -16.308  0.00  0.00    -0.351 OA
ATOM      2  C   UNL     1      30.488 -23.936 -15.139  0.00  0.00    +0.147 C 
ATOM      3  C   UNL     1      31.253 -24.699 -14.051  0.00  0.00    +0.167 C 
ATOM      4  C   UNL     1      32.592 -24.021 -13.749  0.00  0.00    +0.169 C 
ATOM      5  C   UNL     1      33.366 -23.739 -15.036  0.00  0.00    +0.169 C 
ATOM      6  C   UNL     1      32.481 -23.035 -16.053  0.00  0.00    +0.174 C 
ENDROOT
BRANCH   3   7
ATOM      7  O   UNL     1      30.468 -24.738 -12.863  0.00  0.00    -0.379 OA
ATOM      8  H   UNL     1      29.728 -25.354 -12.985  0.00  0.00    +0.211 HD
ENDBRANCH   3   7
BRANCH   4   9
ATOM      9  O   UNL     1      33.372 -24.869 -12.904  0.00  0.00    -0.379 OA
ATOM     10  H   UNL     1      32.811 -25.223 -12.196  0.00  0.00    +0.211 HD
ENDBRANCH   4   9
BRANCH   5  11
ATOM     11  O   UNL     1      34.489 -22.911 -14.757  0.00  0.00    -0.379 OA
ATOM     12  H   UNL     1      34.185 -22.079 -14.358  0.00  0.00    +0.211 HD
ENDBRANCH   5  11
BRANCH   2  13
ATOM     13  C   UNL     1      29.215 -24.668 -15.551  0.00  0.00    +0.061 C 
BRANCH  13  14
ATOM     14  C   UNL     1      28.207 -23.737 -16.225  0.00  0.00    +0.113 C 
ATOM     15  C   UNL     1      28.194 -22.368 -15.558  0.00  0.00    +0.032 C 
BRANCH  14  16
ATOM     16  O   UNL     1      28.560 -23.579 -17.596  0.00  0.00    -0.384 OA
ATOM     17  H   UNL     1      28.505 -24.437 -18.046  0.00  0.00    +0.210 HD
ENDBRANCH  14  16
ENDBRANCH  13  14
ENDBRANCH   2  13
TORSDOF 6
ENDMDL
MODEL 6
REMARK VINA RESULT:      -6.0      2.151      3.524
REMARK  Name = 16666733
REMARK  6 active torsions:
REMARK  status: ('A' for Active; 'I' for Inactive)
REMARK    1  A    between atoms: C_2  and  C_13
REMARK    2  A    between atoms: C_3  and  O_7
REMARK    3  A    between atoms: C_4  and  O_9
REMARK    4  A    between atoms: C_5  and  O_11
REMARK    5  A    between atoms: C_13  and  C_14
REMARK    6  A    between atoms: C_14  and  O_16
REMARK                            x       y       z     vdW  Elec       q    Type
REMARK                         _______ _______ _______ _____ _____    ______ ____
ROOT
ATOM      1  O   UNL     1      35.420 -23.223 -14.317  0.00  0.00    -0.351 OA
ATOM      2  C   UNL     1      36.679 -23.752 -14.743  0.00  0.00    +0.147 C 
ATOM      3  C   UNL     1      37.634 -23.883 -13.550  0.00  0.00    +0.167 C 
ATOM      4  C   UNL     1      36.999 -24.717 -12.434  0.00  0.00    +0.169 C 
ATOM      5  C   UNL     1      35.592 -24.219 -12.110  0.00  0.00    +0.169 C 
ATOM      6  C   UNL     1      34.767 -24.074 -13.380  0.00  0.00    +0.174 C 
ENDROOT
BRANCH   3   7
ATOM      7  O   UNL     1      38.839 -24.511 -13.978  0.00  0.00    -0.379 OA
ATOM      8  H   UNL     1      38.687 -25.464 -14.084  0.00  0.00    +0.211 HD
ENDBRANCH   3   7
BRANCH   4   9
ATOM      9  O   UNL     1      37.812 -24.635 -11.261  0.00  0.00    -0.379 OA
ATOM     10  H   UNL     1      38.742 -24.534 -11.520  0.00  0.00    +0.211 HD
ENDBRANCH   4   9
BRANCH   5  11
ATOM     11  O   UNL     1      34.938 -25.138 -11.243  0.00  0.00    -0.379 OA
ATOM     12  H   UNL     1      33.990 -25.162 -11.453  0.00  0.00    +0.211 HD
ENDBRANCH   5  11
BRANCH   2  13
ATOM     13  C   UNL     1      37.235 -22.814 -15.809  0.00  0.00    +0.061 C 
BRANCH  13  14
ATOM     14  C   UNL     1      36.135 -22.233 -16.697  0.00  0.00    +0.113 C 
ATOM     15  C   UNL     1      36.712 -21.681 -17.994  0.00  0.00    +0.032 C 
BRANCH  14  16
ATOM     16  O   UNL     1      35.197 -23.258 -17.011  0.00  0.00    -0.384 OA
ATOM     17  H   UNL     1      34.436 -23.194 -16.412  0.00  0.00    +0.210 HD
ENDBRANCH  14  16
ENDBRANCH  13  14
ENDBRANCH   2  13
TORSDOF 6
ENDMDL
MODEL 7
REMARK VINA RESULT:      -5.9      7.707      9.519
REMARK  Name = 16666733
REMARK  6 active torsions:
REMARK  status: ('A' for Active; 'I' for Inactive)
REMARK    1  A    between atoms: C_2  and  C_13
REMARK    2  A    between atoms: C_3  and  O_7
REMARK    3  A    between atoms: C_4  and  O_9
REMARK    4  A    between atoms: C_5  and  O_11
REMARK    5  A    between atoms: C_13  and  C_14
REMARK    6  A    between atoms: C_14  and  O_16
REMARK                            x       y       z     vdW  Elec       q    Type
REMARK                         _______ _______ _______ _____ _____    ______ ____
ROOT
ATOM      1  O   UNL     1      35.951 -19.629 -21.090  0.00  0.00    -0.351 OA
ATOM      2  C   UNL     1      34.658 -19.045 -20.910  0.00  0.00    +0.147 C 
ATOM      3  C   UNL     1      33.592 -20.139 -20.777  0.00  0.00    +0.167 C 
ATOM      4  C   UNL     1      33.951 -21.115 -19.653  0.00  0.00    +0.169 C 
ATOM      5  C   UNL     1      35.394 -21.601 -19.790  0.00  0.00    +0.169 C 
ATOM      6  C   UNL     1      36.342 -20.426 -19.976  0.00  0.00    +0.174 C 
ENDROOT
BRANCH   3   7
ATOM      7  O   UNL     1      32.332 -19.538 -20.492  0.00  0.00    -0.379 OA
ATOM      8  H   UNL     1      32.140 -18.860 -21.159  0.00  0.00    +0.211 HD
ENDBRANCH   3   7
BRANCH   4   9
ATOM      9  O   UNL     1      33.067 -22.237 -19.700  0.00  0.00    -0.379 OA
ATOM     10  H   UNL     1      33.555 -23.042 -19.463  0.00  0.00    +0.211 HD
ENDBRANCH   4   9
BRANCH   5  11
ATOM     11  O   UNL     1      35.778 -22.317 -18.622  0.00  0.00    -0.379 OA
ATOM     12  H   UNL     1      35.006 -22.782 -18.259  0.00  0.00    +0.211 HD
ENDBRANCH   5  11
BRANCH   2  13
ATOM     13  C   UNL     1      34.390 -18.141 -22.110  0.00  0.00    +0.061 C 
BRANCH  13  14
ATOM     14  C   UNL     1      35.405 -18.357 -23.232  0.00  0.00    +0.113 C 
ATOM     15  C   UNL     1      34.819 -19.217 -24.344  0.00  0.00    +0.032 C 
BRANCH  14  16
ATOM     16  O   UNL     1      35.777 -17.094 -23.775  0.00  0.00    -0.384 OA
ATOM     17  H   UNL     1      36.261 -17.228 -24.606  0.00  0.00    +0.210 HD
ENDBRANCH  14  16
ENDBRANCH  13  14
ENDBRANCH   2  13
TORSDOF 6
ENDMDL
MODEL 8
REMARK VINA RESULT:      -5.9     13.377     15.083
REMARK  Name = 16666733
REMARK  6 active torsions:
REMARK  status: ('A' for Active; 'I' for Inactive)
REMARK    1  A    between atoms: C_2  and  C_13
REMARK    2  A    between atoms: C_3  and  O_7
REMARK    3  A    between atoms: C_4  and  O_9
REMARK    4  A    between atoms: C_5  and  O_11
REMARK    5  A    between atoms: C_13  and  C_14
REMARK    6  A    between atoms: C_14  and  O_16
REMARK                            x       y       z     vdW  Elec       q    Type
REMARK                         _______ _______ _______ _____ _____    ______ ____
ROOT
ATOM      1  O   UNL     1      33.613 -16.386 -25.733  0.00  0.00    -0.351 OA
ATOM      2  C   UNL     1      33.835 -15.048 -25.278  0.00  0.00    +0.147 C 
ATOM      3  C   UNL     1      33.926 -15.014 -23.748  0.00  0.00    +0.167 C 
ATOM      4  C   UNL     1      34.996 -15.986 -23.244  0.00  0.00    +0.169 C 
ATOM      5  C   UNL     1      34.820 -17.368 -23.871  0.00  0.00    +0.169 C 
ATOM      6  C   UNL     1      34.681 -17.260 -25.382  0.00  0.00    +0.174 C 
ENDROOT
BRANCH   3   7
ATOM      7  O   UNL     1      34.255 -13.694 -23.325  0.00  0.00    -0.379 OA
ATOM      8  H   UNL     1      35.198 -13.530 -23.481  0.00  0.00    +0.211 HD
ENDBRANCH   3   7
BRANCH   4   9
ATOM      9  O   UNL     1      34.904 -16.096 -21.822  0.00  0.00    -0.379 OA
ATOM     10  H   UNL     1      35.555 -16.743 -21.506  0.00  0.00    +0.211 HD
ENDBRANCH   4   9
BRANCH   5  11
ATOM     11  O   UNL     1      35.946 -18.185 -23.573  0.00  0.00    -0.379 OA
ATOM     12  H   UNL     1      36.501 -17.742 -22.910  0.00  0.00    +0.211 HD
ENDBRANCH   5  11
BRANCH   2  13
ATOM     13  C   UNL     1      32.685 -14.189 -25.793  0.00  0.00    +0.061 C 
BRANCH  13  14
ATOM     14  C   UNL     1      33.131 -13.228 -26.895  0.00  0.00    +0.113 C 
ATOM     15  C   UNL     1      33.886 -12.040 -26.314  0.00  0.00    +0.032 C 
BRANCH  14  16
ATOM     16  O   UNL     1      33.987 -13.920 -27.799  0.00  0.00    -0.384 OA
ATOM     17  H   UNL     1      34.901 -13.882 -27.474  0.00  0.00    +0.210 HD
ENDBRANCH  14  16
ENDBRANCH  13  14
ENDBRANCH   2  13
TORSDOF 6
ENDMDL
MODEL 9
REMARK VINA RESULT:      -5.8     11.606     13.404
REMARK  Name = 16666733
REMARK  6 active torsions:
REMARK  status: ('A' for Active; 'I' for Inactive)
REMARK    1  A    between atoms: C_2  and  C_13
REMARK    2  A    between atoms: C_3  and  O_7
REMARK    3  A    between atoms: C_4  and  O_9
REMARK    4  A    between atoms: C_5  and  O_11
REMARK    5  A    between atoms: C_13  and  C_14
REMARK    6  A    between atoms: C_14  and  O_16
REMARK                            x       y       z     vdW  Elec       q    Type
REMARK                         _______ _______ _______ _____ _____    ______ ____
ROOT
ATOM      1  O   UNL     1      33.737 -15.594 -23.551  0.00  0.00    -0.351 OA
ATOM      2  C   UNL     1      34.132 -14.971 -22.325  0.00  0.00    +0.147 C 
ATOM      3  C   UNL     1      34.343 -16.027 -21.234  0.00  0.00    +0.167 C 
ATOM      4  C   UNL     1      35.342 -17.093 -21.694  0.00  0.00    +0.169 C 
ATOM      5  C   UNL     1      34.975 -17.627 -23.078  0.00  0.00    +0.169 C 
ATOM      6  C   UNL     1      34.733 -16.482 -24.050  0.00  0.00    +0.174 C 
ENDROOT
BRANCH   3   7
ATOM      7  O   UNL     1      34.839 -15.396 -20.057  0.00  0.00    -0.379 OA
ATOM      8  H   UNL     1      34.094 -15.116 -19.503  0.00  0.00    +0.211 HD
ENDBRANCH   3   7
BRANCH   4   9
ATOM      9  O   UNL     1      35.348 -18.172 -20.757  0.00  0.00    -0.379 OA
ATOM     10  H   UNL     1      36.256 -18.493 -20.640  0.00  0.00    +0.211 HD
ENDBRANCH   4   9
BRANCH   5  11
ATOM     11  O   UNL     1      36.030 -18.438 -23.581  0.00  0.00    -0.379 OA
ATOM     12  H   UNL     1      35.742 -18.872 -24.401  0.00  0.00    +0.211 HD
ENDBRANCH   5  11
BRANCH   2  13
ATOM     13  C   UNL     1      33.041 -13.976 -21.942  0.00  0.00    +0.061 C 
BRANCH  13  14
ATOM     14  C   UNL     1      32.785 -12.948 -23.044  0.00  0.00    +0.113 C 
ATOM     15  C   UNL     1      32.140 -11.689 -22.480  0.00  0.00    +0.032 C 
BRANCH  14  16
ATOM     16  O   UNL     1      34.024 -12.597 -23.653  0.00  0.00    -0.384 OA
ATOM     17  H   UNL     1      34.754 -13.003 -23.158  0.00  0.00    +0.210 HD
ENDBRANCH  14  16
ENDBRANCH  13  14
ENDBRANCH   2  13
TORSDOF 6
ENDMDL
