MODEL 1
REMARK VINA RESULT:      -7.2      0.000      0.000
REMARK  Name = 5289348
REMARK  6 active torsions:
REMARK  status: ('A' for Active; 'I' for Inactive)
REMARK    1  A    between atoms: C_1  and  O_2
REMARK    2  A    between atoms: C_1  and  C_10
REMARK    3  A    between atoms: O_2  and  C_3
REMARK    4  A    between atoms: C_3  and  C_4
REMARK    5  A    between atoms: C_10  and  N_11
REMARK    6  A    between atoms: C_10  and  C_16
REMARK                            x       y       z     vdW  Elec       q    Type
REMARK                         _______ _______ _______ _____ _____    ______ ____
ROOT
ATOM      1  C   UNL     1      35.274 -16.477 -22.960  0.00  0.00    +0.128 C 
ENDROOT
BRANCH   1   2
ATOM      2  O   UNL     1      34.830 -17.813 -22.754  0.00  0.00    -0.351 OA
BRANCH   2   3
ATOM      3  C   UNL     1      35.742 -18.545 -21.948  0.00  0.00    +0.168 C 
BRANCH   3   4
ATOM      4  C   UNL     1      34.976 -19.520 -21.103  0.00  0.00    +0.007 C 
ATOM      5  C   UNL     1      33.591 -19.425 -21.024  0.00  0.00    -0.002 C 
ATOM      6  C   UNL     1      35.659 -20.512 -20.407  0.00  0.00    -0.002 C 
ATOM      7  C   UNL     1      32.880 -20.331 -20.239  0.00  0.00    -0.000 C 
ATOM      8  C   UNL     1      34.947 -21.418 -19.621  0.00  0.00    -0.000 C 
ATOM      9  C   UNL     1      33.557 -21.328 -19.538  0.00  0.00    -0.000 C 
ENDBRANCH   3   4
ENDBRANCH   2   3
ENDBRANCH   1   2
BRANCH   1  10
ATOM     10  C   UNL     1      34.165 -15.514 -22.543  0.00  0.00    +0.024 C 
BRANCH  10  11
ATOM     11  N   UNL     1      34.508 -14.150 -22.929  0.00  0.00    +0.388 N 
ATOM     12  H   UNL     1      35.264 -14.171 -23.613  0.00  0.00    -0.089 HD
ATOM     13  H   UNL     1      34.809 -13.628 -22.106  0.00  0.00    -0.089 HD
ATOM     14  H   UNL     1      33.691 -13.696 -23.339  0.00  0.00    -0.089 HD
ENDBRANCH  10  11
BRANCH  10  16
ATOM     15  O   UNL     1      34.913 -15.496 -20.241  0.00  0.00    -0.298 OA
ATOM     16  C   UNL     1      33.969 -15.497 -21.031  0.00  0.00    +0.133 C 
ATOM     17  C   UNL     1      32.546 -15.443 -20.532  0.00  0.00    +0.070 C 
ENDBRANCH  10  16
ENDBRANCH   1  10
TORSDOF 6
ENDMDL
MODEL 2
REMARK VINA RESULT:      -7.0      1.548      2.902
REMARK  Name = 5289348
REMARK  6 active torsions:
REMARK  status: ('A' for Active; 'I' for Inactive)
REMARK    1  A    between atoms: C_1  and  O_2
REMARK    2  A    between atoms: C_1  and  C_10
REMARK    3  A    between atoms: O_2  and  C_3
REMARK    4  A    between atoms: C_3  and  C_4
REMARK    5  A    between atoms: C_10  and  N_11
REMARK    6  A    between atoms: C_10  and  C_16
REMARK                            x       y       z     vdW  Elec       q    Type
REMARK                         _______ _______ _______ _____ _____    ______ ____
ROOT
ATOM      1  C   UNL     1      34.354 -17.236 -22.206  0.00  0.00    +0.128 C 
ENDROOT
BRANCH   1   2
ATOM      2  O   UNL     1      35.264 -17.556 -21.160  0.00  0.00    -0.351 OA
BRANCH   2   3
ATOM      3  C   UNL     1      35.971 -18.756 -21.434  0.00  0.00    +0.168 C 
BRANCH   3   4
ATOM      4  C   UNL     1      35.360 -19.876 -20.643  0.00  0.00    +0.007 C 
ATOM      5  C   UNL     1      36.181 -20.762 -19.956  0.00  0.00    -0.002 C 
ATOM      6  C   UNL     1      33.977 -20.017 -20.605  0.00  0.00    -0.002 C 
ATOM      7  C   UNL     1      35.613 -21.803 -19.221  0.00  0.00    -0.000 C 
ATOM      8  C   UNL     1      33.409 -21.057 -19.871  0.00  0.00    -0.000 C 
ATOM      9  C   UNL     1      34.227 -21.950 -19.178  0.00  0.00    -0.000 C 
ENDBRANCH   3   4
ENDBRANCH   2   3
ENDBRANCH   1   2
BRANCH   1  10
ATOM     10  C   UNL     1      35.128 -16.620 -23.369  0.00  0.00    +0.024 C 
BRANCH  10  11
ATOM     11  N   UNL     1      34.787 -15.210 -23.514  0.00  0.00    +0.388 N 
ATOM     12  H   UNL     1      35.225 -14.839 -24.357  0.00  0.00    -0.089 HD
ATOM     13  H   UNL     1      35.124 -14.693 -22.702  0.00  0.00    -0.089 HD
ATOM     14  H   UNL     1      33.774 -15.110 -23.585  0.00  0.00    -0.089 HD
ENDBRANCH  10  11
BRANCH  10  16
ATOM     15  O   UNL     1      34.765 -16.671 -25.762  0.00  0.00    -0.298 OA
ATOM     16  C   UNL     1      34.779 -17.286 -24.696  0.00  0.00    +0.133 C 
ATOM     17  C   UNL     1      34.484 -18.765 -24.655  0.00  0.00    +0.070 C 
ENDBRANCH  10  16
ENDBRANCH   1  10
TORSDOF 6
ENDMDL
MODEL 3
REMARK VINA RESULT:      -7.0      2.238      2.876
REMARK  Name = 5289348
REMARK  6 active torsions:
REMARK  status: ('A' for Active; 'I' for Inactive)
REMARK    1  A    between atoms: C_1  and  O_2
REMARK    2  A    between atoms: C_1  and  C_10
REMARK    3  A    between atoms: O_2  and  C_3
REMARK    4  A    between atoms: C_3  and  C_4
REMARK    5  A    between atoms: C_10  and  N_11
REMARK    6  A    between atoms: C_10  and  C_16
REMARK                            x       y       z     vdW  Elec       q    Type
REMARK                         _______ _______ _______ _____ _____    ______ ____
ROOT
ATOM      1  C   UNL     1      35.900 -18.282 -23.005  0.00  0.00    +0.128 C 
ENDROOT
BRANCH   1   2
ATOM      2  O   UNL     1      35.540 -18.231 -21.629  0.00  0.00    -0.351 OA
BRANCH   2   3
ATOM      3  C   UNL     1      34.242 -18.766 -21.411  0.00  0.00    +0.168 C 
BRANCH   3   4
ATOM      4  C   UNL     1      34.355 -19.991 -20.552  0.00  0.00    +0.007 C 
ATOM      5  C   UNL     1      33.205 -20.590 -20.051  0.00  0.00    -0.002 C 
ATOM      6  C   UNL     1      35.610 -20.515 -20.263  0.00  0.00    -0.002 C 
ATOM      7  C   UNL     1      33.310 -21.727 -19.252  0.00  0.00    -0.000 C 
ATOM      8  C   UNL     1      35.716 -21.653 -19.464  0.00  0.00    -0.000 C 
ATOM      9  C   UNL     1      34.565 -22.260 -18.958  0.00  0.00    -0.000 C 
ENDBRANCH   3   4
ENDBRANCH   2   3
ENDBRANCH   1   2
BRANCH   1  10
ATOM     10  C   UNL     1      34.651 -18.065 -23.856  0.00  0.00    +0.024 C 
BRANCH  10  11
ATOM     11  N   UNL     1      34.555 -19.093 -24.885  0.00  0.00    +0.388 N 
ATOM     12  H   UNL     1      33.968 -18.756 -25.648  0.00  0.00    -0.089 HD
ATOM     13  H   UNL     1      34.142 -19.936 -24.487  0.00  0.00    -0.089 HD
ATOM     14  H   UNL     1      35.486 -19.306 -25.242  0.00  0.00    -0.089 HD
ENDBRANCH  10  11
BRANCH  10  16
ATOM     15  O   UNL     1      34.758 -16.643 -25.812  0.00  0.00    -0.298 OA
ATOM     16  C   UNL     1      34.690 -16.726 -24.586  0.00  0.00    +0.133 C 
ATOM     17  C   UNL     1      34.600 -15.486 -23.732  0.00  0.00    +0.070 C 
ENDBRANCH  10  16
ENDBRANCH   1  10
TORSDOF 6
ENDMDL
MODEL 4
REMARK VINA RESULT:      -6.9      5.548      7.566
REMARK  Name = 5289348
REMARK  6 active torsions:
REMARK  status: ('A' for Active; 'I' for Inactive)
REMARK    1  A    between atoms: C_1  and  O_2
REMARK    2  A    between atoms: C_1  and  C_10
REMARK    3  A    between atoms: O_2  and  C_3
REMARK    4  A    between atoms: C_3  and  C_4
REMARK    5  A    between atoms: C_10  and  N_11
REMARK    6  A    between atoms: C_10  and  C_16
REMARK                            x       y       z     vdW  Elec       q    Type
REMARK                         _______ _______ _______ _____ _____    ______ ____
ROOT
ATOM      1  C   UNL     1      31.994 -23.386 -16.545  0.00  0.00    +0.128 C 
ENDROOT
BRANCH   1   2
ATOM      2  O   UNL     1      32.257 -22.569 -17.680  0.00  0.00    -0.351 OA
BRANCH   2   3
ATOM      3  C   UNL     1      33.529 -22.855 -18.243  0.00  0.00    +0.168 C 
BRANCH   3   4
ATOM      4  C   UNL     1      33.902 -21.757 -19.194  0.00  0.00    +0.007 C 
ATOM      5  C   UNL     1      32.908 -20.960 -19.751  0.00  0.00    -0.002 C 
ATOM      6  C   UNL     1      35.239 -21.546 -19.512  0.00  0.00    -0.002 C 
ATOM      7  C   UNL     1      33.255 -19.940 -20.635  0.00  0.00    -0.000 C 
ATOM      8  C   UNL     1      35.587 -20.526 -20.397  0.00  0.00    -0.000 C 
ATOM      9  C   UNL     1      34.594 -19.722 -20.958  0.00  0.00    -0.000 C 
ENDBRANCH   3   4
ENDBRANCH   2   3
ENDBRANCH   1   2
BRANCH   1  10
ATOM     10  C   UNL     1      30.858 -22.764 -15.736  0.00  0.00    +0.024 C 
BRANCH  10  11
ATOM     11  N   UNL     1      30.834 -23.319 -14.387  0.00  0.00    +0.388 N 
ATOM     12  H   UNL     1      31.606 -23.976 -14.277  0.00  0.00    -0.089 HD
ATOM     13  H   UNL     1      29.951 -23.807 -14.236  0.00  0.00    -0.089 HD
ATOM     14  H   UNL     1      30.928 -22.566 -13.707  0.00  0.00    -0.089 HD
ENDBRANCH  10  11
BRANCH  10  16
ATOM     15  O   UNL     1      28.931 -22.290 -17.122  0.00  0.00    -0.298 OA
ATOM     16  C   UNL     1      29.495 -23.065 -16.350  0.00  0.00    +0.133 C 
ATOM     17  C   UNL     1      28.871 -24.393 -15.997  0.00  0.00    +0.070 C 
ENDBRANCH  10  16
ENDBRANCH   1  10
TORSDOF 6
ENDMDL
MODEL 5
REMARK VINA RESULT:      -6.9      1.444      2.223
REMARK  Name = 5289348
REMARK  6 active torsions:
REMARK  status: ('A' for Active; 'I' for Inactive)
REMARK    1  A    between atoms: C_1  and  O_2
REMARK    2  A    between atoms: C_1  and  C_10
REMARK    3  A    between atoms: O_2  and  C_3
REMARK    4  A    between atoms: C_3  and  C_4
REMARK    5  A    between atoms: C_10  and  N_11
REMARK    6  A    between atoms: C_10  and  C_16
REMARK                            x       y       z     vdW  Elec       q    Type
REMARK                         _______ _______ _______ _____ _____    ______ ____
ROOT
ATOM      1  C   UNL     1      34.870 -16.372 -21.106  0.00  0.00    +0.128 C 
ENDROOT
BRANCH   1   2
ATOM      2  O   UNL     1      35.295 -17.703 -20.833  0.00  0.00    -0.351 OA
BRANCH   2   3
ATOM      3  C   UNL     1      34.414 -18.658 -21.405  0.00  0.00    +0.168 C 
BRANCH   3   4
ATOM      4  C   UNL     1      34.465 -19.919 -20.594  0.00  0.00    +0.007 C 
ATOM      5  C   UNL     1      35.692 -20.506 -20.309  0.00  0.00    -0.002 C 
ATOM      6  C   UNL     1      33.283 -20.491 -20.136  0.00  0.00    -0.002 C 
ATOM      7  C   UNL     1      35.739 -21.678 -19.556  0.00  0.00    -0.000 C 
ATOM      8  C   UNL     1      33.330 -21.663 -19.383  0.00  0.00    -0.000 C 
ATOM      9  C   UNL     1      34.559 -22.257 -19.093  0.00  0.00    -0.000 C 
ENDBRANCH   3   4
ENDBRANCH   2   3
ENDBRANCH   1   2
BRANCH   1  10
ATOM     10  C   UNL     1      34.307 -16.309 -22.523  0.00  0.00    +0.024 C 
BRANCH  10  11
ATOM     11  N   UNL     1      35.380 -16.083 -23.485  0.00  0.00    +0.388 N 
ATOM     12  H   UNL     1      34.985 -16.009 -24.422  0.00  0.00    -0.089 HD
ATOM     13  H   UNL     1      36.035 -16.864 -23.453  0.00  0.00    -0.089 HD
ATOM     14  H   UNL     1      35.868 -15.218 -23.252  0.00  0.00    -0.089 HD
ENDBRANCH  10  11
BRANCH  10  16
ATOM     15  O   UNL     1      32.369 -14.982 -21.937  0.00  0.00    -0.298 OA
ATOM     16  C   UNL     1      33.326 -15.153 -22.692  0.00  0.00    +0.133 C 
ATOM     17  C   UNL     1      33.603 -14.189 -23.818  0.00  0.00    +0.070 C 
ENDBRANCH  10  16
ENDBRANCH   1  10
TORSDOF 6
ENDMDL
MODEL 6
REMARK VINA RESULT:      -6.9      1.420      1.816
REMARK  Name = 5289348
REMARK  6 active torsions:
REMARK  status: ('A' for Active; 'I' for Inactive)
REMARK    1  A    between atoms: C_1  and  O_2
REMARK    2  A    between atoms: C_1  and  C_10
REMARK    3  A    between atoms: O_2  and  C_3
REMARK    4  A    between atoms: C_3  and  C_4
REMARK    5  A    between atoms: C_10  and  N_11
REMARK    6  A    between atoms: C_10  and  C_16
REMARK                            x       y       z     vdW  Elec       q    Type
REMARK                         _______ _______ _______ _____ _____    ______ ____
ROOT
ATOM      1  C   UNL     1      34.897 -16.572 -21.188  0.00  0.00    +0.128 C 
ENDROOT
BRANCH   1   2
ATOM      2  O   UNL     1      35.406 -17.901 -21.172  0.00  0.00    -0.351 OA
BRANCH   2   3
ATOM      3  C   UNL     1      34.423 -18.839 -21.585  0.00  0.00    +0.168 C 
BRANCH   3   4
ATOM      4  C   UNL     1      34.453 -20.020 -20.660  0.00  0.00    +0.007 C 
ATOM      5  C   UNL     1      33.262 -20.537 -20.163  0.00  0.00    -0.002 C 
ATOM      6  C   UNL     1      35.673 -20.587 -20.307  0.00  0.00    -0.002 C 
ATOM      7  C   UNL     1      33.291 -21.633 -19.302  0.00  0.00    -0.000 C 
ATOM      8  C   UNL     1      35.702 -21.684 -19.447  0.00  0.00    -0.000 C 
ATOM      9  C   UNL     1      34.510 -22.208 -18.945  0.00  0.00    -0.000 C 
ENDBRANCH   3   4
ENDBRANCH   2   3
ENDBRANCH   1   2
BRANCH   1  10
ATOM     10  C   UNL     1      34.272 -16.294 -22.553  0.00  0.00    +0.024 C 
BRANCH  10  11
ATOM     11  N   UNL     1      35.313 -16.057 -23.548  0.00  0.00    +0.388 N 
ATOM     12  H   UNL     1      34.888 -15.710 -24.407  0.00  0.00    -0.089 HD
ATOM     13  H   UNL     1      35.804 -16.930 -23.741  0.00  0.00    -0.089 HD
ATOM     14  H   UNL     1      35.973 -15.367 -23.192  0.00  0.00    -0.089 HD
ENDBRANCH  10  11
BRANCH  10  16
ATOM     15  O   UNL     1      32.333 -14.987 -21.928  0.00  0.00    -0.298 OA
ATOM     16  C   UNL     1      33.403 -15.041 -22.533  0.00  0.00    +0.133 C 
ATOM     17  C   UNL     1      33.936 -13.835 -23.266  0.00  0.00    +0.070 C 
ENDBRANCH  10  16
ENDBRANCH   1  10
TORSDOF 6
ENDMDL
MODEL 7
REMARK VINA RESULT:      -6.5      2.407      5.623
REMARK  Name = 5289348
REMARK  6 active torsions:
REMARK  status: ('A' for Active; 'I' for Inactive)
REMARK    1  A    between atoms: C_1  and  O_2
REMARK    2  A    between atoms: C_1  and  C_10
REMARK    3  A    between atoms: O_2  and  C_3
REMARK    4  A    between atoms: C_3  and  C_4
REMARK    5  A    between atoms: C_10  and  N_11
REMARK    6  A    between atoms: C_10  and  C_16
REMARK                            x       y       z     vdW  Elec       q    Type
REMARK                         _______ _______ _______ _____ _____    ______ ____
ROOT
ATOM      1  C   UNL     1      34.983 -19.176 -22.936  0.00  0.00    +0.128 C 
ENDROOT
BRANCH   1   2
ATOM      2  O   UNL     1      35.487 -18.029 -23.612  0.00  0.00    -0.351 OA
BRANCH   2   3
ATOM      3  C   UNL     1      34.673 -17.679 -24.721  0.00  0.00    +0.168 C 
BRANCH   3   4
ATOM      4  C   UNL     1      34.245 -16.247 -24.582  0.00  0.00    +0.007 C 
ATOM      5  C   UNL     1      34.580 -15.535 -23.436  0.00  0.00    -0.002 C 
ATOM      6  C   UNL     1      33.516 -15.645 -25.602  0.00  0.00    -0.002 C 
ATOM      7  C   UNL     1      34.182 -14.206 -23.307  0.00  0.00    -0.000 C 
ATOM      8  C   UNL     1      33.118 -14.315 -25.473  0.00  0.00    -0.000 C 
ATOM      9  C   UNL     1      33.451 -13.595 -24.326  0.00  0.00    -0.000 C 
ENDBRANCH   3   4
ENDBRANCH   2   3
ENDBRANCH   1   2
BRANCH   1  10
ATOM     10  C   UNL     1      34.595 -18.785 -21.512  0.00  0.00    +0.024 C 
BRANCH  10  11
ATOM     11  N   UNL     1      35.685 -18.057 -20.872  0.00  0.00    +0.388 N 
ATOM     12  H   UNL     1      36.184 -17.509 -21.573  0.00  0.00    -0.089 HD
ATOM     13  H   UNL     1      36.328 -18.719 -20.439  0.00  0.00    -0.089 HD
ATOM     14  H   UNL     1      35.306 -17.434 -20.160  0.00  0.00    -0.089 HD
ENDBRANCH  10  11
BRANCH  10  16
ATOM     15  O   UNL     1      35.229 -20.697 -20.171  0.00  0.00    -0.298 OA
ATOM     16  C   UNL     1      34.325 -20.009 -20.643  0.00  0.00    +0.133 C 
ATOM     17  C   UNL     1      32.880 -20.325 -20.349  0.00  0.00    +0.070 C 
ENDBRANCH  10  16
ENDBRANCH   1  10
TORSDOF 6
ENDMDL
MODEL 8
REMARK VINA RESULT:      -6.5      3.466      5.857
REMARK  Name = 5289348
REMARK  6 active torsions:
REMARK  status: ('A' for Active; 'I' for Inactive)
REMARK    1  A    between atoms: C_1  and  O_2
REMARK    2  A    between atoms: C_1  and  C_10
REMARK    3  A    between atoms: O_2  and  C_3
REMARK    4  A    between atoms: C_3  and  C_4
REMARK    5  A    between atoms: C_10  and  N_11
REMARK    6  A    between atoms: C_10  and  C_16
REMARK                            x       y       z     vdW  Elec       q    Type
REMARK                         _______ _______ _______ _____ _____    ______ ____
ROOT
ATOM      1  C   UNL     1      34.327 -20.334 -20.143  0.00  0.00    +0.128 C 
ENDROOT
BRANCH   1   2
ATOM      2  O   UNL     1      35.216 -20.192 -21.246  0.00  0.00    -0.351 OA
BRANCH   2   3
ATOM      3  C   UNL     1      35.720 -18.868 -21.340  0.00  0.00    +0.168 C 
BRANCH   3   4
ATOM      4  C   UNL     1      35.275 -18.266 -22.641  0.00  0.00    +0.007 C 
ATOM      5  C   UNL     1      34.876 -19.095 -23.684  0.00  0.00    -0.002 C 
ATOM      6  C   UNL     1      35.267 -16.884 -22.793  0.00  0.00    -0.002 C 
ATOM      7  C   UNL     1      34.464 -18.535 -24.892  0.00  0.00    -0.000 C 
ATOM      8  C   UNL     1      34.855 -16.324 -24.001  0.00  0.00    -0.000 C 
ATOM      9  C   UNL     1      34.452 -17.150 -25.051  0.00  0.00    -0.000 C 
ENDBRANCH   3   4
ENDBRANCH   2   3
ENDBRANCH   1   2
BRANCH   1  10
ATOM     10  C   UNL     1      34.283 -21.802 -19.724  0.00  0.00    +0.024 C 
BRANCH  10  11
ATOM     11  N   UNL     1      32.934 -22.169 -19.308  0.00  0.00    +0.388 N 
ATOM     12  H   UNL     1      32.930 -23.137 -18.988  0.00  0.00    -0.089 HD
ATOM     13  H   UNL     1      32.296 -22.070 -20.097  0.00  0.00    -0.089 HD
ATOM     14  H   UNL     1      32.635 -21.558 -18.548  0.00  0.00    -0.089 HD
ENDBRANCH  10  11
BRANCH  10  16
ATOM     15  O   UNL     1      34.845 -22.777 -17.581  0.00  0.00    -0.298 OA
ATOM     16  C   UNL     1      35.193 -22.076 -18.531  0.00  0.00    +0.133 C 
ATOM     17  C   UNL     1      36.575 -21.474 -18.581  0.00  0.00    +0.070 C 
ENDBRANCH  10  16
ENDBRANCH   1  10
TORSDOF 6
ENDMDL
MODEL 9
REMARK VINA RESULT:      -6.5      3.416      5.852
REMARK  Name = 5289348
REMARK  6 active torsions:
REMARK  status: ('A' for Active; 'I' for Inactive)
REMARK    1  A    between atoms: C_1  and  O_2
REMARK    2  A    between atoms: C_1  and  C_10
REMARK    3  A    between atoms: O_2  and  C_3
REMARK    4  A    between atoms: C_3  and  C_4
REMARK    5  A    between atoms: C_10  and  N_11
REMARK    6  A    between atoms: C_10  and  C_16
REMARK                            x       y       z     vdW  Elec       q    Type
REMARK                         _______ _______ _______ _____ _____    ______ ____
ROOT
ATOM      1  C   UNL     1      34.351 -20.254 -20.193  0.00  0.00    +0.128 C 
ENDROOT
BRANCH   1   2
ATOM      2  O   UNL     1      35.022 -20.140 -21.443  0.00  0.00    -0.351 OA
BRANCH   2   3
ATOM      3  C   UNL     1      35.726 -18.911 -21.546  0.00  0.00    +0.168 C 
BRANCH   3   4
ATOM      4  C   UNL     1      35.278 -18.192 -22.785  0.00  0.00    +0.007 C 
ATOM      5  C   UNL     1      35.241 -16.803 -22.800  0.00  0.00    -0.002 C 
ATOM      6  C   UNL     1      34.903 -18.924 -23.907  0.00  0.00    -0.002 C 
ATOM      7  C   UNL     1      34.825 -16.136 -23.952  0.00  0.00    -0.000 C 
ATOM      8  C   UNL     1      34.486 -18.257 -25.058  0.00  0.00    -0.000 C 
ATOM      9  C   UNL     1      34.447 -16.862 -25.080  0.00  0.00    -0.000 C 
ENDBRANCH   3   4
ENDBRANCH   2   3
ENDBRANCH   1   2
BRANCH   1  10
ATOM     10  C   UNL     1      34.253 -21.730 -19.813  0.00  0.00    +0.024 C 
BRANCH  10  11
ATOM     11  N   UNL     1      32.893 -22.055 -19.397  0.00  0.00    +0.388 N 
ATOM     12  H   UNL     1      32.609 -21.428 -18.645  0.00  0.00    -0.089 HD
ATOM     13  H   UNL     1      32.861 -23.019 -19.065  0.00  0.00    -0.089 HD
ATOM     14  H   UNL     1      32.260 -21.947 -20.189  0.00  0.00    -0.089 HD
ENDBRANCH  10  11
BRANCH  10  16
ATOM     15  O   UNL     1      34.797 -22.805 -17.713  0.00  0.00    -0.298 OA
ATOM     16  C   UNL     1      35.158 -22.071 -18.634  0.00  0.00    +0.133 C 
ATOM     17  C   UNL     1      36.551 -21.494 -18.660  0.00  0.00    +0.070 C 
ENDBRANCH  10  16
ENDBRANCH   1  10
TORSDOF 6
ENDMDL
