MODEL 1
REMARK VINA RESULT:      -5.9      0.000      0.000
REMARK  Name = 26133
REMARK  8 active torsions:
REMARK  status: ('A' for Active; 'I' for Inactive)
REMARK    1  A    between atoms: C_6  and  C_24
REMARK    2  A    between atoms: C_6  and  O_28
REMARK    3  A    between atoms: C_9  and  O_21
REMARK    4  A    between atoms: C_24  and  C_25
REMARK    5  A    between atoms: C_25  and  O_26
REMARK    6  A    between atoms: O_28  and  C_30
REMARK    7  A    between atoms: C_30  and  C_31
REMARK    8  A    between atoms: C_31  and  C_32
REMARK                            x       y       z     vdW  Elec       q    Type
REMARK                         _______ _______ _______ _____ _____    ______ ____
ROOT
ATOM      1  O   UNL     1      40.693 -26.385 -14.752  0.00  0.00    -0.291 OA
ATOM      2  C   UNL     1      32.764 -23.523 -14.191  0.00  0.00    +0.043 C 
ATOM      3  C   UNL     1      33.699 -23.490 -15.420  0.00  0.00    +0.004 C 
ATOM      4  C   UNL     1      35.170 -23.228 -15.067  0.00  0.00    +0.003 C 
ATOM      5  C   UNL     1      35.670 -24.364 -14.115  0.00  0.00    +0.030 C 
ATOM      6  C   UNL     1      31.403 -23.732 -14.910  0.00  0.00    +0.188 C 
ATOM      7  C   UNL     1      33.233 -24.680 -13.284  0.00  0.00    +0.033 C 
ATOM      8  C   UNL     1      37.211 -24.249 -13.774  0.00  0.00    +0.018 C 
ATOM      9  C   UNL     1      34.724 -24.574 -12.891  0.00  0.00    +0.111 C 
ATOM     10  C   UNL     1      32.989 -22.536 -16.378  0.00  0.00    +0.004 C 
ATOM     11  C   UNL     1      31.490 -22.824 -16.158  0.00  0.00    +0.047 C 
ATOM     12  C   UNL     1      36.026 -23.185 -16.342  0.00  0.00    +0.004 C 
ATOM     13  C   UNL     1      32.736 -22.184 -13.404  0.00  0.00    +0.004 C 
ATOM     14  C   UNL     1      38.004 -24.073 -15.077  0.00  0.00    -0.042 C 
ATOM     15  C   UNL     1      37.504 -23.012 -16.026  0.00  0.00    +0.022 C 
ATOM     16  C   UNL     1      37.647 -25.562 -13.060  0.00  0.00    +0.012 C 
ATOM     17  C   UNL     1      37.556 -23.046 -12.866  0.00  0.00    +0.004 C 
ATOM     18  C   UNL     1      39.153 -25.765 -13.027  0.00  0.00    +0.069 C 
ATOM     19  C   UNL     1      39.109 -24.771 -15.387  0.00  0.00    +0.029 C 
ATOM     20  C   UNL     1      39.714 -25.719 -14.424  0.00  0.00    +0.173 C 
ENDROOT
BRANCH   9  21
ATOM     21  O   UNL     1      34.885 -23.544 -11.928  0.00  0.00    -0.384 OA
ATOM     22  H   UNL     1      34.025 -23.134 -11.745  0.00  0.00    +0.210 HD
ENDBRANCH   9  21
BRANCH   6  24
ATOM     23  O   UNL     1      29.405 -22.567 -14.336  0.00  0.00    -0.290 OA
ATOM     24  C   UNL     1      30.210 -23.449 -14.044  0.00  0.00    +0.216 C 
BRANCH  24  25
ATOM     25  C   UNL     1      30.064 -24.306 -12.806  0.00  0.00    +0.206 C 
BRANCH  25  26
ATOM     26  O   UNL     1      30.073 -23.506 -11.643  0.00  0.00    -0.375 OA
ATOM     27  H   UNL     1      30.924 -23.045 -11.574  0.00  0.00    +0.211 HD
ENDBRANCH  25  26
ENDBRANCH  24  25
ENDBRANCH   6  24
BRANCH   6  28
ATOM     28  O   UNL     1      31.240 -25.086 -15.325  0.00  0.00    -0.449 OA
BRANCH  28  30
ATOM     29  O   UNL     1      29.271 -26.259 -15.064  0.00  0.00    -0.250 OA
ATOM     30  C   UNL     1      29.968 -25.455 -15.668  0.00  0.00    +0.317 C 
BRANCH  30  31
ATOM     31  C   UNL     1      29.554 -24.708 -16.915  0.00  0.00    +0.110 C 
BRANCH  31  32
ATOM     32  C   UNL     1      28.073 -24.339 -16.896  0.00  0.00    +0.012 C 
ATOM     33  C   UNL     1      27.857 -22.880 -17.265  0.00  0.00    +0.001 C 
ENDBRANCH  31  32
ENDBRANCH  30  31
ENDBRANCH  28  30
ENDBRANCH   6  28
TORSDOF 8
ENDMDL
MODEL 2
REMARK VINA RESULT:      -5.5     16.512     18.678
REMARK  Name = 26133
REMARK  8 active torsions:
REMARK  status: ('A' for Active; 'I' for Inactive)
REMARK    1  A    between atoms: C_6  and  C_24
REMARK    2  A    between atoms: C_6  and  O_28
REMARK    3  A    between atoms: C_9  and  O_21
REMARK    4  A    between atoms: C_24  and  C_25
REMARK    5  A    between atoms: C_25  and  O_26
REMARK    6  A    between atoms: O_28  and  C_30
REMARK    7  A    between atoms: C_30  and  C_31
REMARK    8  A    between atoms: C_31  and  C_32
REMARK                            x       y       z     vdW  Elec       q    Type
REMARK                         _______ _______ _______ _____ _____    ______ ____
ROOT
ATOM      1  O   UNL     1      33.433 -14.583 -27.749  0.00  0.00    -0.291 OA
ATOM      2  C   UNL     1      32.388  -7.970 -22.597  0.00  0.00    +0.043 C 
ATOM      3  C   UNL     1      33.273  -8.057 -23.860  0.00  0.00    +0.004 C 
ATOM      4  C   UNL     1      33.944  -9.425 -24.047  0.00  0.00    +0.003 C 
ATOM      5  C   UNL     1      32.832 -10.520 -24.164  0.00  0.00    +0.030 C 
ATOM      6  C   UNL     1      31.948  -6.483 -22.694  0.00  0.00    +0.188 C 
ATOM      7  C   UNL     1      31.265  -9.017 -22.746  0.00  0.00    +0.033 C 
ATOM      8  C   UNL     1      33.416 -11.960 -24.469  0.00  0.00    +0.018 C 
ATOM      9  C   UNL     1      31.799 -10.446 -22.998  0.00  0.00    +0.111 C 
ATOM     10  C   UNL     1      34.151  -6.812 -23.762  0.00  0.00    +0.004 C 
ATOM     11  C   UNL     1      33.223  -5.739 -23.155  0.00  0.00    +0.047 C 
ATOM     12  C   UNL     1      34.824  -9.421 -25.307  0.00  0.00    +0.004 C 
ATOM     13  C   UNL     1      33.177  -8.194 -21.278  0.00  0.00    +0.004 C 
ATOM     14  C   UNL     1      34.391 -11.869 -25.652  0.00  0.00    -0.042 C 
ATOM     15  C   UNL     1      35.438 -10.786 -25.573  0.00  0.00    +0.022 C 
ATOM     16  C   UNL     1      32.225 -12.895 -24.832  0.00  0.00    +0.012 C 
ATOM     17  C   UNL     1      34.195 -12.575 -23.284  0.00  0.00    +0.004 C 
ATOM     18  C   UNL     1      32.651 -14.180 -25.523  0.00  0.00    +0.069 C 
ATOM     19  C   UNL     1      34.379 -12.704 -26.704  0.00  0.00    +0.029 C 
ATOM     20  C   UNL     1      33.462 -13.866 -26.752  0.00  0.00    +0.173 C 
ENDROOT
BRANCH   9  21
ATOM     21  O   UNL     1      32.340 -10.965 -21.792  0.00  0.00    -0.384 OA
ATOM     22  H   UNL     1      33.220 -11.336 -21.965  0.00  0.00    +0.210 HD
ENDBRANCH   9  21
BRANCH   6  24
ATOM     23  O   UNL     1      31.994  -5.967 -20.368  0.00  0.00    -0.290 OA
ATOM     24  C   UNL     1      31.363  -5.940 -21.424  0.00  0.00    +0.216 C 
BRANCH  24  25
ATOM     25  C   UNL     1      29.966  -5.365 -21.521  0.00  0.00    +0.206 C 
BRANCH  25  26
ATOM     26  O   UNL     1      30.014  -3.963 -21.678  0.00  0.00    -0.375 OA
ATOM     27  H   UNL     1      30.084  -3.746 -22.621  0.00  0.00    +0.211 HD
ENDBRANCH  25  26
ENDBRANCH  24  25
ENDBRANCH   6  24
BRANCH   6  28
ATOM     28  O   UNL     1      30.925  -6.310 -23.671  0.00  0.00    -0.449 OA
BRANCH  28  30
ATOM     29  O   UNL     1      30.610  -4.116 -24.312  0.00  0.00    -0.250 OA
ATOM     30  C   UNL     1      31.072  -5.232 -24.503  0.00  0.00    +0.317 C 
BRANCH  30  31
ATOM     31  C   UNL     1      31.901  -5.640 -25.699  0.00  0.00    +0.110 C 
BRANCH  31  32
ATOM     32  C   UNL     1      32.569  -4.441 -26.367  0.00  0.00    +0.012 C 
ATOM     33  C   UNL     1      33.917  -4.814 -26.963  0.00  0.00    +0.001 C 
ENDBRANCH  31  32
ENDBRANCH  30  31
ENDBRANCH  28  30
ENDBRANCH   6  28
TORSDOF 8
ENDMDL
MODEL 3
REMARK VINA RESULT:      -5.5      7.516      9.516
REMARK  Name = 26133
REMARK  8 active torsions:
REMARK  status: ('A' for Active; 'I' for Inactive)
REMARK    1  A    between atoms: C_6  and  C_24
REMARK    2  A    between atoms: C_6  and  O_28
REMARK    3  A    between atoms: C_9  and  O_21
REMARK    4  A    between atoms: C_24  and  C_25
REMARK    5  A    between atoms: C_25  and  O_26
REMARK    6  A    between atoms: O_28  and  C_30
REMARK    7  A    between atoms: C_30  and  C_31
REMARK    8  A    between atoms: C_31  and  C_32
REMARK                            x       y       z     vdW  Elec       q    Type
REMARK                         _______ _______ _______ _____ _____    ______ ____
ROOT
ATOM      1  O   UNL     1      36.142 -23.145 -14.849  0.00  0.00    -0.291 OA
ATOM      2  C   UNL     1      34.921 -18.412 -21.740  0.00  0.00    +0.043 C 
ATOM      3  C   UNL     1      33.858 -19.146 -20.894  0.00  0.00    +0.004 C 
ATOM      4  C   UNL     1      34.331 -20.504 -20.355  0.00  0.00    +0.003 C 
ATOM      5  C   UNL     1      35.589 -20.278 -19.453  0.00  0.00    +0.030 C 
ATOM      6  C   UNL     1      34.098 -17.162 -22.157  0.00  0.00    +0.188 C 
ATOM      7  C   UNL     1      36.136 -18.147 -20.828  0.00  0.00    +0.033 C 
ATOM      8  C   UNL     1      36.095 -21.607 -18.758  0.00  0.00    +0.018 C 
ATOM      9  C   UNL     1      36.688 -19.431 -20.167  0.00  0.00    +0.111 C 
ATOM     10  C   UNL     1      32.610 -19.096 -21.773  0.00  0.00    +0.004 C 
ATOM     11  C   UNL     1      32.690 -17.720 -22.467  0.00  0.00    +0.047 C 
ATOM     12  C   UNL     1      33.210 -21.179 -19.549  0.00  0.00    +0.004 C 
ATOM     13  C   UNL     1      35.347 -19.200 -23.009  0.00  0.00    +0.004 C 
ATOM     14  C   UNL     1      34.907 -22.307 -18.083  0.00  0.00    -0.042 C 
ATOM     15  C   UNL     1      33.670 -22.488 -18.928  0.00  0.00    +0.022 C 
ATOM     16  C   UNL     1      37.158 -21.216 -17.689  0.00  0.00    +0.012 C 
ATOM     17  C   UNL     1      36.721 -22.621 -19.742  0.00  0.00    +0.004 C 
ATOM     18  C   UNL     1      37.441 -22.319 -16.682  0.00  0.00    +0.069 C 
ATOM     19  C   UNL     1      34.927 -22.783 -16.827  0.00  0.00    +0.029 C 
ATOM     20  C   UNL     1      36.164 -22.753 -16.014  0.00  0.00    +0.173 C 
ENDROOT
BRANCH   9  21
ATOM     21  O   UNL     1      37.384 -20.198 -21.138  0.00  0.00    -0.384 OA
ATOM     22  H   UNL     1      37.396 -19.719 -21.982  0.00  0.00    +0.210 HD
ENDBRANCH   9  21
BRANCH   6  24
ATOM     23  O   UNL     1      35.683 -15.669 -23.126  0.00  0.00    -0.290 OA
ATOM     24  C   UNL     1      34.701 -16.391 -23.294  0.00  0.00    +0.216 C 
BRANCH  24  25
ATOM     25  C   UNL     1      34.034 -16.554 -24.643  0.00  0.00    +0.206 C 
BRANCH  25  26
ATOM     26  O   UNL     1      35.001 -16.661 -25.667  0.00  0.00    -0.375 OA
ATOM     27  H   UNL     1      35.626 -17.370 -25.448  0.00  0.00    +0.211 HD
ENDBRANCH  25  26
ENDBRANCH  24  25
ENDBRANCH   6  24
BRANCH   6  28
ATOM     28  O   UNL     1      34.007 -16.224 -21.088  0.00  0.00    -0.449 OA
BRANCH  28  30
ATOM     29  O   UNL     1      31.740 -16.003 -20.718  0.00  0.00    -0.250 OA
ATOM     30  C   UNL     1      32.831 -15.528 -21.005  0.00  0.00    +0.317 C 
BRANCH  30  31
ATOM     31  C   UNL     1      33.091 -14.075 -21.326  0.00  0.00    +0.110 C 
BRANCH  31  32
ATOM     32  C   UNL     1      32.377 -13.633 -22.601  0.00  0.00    +0.012 C 
ATOM     33  C   UNL     1      33.336 -12.964 -23.573  0.00  0.00    +0.001 C 
ENDBRANCH  31  32
ENDBRANCH  30  31
ENDBRANCH  28  30
ENDBRANCH   6  28
TORSDOF 8
ENDMDL
MODEL 4
REMARK VINA RESULT:      -5.5      5.963      8.216
REMARK  Name = 26133
REMARK  8 active torsions:
REMARK  status: ('A' for Active; 'I' for Inactive)
REMARK    1  A    between atoms: C_6  and  C_24
REMARK    2  A    between atoms: C_6  and  O_28
REMARK    3  A    between atoms: C_9  and  O_21
REMARK    4  A    between atoms: C_24  and  C_25
REMARK    5  A    between atoms: C_25  and  O_26
REMARK    6  A    between atoms: O_28  and  C_30
REMARK    7  A    between atoms: C_30  and  C_31
REMARK    8  A    between atoms: C_31  and  C_32
REMARK                            x       y       z     vdW  Elec       q    Type
REMARK                         _______ _______ _______ _____ _____    ______ ____
ROOT
ATOM      1  O   UNL     1      33.957 -23.496 -12.342  0.00  0.00    -0.291 OA
ATOM      2  C   UNL     1      35.329 -20.615 -20.164  0.00  0.00    +0.043 C 
ATOM      3  C   UNL     1      33.972 -20.896 -19.483  0.00  0.00    +0.004 C 
ATOM      4  C   UNL     1      33.990 -22.125 -18.562  0.00  0.00    +0.003 C 
ATOM      5  C   UNL     1      35.053 -21.897 -17.438  0.00  0.00    +0.030 C 
ATOM      6  C   UNL     1      34.928 -19.393 -21.036  0.00  0.00    +0.188 C 
ATOM      7  C   UNL     1      36.359 -20.340 -19.049  0.00  0.00    +0.033 C 
ATOM      8  C   UNL     1      35.077 -23.063 -16.367  0.00  0.00    +0.018 C 
ATOM      9  C   UNL     1      36.444 -21.481 -18.010  0.00  0.00    +0.111 C 
ATOM     10  C   UNL     1      32.979 -20.857 -20.642  0.00  0.00    +0.004 C 
ATOM     11  C   UNL     1      33.522 -19.751 -21.570  0.00  0.00    +0.047 C 
ATOM     12  C   UNL     1      32.600 -22.351 -17.945  0.00  0.00    +0.004 C 
ATOM     13  C   UNL     1      35.807 -21.774 -21.082  0.00  0.00    +0.004 C 
ATOM     14  C   UNL     1      33.644 -23.335 -15.886  0.00  0.00    -0.042 C 
ATOM     15  C   UNL     1      32.600 -23.509 -16.960  0.00  0.00    +0.022 C 
ATOM     16  C   UNL     1      35.960 -22.602 -15.171  0.00  0.00    +0.012 C 
ATOM     17  C   UNL     1      35.633 -24.397 -16.916  0.00  0.00    +0.004 C 
ATOM     18  C   UNL     1      35.762 -23.431 -13.913  0.00  0.00    +0.069 C 
ATOM     19  C   UNL     1      33.293 -23.458 -14.595  0.00  0.00    +0.029 C 
ATOM     20  C   UNL     1      34.309 -23.436 -13.517  0.00  0.00    +0.173 C 
ENDROOT
BRANCH   9  21
ATOM     21  O   UNL     1      37.122 -22.589 -18.581  0.00  0.00    -0.384 OA
ATOM     22  H   UNL     1      37.947 -22.286 -18.994  0.00  0.00    +0.210 HD
ENDBRANCH   9  21
BRANCH   6  24
ATOM     23  O   UNL     1      37.090 -18.812 -21.855  0.00  0.00    -0.290 OA
ATOM     24  C   UNL     1      35.917 -19.071 -22.119  0.00  0.00    +0.216 C 
BRANCH  24  25
ATOM     25  C   UNL     1      35.386 -19.084 -23.536  0.00  0.00    +0.206 C 
BRANCH  25  26
ATOM     26  O   UNL     1      35.448 -17.792 -24.102  0.00  0.00    -0.375 OA
ATOM     27  H   UNL     1      35.469 -17.864 -25.070  0.00  0.00    +0.211 HD
ENDBRANCH  25  26
ENDBRANCH  24  25
ENDBRANCH   6  24
BRANCH   6  28
ATOM     28  O   UNL     1      34.845 -18.205 -20.253  0.00  0.00    -0.449 OA
BRANCH  28  30
ATOM     29  O   UNL     1      32.888 -17.250 -21.015  0.00  0.00    -0.250 OA
ATOM     30  C   UNL     1      34.088 -17.195 -20.783  0.00  0.00    +0.317 C 
BRANCH  30  31
ATOM     31  C   UNL     1      34.970 -15.994 -21.036  0.00  0.00    +0.110 C 
BRANCH  31  32
ATOM     32  C   UNL     1      34.163 -14.774 -21.471  0.00  0.00    +0.012 C 
ATOM     33  C   UNL     1      34.265 -14.543 -22.970  0.00  0.00    +0.001 C 
ENDBRANCH  31  32
ENDBRANCH  30  31
ENDBRANCH  28  30
ENDBRANCH   6  28
TORSDOF 8
ENDMDL
MODEL 5
REMARK VINA RESULT:      -5.4      3.284      7.352
REMARK  Name = 26133
REMARK  8 active torsions:
REMARK  status: ('A' for Active; 'I' for Inactive)
REMARK    1  A    between atoms: C_6  and  C_24
REMARK    2  A    between atoms: C_6  and  O_28
REMARK    3  A    between atoms: C_9  and  O_21
REMARK    4  A    between atoms: C_24  and  C_25
REMARK    5  A    between atoms: C_25  and  O_26
REMARK    6  A    between atoms: O_28  and  C_30
REMARK    7  A    between atoms: C_30  and  C_31
REMARK    8  A    between atoms: C_31  and  C_32
REMARK                            x       y       z     vdW  Elec       q    Type
REMARK                         _______ _______ _______ _____ _____    ______ ____
ROOT
ATOM      1  O   UNL     1      33.593 -18.316 -21.268  0.00  0.00    -0.291 OA
ATOM      2  C   UNL     1      35.836 -23.972 -15.406  0.00  0.00    +0.043 C 
ATOM      3  C   UNL     1      36.743 -22.964 -16.147  0.00  0.00    +0.004 C 
ATOM      4  C   UNL     1      36.349 -22.747 -17.615  0.00  0.00    +0.003 C 
ATOM      5  C   UNL     1      34.883 -22.203 -17.669  0.00  0.00    +0.030 C 
ATOM      6  C   UNL     1      36.549 -23.990 -14.026  0.00  0.00    +0.188 C 
ATOM      7  C   UNL     1      34.404 -23.401 -15.420  0.00  0.00    +0.033 C 
ATOM      8  C   UNL     1      34.414 -21.842 -19.137  0.00  0.00    +0.018 C 
ATOM      9  C   UNL     1      33.893 -23.080 -16.843  0.00  0.00    +0.111 C 
ATOM     10  C   UNL     1      38.152 -23.455 -15.827  0.00  0.00    +0.004 C 
ATOM     11  C   UNL     1      38.055 -23.969 -14.375  0.00  0.00    +0.047 C 
ATOM     12  C   UNL     1      37.312 -21.755 -18.286  0.00  0.00    +0.004 C 
ATOM     13  C   UNL     1      35.867 -25.396 -16.026  0.00  0.00    +0.004 C 
ATOM     14  C   UNL     1      35.478 -20.959 -19.804  0.00  0.00    -0.042 C 
ATOM     15  C   UNL     1      36.903 -21.449 -19.718  0.00  0.00    +0.022 C 
ATOM     16  C   UNL     1      33.068 -21.066 -19.035  0.00  0.00    +0.012 C 
ATOM     17  C   UNL     1      34.214 -23.077 -20.045  0.00  0.00    +0.004 C 
ATOM     18  C   UNL     1      32.699 -20.318 -20.307  0.00  0.00    +0.069 C 
ATOM     19  C   UNL     1      35.207 -19.825 -20.472  0.00  0.00    +0.029 C 
ATOM     20  C   UNL     1      33.812 -19.384 -20.702  0.00  0.00    +0.173 C 
ENDROOT
BRANCH   9  21
ATOM     21  O   UNL     1      33.586 -24.292 -17.517  0.00  0.00    -0.384 OA
ATOM     22  H   UNL     1      32.647 -24.503 -17.392  0.00  0.00    +0.210 HD
ENDBRANCH   9  21
BRANCH   6  24
ATOM     23  O   UNL     1      34.997 -25.269 -12.747  0.00  0.00    -0.290 OA
ATOM     24  C   UNL     1      36.151 -25.145 -13.154  0.00  0.00    +0.216 C 
BRANCH  24  25
ATOM     25  C   UNL     1      37.245 -26.133 -12.811  0.00  0.00    +0.206 C 
BRANCH  25  26
ATOM     26  O   UNL     1      37.097 -27.320 -13.562  0.00  0.00    -0.375 OA
ATOM     27  H   UNL     1      36.154 -27.506 -13.689  0.00  0.00    +0.211 HD
ENDBRANCH  25  26
ENDBRANCH  24  25
ENDBRANCH   6  24
BRANCH   6  28
ATOM     28  O   UNL     1      36.227 -22.829 -13.264  0.00  0.00    -0.449 OA
BRANCH  28  30
ATOM     29  O   UNL     1      38.190 -22.345 -12.152  0.00  0.00    -0.250 OA
ATOM     30  C   UNL     1      36.997 -22.615 -12.152  0.00  0.00    +0.317 C 
BRANCH  30  31
ATOM     31  C   UNL     1      36.137 -22.765 -10.918  0.00  0.00    +0.110 C 
BRANCH  31  32
ATOM     32  C   UNL     1      36.590 -23.931 -10.044  0.00  0.00    +0.012 C 
ATOM     33  C   UNL     1      35.410 -24.769  -9.578  0.00  0.00    +0.001 C 
ENDBRANCH  31  32
ENDBRANCH  30  31
ENDBRANCH  28  30
ENDBRANCH   6  28
TORSDOF 8
ENDMDL
MODEL 6
REMARK VINA RESULT:      -5.2      1.910      7.446
REMARK  Name = 26133
REMARK  8 active torsions:
REMARK  status: ('A' for Active; 'I' for Inactive)
REMARK    1  A    between atoms: C_6  and  C_24
REMARK    2  A    between atoms: C_6  and  O_28
REMARK    3  A    between atoms: C_9  and  O_21
REMARK    4  A    between atoms: C_24  and  C_25
REMARK    5  A    between atoms: C_25  and  O_26
REMARK    6  A    between atoms: O_28  and  C_30
REMARK    7  A    between atoms: C_30  and  C_31
REMARK    8  A    between atoms: C_31  and  C_32
REMARK                            x       y       z     vdW  Elec       q    Type
REMARK                         _______ _______ _______ _____ _____    ______ ____
ROOT
ATOM      1  O   UNL     1      26.911 -22.242 -17.344  0.00  0.00    -0.291 OA
ATOM      2  C   UNL     1      34.477 -23.707 -13.883  0.00  0.00    +0.043 C 
ATOM      3  C   UNL     1      33.909 -24.283 -15.199  0.00  0.00    +0.004 C 
ATOM      4  C   UNL     1      32.406 -24.589 -15.138  0.00  0.00    +0.003 C 
ATOM      5  C   UNL     1      31.635 -23.265 -14.822  0.00  0.00    +0.030 C 
ATOM      6  C   UNL     1      35.975 -23.592 -14.280  0.00  0.00    +0.188 C 
ATOM      7  C   UNL     1      33.747 -22.376 -13.608  0.00  0.00    +0.033 C 
ATOM      8  C   UNL     1      30.062 -23.448 -14.843  0.00  0.00    +0.018 C 
ATOM      9  C   UNL     1      32.209 -22.525 -13.574  0.00  0.00    +0.111 C 
ATOM     10  C   UNL     1      34.878 -25.413 -15.537  0.00  0.00    +0.004 C 
ATOM     11  C   UNL     1      36.254 -24.881 -15.086  0.00  0.00    +0.047 C 
ATOM     12  C   UNL     1      31.926 -25.181 -16.472  0.00  0.00    +0.004 C 
ATOM     13  C   UNL     1      34.332 -24.674 -12.676  0.00  0.00    +0.004 C 
ATOM     14  C   UNL     1      29.655 -24.164 -16.138  0.00  0.00    -0.042 C 
ATOM     15  C   UNL     1      30.424 -25.417 -16.479  0.00  0.00    +0.022 C 
ATOM     16  C   UNL     1      29.412 -22.034 -14.791  0.00  0.00    +0.012 C 
ATOM     17  C   UNL     1      29.522 -24.293 -13.667  0.00  0.00    +0.004 C 
ATOM     18  C   UNL     1      27.948 -22.023 -15.198  0.00  0.00    +0.069 C 
ATOM     19  C   UNL     1      28.655 -23.763 -16.939  0.00  0.00    +0.029 C 
ATOM     20  C   UNL     1      27.784 -22.623 -16.569  0.00  0.00    +0.173 C 
ENDROOT
BRANCH   9  21
ATOM     21  O   UNL     1      31.825 -23.168 -12.368  0.00  0.00    -0.384 OA
ATOM     22  H   UNL     1      32.263 -22.735 -11.616  0.00  0.00    +0.210 HD
ENDBRANCH   9  21
BRANCH   6  24
ATOM     23  O   UNL     1      36.894 -22.362 -12.457  0.00  0.00    -0.290 OA
ATOM     24  C   UNL     1      36.898 -23.403 -13.112  0.00  0.00    +0.216 C 
BRANCH  24  25
ATOM     25  C   UNL     1      37.822 -24.559 -12.794  0.00  0.00    +0.206 C 
BRANCH  25  26
ATOM     26  O   UNL     1      39.149 -24.252 -13.166  0.00  0.00    -0.375 OA
ATOM     27  H   UNL     1      39.404 -24.792 -13.931  0.00  0.00    +0.211 HD
ENDBRANCH  25  26
ENDBRANCH  24  25
ENDBRANCH   6  24
BRANCH   6  28
ATOM     28  O   UNL     1      36.203 -22.458 -15.113  0.00  0.00    -0.449 OA
BRANCH  28  30
ATOM     29  O   UNL     1      38.306 -23.115 -15.798  0.00  0.00    -0.250 OA
ATOM     30  C   UNL     1      37.228 -22.577 -16.012  0.00  0.00    +0.317 C 
BRANCH  30  31
ATOM     31  C   UNL     1      36.818 -21.937 -17.318  0.00  0.00    +0.110 C 
BRANCH  31  32
ATOM     32  C   UNL     1      35.396 -22.318 -17.720  0.00  0.00    +0.012 C 
ATOM     33  C   UNL     1      35.123 -21.990 -19.180  0.00  0.00    +0.001 C 
ENDBRANCH  31  32
ENDBRANCH  30  31
ENDBRANCH  28  30
ENDBRANCH   6  28
TORSDOF 8
ENDMDL
MODEL 7
REMARK VINA RESULT:      -5.0     12.793     14.998
REMARK  Name = 26133
REMARK  8 active torsions:
REMARK  status: ('A' for Active; 'I' for Inactive)
REMARK    1  A    between atoms: C_6  and  C_24
REMARK    2  A    between atoms: C_6  and  O_28
REMARK    3  A    between atoms: C_9  and  O_21
REMARK    4  A    between atoms: C_24  and  C_25
REMARK    5  A    between atoms: C_25  and  O_26
REMARK    6  A    between atoms: O_28  and  C_30
REMARK    7  A    between atoms: C_30  and  C_31
REMARK    8  A    between atoms: C_31  and  C_32
REMARK                            x       y       z     vdW  Elec       q    Type
REMARK                         _______ _______ _______ _____ _____    ______ ____
ROOT
ATOM      1  O   UNL     1      36.343 -18.589 -20.797  0.00  0.00    -0.291 OA
ATOM      2  C   UNL     1      32.322 -11.440 -22.826  0.00  0.00    +0.043 C 
ATOM      3  C   UNL     1      32.098 -12.335 -21.587  0.00  0.00    +0.004 C 
ATOM      4  C   UNL     1      32.242 -13.836 -21.878  0.00  0.00    +0.003 C 
ATOM      5  C   UNL     1      33.687 -14.109 -22.412  0.00  0.00    +0.030 C 
ATOM      6  C   UNL     1      32.038 -10.050 -22.192  0.00  0.00    +0.188 C 
ATOM      7  C   UNL     1      33.766 -11.678 -23.313  0.00  0.00    +0.033 C 
ATOM      8  C   UNL     1      33.978 -15.648 -22.642  0.00  0.00    +0.018 C 
ATOM      9  C   UNL     1      34.073 -13.167 -23.594  0.00  0.00    +0.111 C 
ATOM     10  C   UNL     1      30.781 -11.819 -21.012  0.00  0.00    +0.004 C 
ATOM     11  C   UNL     1      30.829 -10.297 -21.262  0.00  0.00    +0.047 C 
ATOM     12  C   UNL     1      31.979 -14.655 -20.605  0.00  0.00    +0.004 C 
ATOM     13  C   UNL     1      31.305 -11.709 -23.969  0.00  0.00    +0.004 C 
ATOM     14  C   UNL     1      33.571 -16.432 -21.387  0.00  0.00    -0.042 C 
ATOM     15  C   UNL     1      32.197 -16.143 -20.834  0.00  0.00    +0.022 C 
ATOM     16  C   UNL     1      35.504 -15.817 -22.902  0.00  0.00    +0.012 C 
ATOM     17  C   UNL     1      33.196 -16.254 -23.830  0.00  0.00    +0.004 C 
ATOM     18  C   UNL     1      35.992 -17.248 -22.749  0.00  0.00    +0.069 C 
ATOM     19  C   UNL     1      34.340 -17.361 -20.795  0.00  0.00    +0.029 C 
ATOM     20  C   UNL     1      35.633 -17.777 -21.386  0.00  0.00    +0.173 C 
ENDROOT
BRANCH   9  21
ATOM     21  O   UNL     1      33.434 -13.559 -24.800  0.00  0.00    -0.384 OA
ATOM     22  H   UNL     1      32.645 -13.010 -24.942  0.00  0.00    +0.210 HD
ENDBRANCH   9  21
BRANCH   6  24
ATOM     23  O   UNL     1      30.693  -8.468 -23.361  0.00  0.00    -0.290 OA
ATOM     24  C   UNL     1      31.808  -8.962 -23.199  0.00  0.00    +0.216 C 
BRANCH  24  25
ATOM     25  C   UNL     1      33.018  -8.516 -23.992  0.00  0.00    +0.206 C 
BRANCH  25  26
ATOM     26  O   UNL     1      32.993  -7.119 -24.194  0.00  0.00    -0.375 OA
ATOM     27  H   UNL     1      32.120  -6.772 -23.951  0.00  0.00    +0.211 HD
ENDBRANCH  25  26
ENDBRANCH  24  25
ENDBRANCH   6  24
BRANCH   6  28
ATOM     28  O   UNL     1      33.145  -9.602 -21.415  0.00  0.00    -0.449 OA
BRANCH  28  30
ATOM     29  O   UNL     1      32.445  -9.263 -19.243  0.00  0.00    -0.250 OA
ATOM     30  C   UNL     1      32.834  -8.838 -20.322  0.00  0.00    +0.317 C 
BRANCH  30  31
ATOM     31  C   UNL     1      33.048  -7.380 -20.659  0.00  0.00    +0.110 C 
BRANCH  31  32
ATOM     32  C   UNL     1      31.792  -6.547 -20.418  0.00  0.00    +0.012 C 
ATOM     33  C   UNL     1      31.511  -5.611 -21.583  0.00  0.00    +0.001 C 
ENDBRANCH  31  32
ENDBRANCH  30  31
ENDBRANCH  28  30
ENDBRANCH   6  28
TORSDOF 8
ENDMDL
MODEL 8
REMARK VINA RESULT:      -4.9     14.789     17.119
REMARK  Name = 26133
REMARK  8 active torsions:
REMARK  status: ('A' for Active; 'I' for Inactive)
REMARK    1  A    between atoms: C_6  and  C_24
REMARK    2  A    between atoms: C_6  and  O_28
REMARK    3  A    between atoms: C_9  and  O_21
REMARK    4  A    between atoms: C_24  and  C_25
REMARK    5  A    between atoms: C_25  and  O_26
REMARK    6  A    between atoms: O_28  and  C_30
REMARK    7  A    between atoms: C_30  and  C_31
REMARK    8  A    between atoms: C_31  and  C_32
REMARK                            x       y       z     vdW  Elec       q    Type
REMARK                         _______ _______ _______ _____ _____    ______ ____
ROOT
ATOM      1  O   UNL     1      34.380 -16.456 -20.637  0.00  0.00    -0.291 OA
ATOM      2  C   UNL     1      32.793  -8.847 -23.946  0.00  0.00    +0.043 C 
ATOM      3  C   UNL     1      32.016  -9.574 -22.827  0.00  0.00    +0.004 C 
ATOM      4  C   UNL     1      31.919 -11.092 -23.033  0.00  0.00    +0.003 C 
ATOM      5  C   UNL     1      33.364 -11.689 -23.079  0.00  0.00    +0.030 C 
ATOM      6  C   UNL     1      32.634  -7.380 -23.457  0.00  0.00    +0.188 C 
ATOM      7  C   UNL     1      34.231  -9.405 -23.949  0.00  0.00    +0.033 C 
ATOM      8  C   UNL     1      33.375 -13.269 -23.181  0.00  0.00    +0.018 C 
ATOM      9  C   UNL     1      34.283 -10.943 -24.095  0.00  0.00    +0.111 C 
ATOM     10  C   UNL     1      30.730  -8.762 -22.704  0.00  0.00    +0.004 C 
ATOM     11  C   UNL     1      31.175  -7.306 -22.951  0.00  0.00    +0.047 C 
ATOM     12  C   UNL     1      31.112 -11.736 -21.894  0.00  0.00    +0.004 C 
ATOM     13  C   UNL     1      32.140  -9.002 -25.347  0.00  0.00    +0.004 C 
ATOM     14  C   UNL     1      32.447 -13.850 -22.105  0.00  0.00    -0.042 C 
ATOM     15  C   UNL     1      31.066 -13.250 -22.019  0.00  0.00    +0.022 C 
ATOM     16  C   UNL     1      34.835 -13.757 -22.944  0.00  0.00    +0.012 C 
ATOM     17  C   UNL     1      32.882 -13.804 -24.545  0.00  0.00    +0.004 C 
ATOM     18  C   UNL     1      34.936 -15.239 -22.622  0.00  0.00    +0.069 C 
ATOM     19  C   UNL     1      32.783 -14.861 -21.286  0.00  0.00    +0.029 C 
ATOM     20  C   UNL     1      34.074 -15.572 -21.433  0.00  0.00    +0.173 C 
ENDROOT
BRANCH   9  21
ATOM     21  O   UNL     1      33.973 -11.299 -25.434  0.00  0.00    -0.384 OA
ATOM     22  H   UNL     1      34.558 -10.818 -26.041  0.00  0.00    +0.210 HD
ENDBRANCH   9  21
BRANCH   6  24
ATOM     23  O   UNL     1      34.061  -6.329 -25.050  0.00  0.00    -0.290 OA
ATOM     24  C   UNL     1      32.959  -6.355 -24.503  0.00  0.00    +0.216 C 
BRANCH  24  25
ATOM     25  C   UNL     1      31.863  -5.366 -24.837  0.00  0.00    +0.206 C 
BRANCH  25  26
ATOM     26  O   UNL     1      31.898  -4.266 -23.953  0.00  0.00    -0.375 OA
ATOM     27  H   UNL     1      32.477  -3.578 -24.316  0.00  0.00    +0.211 HD
ENDBRANCH  25  26
ENDBRANCH  24  25
ENDBRANCH   6  24
BRANCH   6  28
ATOM     28  O   UNL     1      33.520  -7.097 -22.378  0.00  0.00    -0.449 OA
BRANCH  28  30
ATOM     29  O   UNL     1      32.299  -5.620 -21.093  0.00  0.00    -0.250 OA
ATOM     30  C   UNL     1      32.931  -6.660 -21.223  0.00  0.00    +0.317 C 
BRANCH  30  31
ATOM     31  C   UNL     1      33.182  -7.669 -20.126  0.00  0.00    +0.110 C 
BRANCH  31  32
ATOM     32  C   UNL     1      31.884  -8.167 -19.498  0.00  0.00    +0.012 C 
ATOM     33  C   UNL     1      31.944  -9.657 -19.199  0.00  0.00    +0.001 C 
ENDBRANCH  31  32
ENDBRANCH  30  31
ENDBRANCH  28  30
ENDBRANCH   6  28
TORSDOF 8
ENDMDL
MODEL 9
REMARK VINA RESULT:      -4.7      3.539      5.650
REMARK  Name = 26133
REMARK  8 active torsions:
REMARK  status: ('A' for Active; 'I' for Inactive)
REMARK    1  A    between atoms: C_6  and  C_24
REMARK    2  A    between atoms: C_6  and  O_28
REMARK    3  A    between atoms: C_9  and  O_21
REMARK    4  A    between atoms: C_24  and  C_25
REMARK    5  A    between atoms: C_25  and  O_26
REMARK    6  A    between atoms: O_28  and  C_30
REMARK    7  A    between atoms: C_30  and  C_31
REMARK    8  A    between atoms: C_31  and  C_32
REMARK                            x       y       z     vdW  Elec       q    Type
REMARK                         _______ _______ _______ _____ _____    ______ ____
ROOT
ATOM      1  O   UNL     1      36.050 -17.912 -21.823  0.00  0.00    -0.291 OA
ATOM      2  C   UNL     1      33.766 -23.617 -16.025  0.00  0.00    +0.043 C 
ATOM      3  C   UNL     1      34.930 -22.605 -15.952  0.00  0.00    +0.004 C 
ATOM      4  C   UNL     1      35.631 -22.376 -17.298  0.00  0.00    +0.003 C 
ATOM      5  C   UNL     1      34.585 -21.829 -18.325  0.00  0.00    +0.030 C 
ATOM      6  C   UNL     1      33.358 -23.647 -14.526  0.00  0.00    +0.188 C 
ATOM      7  C   UNL     1      32.716 -23.045 -17.000  0.00  0.00    +0.033 C 
ATOM      8  C   UNL     1      35.230 -21.456 -19.722  0.00  0.00    +0.018 C 
ATOM      9  C   UNL     1      33.300 -22.712 -18.392  0.00  0.00    +0.111 C 
ATOM     10  C   UNL     1      35.754 -23.100 -14.766  0.00  0.00    +0.004 C 
ATOM     11  C   UNL     1      34.704 -23.625 -13.766  0.00  0.00    +0.047 C 
ATOM     12  C   UNL     1      36.790 -21.379 -17.135  0.00  0.00    +0.004 C 
ATOM     13  C   UNL     1      34.214 -25.037 -16.471  0.00  0.00    +0.004 C 
ATOM     14  C   UNL     1      36.462 -20.569 -19.488  0.00  0.00    -0.042 C 
ATOM     15  C   UNL     1      37.455 -21.062 -18.465  0.00  0.00    +0.022 C 
ATOM     16  C   UNL     1      34.166 -20.679 -20.551  0.00  0.00    +0.012 C 
ATOM     17  C   UNL     1      35.702 -22.683 -20.534  0.00  0.00    +0.004 C 
ATOM     18  C   UNL     1      34.750 -19.921 -21.732  0.00  0.00    +0.069 C 
ATOM     19  C   UNL     1      36.708 -19.429 -20.155  0.00  0.00    +0.029 C 
ATOM     20  C   UNL     1      35.834 -18.985 -21.264  0.00  0.00    +0.173 C 
ENDROOT
BRANCH   9  21
ATOM     21  O   UNL     1      33.536 -23.917 -19.104  0.00  0.00    -0.384 OA
ATOM     22  H   UNL     1      34.156 -24.473 -18.605  0.00  0.00    +0.210 HD
ENDBRANCH   9  21
BRANCH   6  24
ATOM     23  O   UNL     1      32.591 -25.374 -13.074  0.00  0.00    -0.290 OA
ATOM     24  C   UNL     1      32.481 -24.809 -14.161  0.00  0.00    +0.216 C 
BRANCH  24  25
ATOM     25  C   UNL     1      31.466 -25.235 -15.199  0.00  0.00    +0.206 C 
BRANCH  25  26
ATOM     26  O   UNL     1      30.335 -25.812 -14.582  0.00  0.00    -0.375 OA
ATOM     27  H   UNL     1      29.958 -26.490 -15.166  0.00  0.00    +0.211 HD
ENDBRANCH  25  26
ENDBRANCH  24  25
ENDBRANCH   6  24
BRANCH   6  28
ATOM     28  O   UNL     1      32.600 -22.492 -14.174  0.00  0.00    -0.449 OA
BRANCH  28  30
ATOM     29  O   UNL     1      30.829 -23.169 -12.860  0.00  0.00    -0.250 OA
ATOM     30  C   UNL     1      31.277 -22.709 -13.902  0.00  0.00    +0.317 C 
BRANCH  30  31
ATOM     31  C   UNL     1      30.450 -22.290 -15.096  0.00  0.00    +0.110 C 
BRANCH  31  32
ATOM     32  C   UNL     1      28.965 -22.579 -14.892  0.00  0.00    +0.012 C 
ATOM     33  C   UNL     1      28.341 -23.195 -16.135  0.00  0.00    +0.001 C 
ENDBRANCH  31  32
ENDBRANCH  30  31
ENDBRANCH  28  30
ENDBRANCH   6  28
TORSDOF 8
ENDMDL
