MODEL 1
REMARK VINA RESULT:     -12.2      0.000      0.000
REMARK  Name = 28693
REMARK  5 active torsions:
REMARK  status: ('A' for Active; 'I' for Inactive)
REMARK    1  A    between atoms: C_6  and  C_20
REMARK    2  A    between atoms: C_20  and  N_22
REMARK    3  A    between atoms: C_23  and  O_25
REMARK    4  A    between atoms: O_25  and  C_26
REMARK    5  A    between atoms: C_26  and  C_27
REMARK                            x       y       z     vdW  Elec       q    Type
REMARK                         _______ _______ _______ _____ _____    ______ ____
ROOT
ATOM      1  N   UNL     1      32.378 -14.704 -21.728  0.00  0.00    +0.387 N 
ATOM      2  N   UNL     1      32.064  -8.787 -20.649  0.00  0.00    -0.284 N 
ATOM      3  C   UNL     1      32.688 -12.660 -23.164  0.00  0.00    +0.004 C 
ATOM      4  C   UNL     1      32.667 -13.248 -21.685  0.00  0.00    -0.050 C 
ATOM      5  C   UNL     1      33.709 -13.421 -24.021  0.00  0.00    +0.002 C 
ATOM      6  C   UNL     1      33.440 -14.927 -23.970  0.00  0.00    -0.001 C 
ATOM      7  C   UNL     1      31.670 -12.466 -20.746  0.00  0.00    +0.007 C 
ATOM      8  C   UNL     1      33.392 -15.421 -22.520  0.00  0.00    -0.076 C 
ATOM      9  C   UNL     1      32.916 -11.158 -23.153  0.00  0.00    -0.024 C 
ATOM     10  C   UNL     1      32.481 -10.462 -22.018  0.00  0.00    +0.007 C 
ATOM     11  C   UNL     1      31.891 -10.996 -20.854  0.00  0.00    -0.008 C 
ATOM     12  C   UNL     1      32.587  -9.091 -21.887  0.00  0.00    +0.051 C 
ATOM     13  C   UNL     1      32.302 -15.308 -20.395  0.00  0.00    -0.101 C 
ATOM     14  C   UNL     1      33.446 -10.376 -24.187  0.00  0.00    -0.004 C 
ATOM     15  C   UNL     1      31.636  -9.937 -20.015  0.00  0.00    +0.061 C 
ATOM     16  C   UNL     1      33.135  -8.306 -22.901  0.00  0.00    +0.015 C 
ATOM     17  C   UNL     1      33.559  -8.981 -24.056  0.00  0.00    +0.001 C 
ATOM     18  C   UNL     1      31.968  -7.460 -20.081  0.00  0.00    +0.117 C 
ATOM     19  H   UNL     1      31.462 -14.793 -22.168  0.00  0.00    -0.080 HD
ENDROOT
BRANCH   6  20
ATOM     20  C   UNL     1      34.502 -15.688 -24.765  0.00  0.00    +0.091 C 
BRANCH  20  22
ATOM     21  O   UNL     1      34.424 -18.583 -24.997  0.00  0.00    -0.226 OA
ATOM     22  N   UNL     1      35.165 -16.652 -23.942  0.00  0.00    -0.271 N 
ATOM     23  C   UNL     1      35.076 -18.024 -24.121  0.00  0.00    +0.402 C 
ATOM     24  H   UNL     1      35.721 -16.319 -23.202  0.00  0.00    +0.153 HD
BRANCH  23  25
ATOM     25  O   UNL     1      35.822 -18.671 -23.177  0.00  0.00    -0.430 OA
BRANCH  25  26
ATOM     26  C   UNL     1      35.631 -18.237 -21.825  0.00  0.00    +0.237 C 
BRANCH  26  27
ATOM     27  C   UNL     1      34.937 -19.324 -21.056  0.00  0.00    +0.021 C 
ATOM     28  C   UNL     1      35.689 -20.310 -20.427  0.00  0.00    -0.001 C 
ATOM     29  C   UNL     1      33.549 -19.334 -20.979  0.00  0.00    -0.001 C 
ATOM     30  C   UNL     1      35.045 -21.319 -19.712  0.00  0.00    -0.000 C 
ATOM     31  C   UNL     1      32.905 -20.343 -20.264  0.00  0.00    -0.000 C 
ATOM     32  C   UNL     1      33.653 -21.336 -19.631  0.00  0.00    -0.000 C 
ENDBRANCH  26  27
ENDBRANCH  25  26
ENDBRANCH  23  25
ENDBRANCH  20  22
ENDBRANCH   6  20
TORSDOF 5
ENDMDL
MODEL 2
REMARK VINA RESULT:     -11.7      0.881      1.330
REMARK  Name = 28693
REMARK  5 active torsions:
REMARK  status: ('A' for Active; 'I' for Inactive)
REMARK    1  A    between atoms: C_6  and  C_20
REMARK    2  A    between atoms: C_20  and  N_22
REMARK    3  A    between atoms: C_23  and  O_25
REMARK    4  A    between atoms: O_25  and  C_26
REMARK    5  A    between atoms: C_26  and  C_27
REMARK                            x       y       z     vdW  Elec       q    Type
REMARK                         _______ _______ _______ _____ _____    ______ ____
ROOT
ATOM      1  N   UNL     1      32.270 -14.450 -21.902  0.00  0.00    +0.387 N 
ATOM      2  N   UNL     1      32.463  -8.432 -21.866  0.00  0.00    -0.284 N 
ATOM      3  C   UNL     1      33.085 -12.732 -23.549  0.00  0.00    +0.004 C 
ATOM      4  C   UNL     1      32.716 -13.041 -22.033  0.00  0.00    -0.050 C 
ATOM      5  C   UNL     1      34.152 -13.718 -24.046  0.00  0.00    +0.002 C 
ATOM      6  C   UNL     1      33.702 -15.161 -23.812  0.00  0.00    -0.001 C 
ATOM      7  C   UNL     1      31.660 -12.022 -21.456  0.00  0.00    +0.007 C 
ATOM      8  C   UNL     1      33.323 -15.382 -22.344  0.00  0.00    -0.076 C 
ATOM      9  C   UNL     1      33.484 -11.276 -23.732  0.00  0.00    -0.024 C 
ATOM     10  C   UNL     1      32.928 -10.354 -22.836  0.00  0.00    +0.007 C 
ATOM     11  C   UNL     1      32.071 -10.619 -21.749  0.00  0.00    -0.008 C 
ATOM     12  C   UNL     1      33.169  -8.996 -22.906  0.00  0.00    +0.051 C 
ATOM     13  C   UNL     1      31.873 -14.797 -20.534  0.00  0.00    -0.101 C 
ATOM     14  C   UNL     1      34.289 -10.741 -24.745  0.00  0.00    -0.004 C 
ATOM     15  C   UNL     1      31.790  -9.408 -21.159  0.00  0.00    +0.061 C 
ATOM     16  C   UNL     1      33.988  -8.454 -23.897  0.00  0.00    +0.015 C 
ATOM     17  C   UNL     1      34.539  -9.360 -24.817  0.00  0.00    +0.001 C 
ATOM     18  C   UNL     1      32.420  -7.021 -21.549  0.00  0.00    +0.117 C 
ATOM     19  H   UNL     1      31.449 -14.539 -22.501  0.00  0.00    -0.080 HD
ENDROOT
BRANCH   6  20
ATOM     20  C   UNL     1      34.796 -16.140 -24.241  0.00  0.00    +0.091 C 
BRANCH  20  22
ATOM     21  O   UNL     1      34.572 -18.893 -25.140  0.00  0.00    -0.226 OA
ATOM     22  N   UNL     1      34.765 -17.325 -23.439  0.00  0.00    -0.271 N 
ATOM     23  C   UNL     1      34.656 -18.609 -23.950  0.00  0.00    +0.402 C 
ATOM     24  H   UNL     1      34.826 -17.221 -22.462  0.00  0.00    +0.153 HD
BRANCH  23  25
ATOM     25  O   UNL     1      34.655 -19.522 -22.933  0.00  0.00    -0.430 OA
BRANCH  25  26
ATOM     26  C   UNL     1      34.550 -18.982 -21.610  0.00  0.00    +0.237 C 
BRANCH  26  27
ATOM     27  C   UNL     1      34.583 -20.108 -20.618  0.00  0.00    +0.021 C 
ATOM     28  C   UNL     1      33.395 -20.716 -20.228  0.00  0.00    -0.001 C 
ATOM     29  C   UNL     1      35.800 -20.533 -20.100  0.00  0.00    -0.001 C 
ATOM     30  C   UNL     1      33.425 -21.763 -19.306  0.00  0.00    -0.000 C 
ATOM     31  C   UNL     1      35.830 -21.580 -19.177  0.00  0.00    -0.000 C 
ATOM     32  C   UNL     1      34.642 -22.194 -18.781  0.00  0.00    -0.000 C 
ENDBRANCH  26  27
ENDBRANCH  25  26
ENDBRANCH  23  25
ENDBRANCH  20  22
ENDBRANCH   6  20
TORSDOF 5
ENDMDL
MODEL 3
REMARK VINA RESULT:     -11.0      3.525      8.295
REMARK  Name = 28693
REMARK  5 active torsions:
REMARK  status: ('A' for Active; 'I' for Inactive)
REMARK    1  A    between atoms: C_6  and  C_20
REMARK    2  A    between atoms: C_20  and  N_22
REMARK    3  A    between atoms: C_23  and  O_25
REMARK    4  A    between atoms: O_25  and  C_26
REMARK    5  A    between atoms: C_26  and  C_27
REMARK                            x       y       z     vdW  Elec       q    Type
REMARK                         _______ _______ _______ _____ _____    ______ ____
ROOT
ATOM      1  N   UNL     1      33.496 -13.078 -26.341  0.00  0.00    +0.387 N 
ATOM      2  N   UNL     1      34.562 -18.068 -23.142  0.00  0.00    -0.284 N 
ATOM      3  C   UNL     1      33.619 -13.564 -23.875  0.00  0.00    +0.004 C 
ATOM      4  C   UNL     1      34.018 -14.041 -25.339  0.00  0.00    -0.050 C 
ATOM      5  C   UNL     1      34.135 -12.141 -23.623  0.00  0.00    +0.002 C 
ATOM      6  C   UNL     1      33.656 -11.191 -24.723  0.00  0.00    -0.001 C 
ATOM      7  C   UNL     1      33.556 -15.520 -25.631  0.00  0.00    +0.007 C 
ATOM      8  C   UNL     1      34.036 -11.727 -26.107  0.00  0.00    -0.076 C 
ATOM      9  C   UNL     1      34.081 -14.563 -22.827  0.00  0.00    -0.024 C 
ATOM     10  C   UNL     1      34.191 -15.898 -23.235  0.00  0.00    +0.007 C 
ATOM     11  C   UNL     1      33.965 -16.427 -24.522  0.00  0.00    -0.008 C 
ATOM     12  C   UNL     1      34.561 -16.920 -22.381  0.00  0.00    +0.051 C 
ATOM     13  C   UNL     1      33.791 -13.476 -27.720  0.00  0.00    -0.101 C 
ATOM     14  C   UNL     1      34.339 -14.311 -21.474  0.00  0.00    -0.004 C 
ATOM     15  C   UNL     1      34.198 -17.781 -24.443  0.00  0.00    +0.061 C 
ATOM     16  C   UNL     1      34.843 -16.675 -21.037  0.00  0.00    +0.015 C 
ATOM     17  C   UNL     1      34.719 -15.346 -20.603  0.00  0.00    +0.001 C 
ATOM     18  C   UNL     1      34.891 -19.392 -22.662  0.00  0.00    +0.117 C 
ATOM     19  H   UNL     1      32.483 -13.076 -26.223  0.00  0.00    -0.080 HD
ENDROOT
BRANCH   6  20
ATOM     20  C   UNL     1      34.231  -9.790 -24.510  0.00  0.00    +0.091 C 
BRANCH  20  22
ATOM     21  O   UNL     1      35.017  -7.411 -23.039  0.00  0.00    -0.226 OA
ATOM     22  N   UNL     1      33.465  -9.063 -23.545  0.00  0.00    -0.271 N 
ATOM     23  C   UNL     1      33.917  -7.930 -22.884  0.00  0.00    +0.402 C 
ATOM     24  H   UNL     1      32.560  -9.388 -23.337  0.00  0.00    +0.153 HD
BRANCH  23  25
ATOM     25  O   UNL     1      32.955  -7.470 -22.029  0.00  0.00    -0.430 OA
BRANCH  25  26
ATOM     26  C   UNL     1      31.675  -8.104 -22.129  0.00  0.00    +0.237 C 
BRANCH  26  27
ATOM     27  C   UNL     1      31.655  -9.310 -21.236  0.00  0.00    +0.021 C 
ATOM     28  C   UNL     1      32.013  -9.181 -19.898  0.00  0.00    -0.001 C 
ATOM     29  C   UNL     1      31.278 -10.544 -21.753  0.00  0.00    -0.001 C 
ATOM     30  C   UNL     1      31.994 -10.301 -19.067  0.00  0.00    -0.000 C 
ATOM     31  C   UNL     1      31.259 -11.664 -20.922  0.00  0.00    -0.000 C 
ATOM     32  C   UNL     1      31.618 -11.543 -19.579  0.00  0.00    -0.000 C 
ENDBRANCH  26  27
ENDBRANCH  25  26
ENDBRANCH  23  25
ENDBRANCH  20  22
ENDBRANCH   6  20
TORSDOF 5
ENDMDL
MODEL 4
REMARK VINA RESULT:     -10.9      3.736      9.859
REMARK  Name = 28693
REMARK  5 active torsions:
REMARK  status: ('A' for Active; 'I' for Inactive)
REMARK    1  A    between atoms: C_6  and  C_20
REMARK    2  A    between atoms: C_20  and  N_22
REMARK    3  A    between atoms: C_23  and  O_25
REMARK    4  A    between atoms: O_25  and  C_26
REMARK    5  A    between atoms: C_26  and  C_27
REMARK                            x       y       z     vdW  Elec       q    Type
REMARK                         _______ _______ _______ _____ _____    ______ ____
ROOT
ATOM      1  N   UNL     1      33.021 -11.496 -24.129  0.00  0.00    +0.387 N 
ATOM      2  N   UNL     1      34.812 -17.214 -23.531  0.00  0.00    -0.284 N 
ATOM      3  C   UNL     1      32.440 -13.335 -22.512  0.00  0.00    +0.004 C 
ATOM      4  C   UNL     1      33.495 -12.787 -23.570  0.00  0.00    -0.050 C 
ATOM      5  C   UNL     1      32.202 -12.290 -21.413  0.00  0.00    +0.002 C 
ATOM      6  C   UNL     1      31.805 -10.945 -22.026  0.00  0.00    -0.001 C 
ATOM      7  C   UNL     1      33.816 -13.845 -24.695  0.00  0.00    +0.007 C 
ATOM      8  C   UNL     1      32.839 -10.494 -23.064  0.00  0.00    -0.076 C 
ATOM      9  C   UNL     1      32.862 -14.690 -21.968  0.00  0.00    -0.024 C 
ATOM     10  C   UNL     1      33.647 -15.490 -22.809  0.00  0.00    +0.007 C 
ATOM     11  C   UNL     1      34.134 -15.171 -24.093  0.00  0.00    -0.008 C 
ATOM     12  C   UNL     1      34.070 -16.759 -22.463  0.00  0.00    +0.051 C 
ATOM     13  C   UNL     1      33.925 -10.950 -25.145  0.00  0.00    -0.101 C 
ATOM     14  C   UNL     1      32.491 -15.263 -20.745  0.00  0.00    -0.004 C 
ATOM     15  C   UNL     1      34.854 -16.259 -24.527  0.00  0.00    +0.061 C 
ATOM     16  C   UNL     1      33.725 -17.330 -21.238  0.00  0.00    +0.015 C 
ATOM     17  C   UNL     1      32.922 -16.552 -20.389  0.00  0.00    +0.001 C 
ATOM     18  C   UNL     1      35.458 -18.506 -23.613  0.00  0.00    +0.117 C 
ATOM     19  H   UNL     1      32.127 -11.698 -24.577  0.00  0.00    -0.080 HD
ENDROOT
BRANCH   6  20
ATOM     20  C   UNL     1      31.639  -9.886 -20.935  0.00  0.00    +0.091 C 
BRANCH  20  22
ATOM     21  O   UNL     1      32.779  -7.536 -19.663  0.00  0.00    -0.226 OA
ATOM     22  N   UNL     1      31.760  -8.568 -21.477  0.00  0.00    -0.271 N 
ATOM     23  C   UNL     1      32.320  -7.495 -20.800  0.00  0.00    +0.402 C 
ATOM     24  H   UNL     1      31.425  -8.413 -22.389  0.00  0.00    +0.153 HD
BRANCH  23  25
ATOM     25  O   UNL     1      32.290  -6.377 -21.584  0.00  0.00    -0.430 OA
BRANCH  25  26
ATOM     26  C   UNL     1      31.573  -6.498 -22.818  0.00  0.00    +0.237 C 
BRANCH  26  27
ATOM     27  C   UNL     1      32.509  -6.223 -23.958  0.00  0.00    +0.021 C 
ATOM     28  C   UNL     1      33.746  -6.856 -24.001  0.00  0.00    -0.001 C 
ATOM     29  C   UNL     1      32.131  -5.337 -24.960  0.00  0.00    -0.001 C 
ATOM     30  C   UNL     1      34.616  -6.601 -25.061  0.00  0.00    -0.000 C 
ATOM     31  C   UNL     1      33.001  -5.081 -26.020  0.00  0.00    -0.000 C 
ATOM     32  C   UNL     1      34.244  -5.713 -26.070  0.00  0.00    -0.000 C 
ENDBRANCH  26  27
ENDBRANCH  25  26
ENDBRANCH  23  25
ENDBRANCH  20  22
ENDBRANCH   6  20
TORSDOF 5
ENDMDL
MODEL 5
REMARK VINA RESULT:     -10.8      3.908     10.334
REMARK  Name = 28693
REMARK  5 active torsions:
REMARK  status: ('A' for Active; 'I' for Inactive)
REMARK    1  A    between atoms: C_6  and  C_20
REMARK    2  A    between atoms: C_20  and  N_22
REMARK    3  A    between atoms: C_23  and  O_25
REMARK    4  A    between atoms: O_25  and  C_26
REMARK    5  A    between atoms: C_26  and  C_27
REMARK                            x       y       z     vdW  Elec       q    Type
REMARK                         _______ _______ _______ _____ _____    ______ ____
ROOT
ATOM      1  N   UNL     1      33.320 -12.967 -26.048  0.00  0.00    +0.387 N 
ATOM      2  N   UNL     1      34.790 -18.263 -23.586  0.00  0.00    -0.284 N 
ATOM      3  C   UNL     1      33.486 -13.790 -23.676  0.00  0.00    +0.004 C 
ATOM      4  C   UNL     1      33.919 -14.019 -25.190  0.00  0.00    -0.050 C 
ATOM      5  C   UNL     1      33.886 -12.381 -23.218  0.00  0.00    +0.002 C 
ATOM      6  C   UNL     1      33.330 -11.325 -24.176  0.00  0.00    -0.001 C 
ATOM      7  C   UNL     1      33.577 -15.473 -25.695  0.00  0.00    +0.007 C 
ATOM      8  C   UNL     1      33.750 -11.625 -25.619  0.00  0.00    -0.076 C 
ATOM      9  C   UNL     1      34.029 -14.889 -22.778  0.00  0.00    -0.024 C 
ATOM     10  C   UNL     1      34.245 -16.139 -23.371  0.00  0.00    +0.007 C 
ATOM     11  C   UNL     1      34.061 -16.494 -24.723  0.00  0.00    -0.008 C 
ATOM     12  C   UNL     1      34.698 -17.239 -22.669  0.00  0.00    +0.051 C 
ATOM     13  C   UNL     1      33.643 -13.138 -27.468  0.00  0.00    -0.101 C 
ATOM     14  C   UNL     1      34.268 -14.814 -21.400  0.00  0.00    -0.004 C 
ATOM     15  C   UNL     1      34.402 -17.822 -24.836  0.00  0.00    +0.061 C 
ATOM     16  C   UNL     1      34.961 -17.168 -21.301  0.00  0.00    +0.015 C 
ATOM     17  C   UNL     1      34.732 -15.929 -20.682  0.00  0.00    +0.001 C 
ATOM     18  C   UNL     1      35.225 -19.612 -23.298  0.00  0.00    +0.117 C 
ATOM     19  H   UNL     1      32.310 -13.063 -25.941  0.00  0.00    -0.080 HD
ENDROOT
BRANCH   6  20
ATOM     20  C   UNL     1      33.791  -9.928 -23.759  0.00  0.00    +0.091 C 
BRANCH  20  22
ATOM     21  O   UNL     1      31.839  -9.157 -21.750  0.00  0.00    -0.226 OA
ATOM     22  N   UNL     1      32.729  -8.978 -23.887  0.00  0.00    -0.271 N 
ATOM     23  C   UNL     1      31.835  -8.666 -22.874  0.00  0.00    +0.402 C 
ATOM     24  H   UNL     1      32.626  -8.517 -24.751  0.00  0.00    +0.153 HD
BRANCH  23  25
ATOM     25  O   UNL     1      30.942  -7.726 -23.307  0.00  0.00    -0.430 OA
BRANCH  25  26
ATOM     26  C   UNL     1      30.900  -6.510 -22.552  0.00  0.00    +0.237 C 
BRANCH  26  27
ATOM     27  C   UNL     1      31.268  -5.364 -23.448  0.00  0.00    +0.021 C 
ATOM     28  C   UNL     1      31.689  -5.616 -24.750  0.00  0.00    -0.001 C 
ATOM     29  C   UNL     1      31.186  -4.062 -22.969  0.00  0.00    -0.001 C 
ATOM     30  C   UNL     1      32.030  -4.551 -25.583  0.00  0.00    -0.000 C 
ATOM     31  C   UNL     1      31.528  -2.997 -23.802  0.00  0.00    -0.000 C 
ATOM     32  C   UNL     1      31.951  -3.241 -25.109  0.00  0.00    -0.000 C 
ENDBRANCH  26  27
ENDBRANCH  25  26
ENDBRANCH  23  25
ENDBRANCH  20  22
ENDBRANCH   6  20
TORSDOF 5
ENDMDL
MODEL 6
REMARK VINA RESULT:     -10.6      3.264      5.618
REMARK  Name = 28693
REMARK  5 active torsions:
REMARK  status: ('A' for Active; 'I' for Inactive)
REMARK    1  A    between atoms: C_6  and  C_20
REMARK    2  A    between atoms: C_20  and  N_22
REMARK    3  A    between atoms: C_23  and  O_25
REMARK    4  A    between atoms: O_25  and  C_26
REMARK    5  A    between atoms: C_26  and  C_27
REMARK                            x       y       z     vdW  Elec       q    Type
REMARK                         _______ _______ _______ _____ _____    ______ ____
ROOT
ATOM      1  N   UNL     1      34.878 -18.156 -23.352  0.00  0.00    +0.387 N 
ATOM      2  N   UNL     1      33.275 -12.354 -23.544  0.00  0.00    -0.284 N 
ATOM      3  C   UNL     1      34.039 -16.531 -21.624  0.00  0.00    +0.004 C 
ATOM      4  C   UNL     1      34.150 -16.875 -23.173  0.00  0.00    -0.050 C 
ATOM      5  C   UNL     1      33.359 -17.684 -20.873  0.00  0.00    +0.002 C 
ATOM      6  C   UNL     1      34.078 -19.006 -21.152  0.00  0.00    -0.001 C 
ATOM      7  C   UNL     1      34.795 -15.698 -24.001  0.00  0.00    +0.007 C 
ATOM      8  C   UNL     1      34.187 -19.258 -22.660  0.00  0.00    -0.076 C 
ATOM      9  C   UNL     1      33.357 -15.190 -21.407  0.00  0.00    -0.024 C 
ATOM     10  C   UNL     1      33.484 -14.245 -22.433  0.00  0.00    +0.007 C 
ATOM     11  C   UNL     1      34.136 -14.402 -23.672  0.00  0.00    -0.008 C 
ATOM     12  C   UNL     1      32.950 -12.973 -22.357  0.00  0.00    +0.051 C 
ATOM     13  C   UNL     1      35.055 -18.518 -24.762  0.00  0.00    -0.101 C 
ATOM     14  C   UNL     1      32.675 -14.764 -20.260  0.00  0.00    -0.004 C 
ATOM     15  C   UNL     1      33.998 -13.212 -24.349  0.00  0.00    +0.061 C 
ATOM     16  C   UNL     1      32.250 -12.547 -21.228  0.00  0.00    +0.015 C 
ATOM     17  C   UNL     1      32.128 -13.473 -20.180  0.00  0.00    +0.001 C 
ATOM     18  C   UNL     1      32.920 -11.000 -23.909  0.00  0.00    +0.117 C 
ATOM     19  H   UNL     1      35.802 -18.011 -22.945  0.00  0.00    -0.080 HD
ENDROOT
BRANCH   6  20
ATOM     20  C   UNL     1      33.356 -20.165 -20.462  0.00  0.00    +0.091 C 
BRANCH  20  22
ATOM     21  O   UNL     1      32.787 -22.407 -18.705  0.00  0.00    -0.226 OA
ATOM     22  N   UNL     1      34.291 -21.060 -19.852  0.00  0.00    -0.271 N 
ATOM     23  C   UNL     1      33.935 -22.111 -19.021  0.00  0.00    +0.402 C 
ATOM     24  H   UNL     1      35.248 -20.920 -20.034  0.00  0.00    +0.153 HD
BRANCH  23  25
ATOM     25  O   UNL     1      35.051 -22.777 -18.600  0.00  0.00    -0.430 OA
BRANCH  25  26
ATOM     26  C   UNL     1      35.985 -22.009 -17.833  0.00  0.00    +0.237 C 
BRANCH  26  27
ATOM     27  C   UNL     1      36.062 -22.576 -16.445  0.00  0.00    +0.021 C 
ATOM     28  C   UNL     1      34.904 -23.027 -15.820  0.00  0.00    -0.001 C 
ATOM     29  C   UNL     1      37.290 -22.647 -15.798  0.00  0.00    -0.001 C 
ATOM     30  C   UNL     1      34.976 -23.554 -14.531  0.00  0.00    -0.000 C 
ATOM     31  C   UNL     1      37.362 -23.174 -14.508  0.00  0.00    -0.000 C 
ATOM     32  C   UNL     1      36.204 -23.628 -13.875  0.00  0.00    -0.000 C 
ENDBRANCH  26  27
ENDBRANCH  25  26
ENDBRANCH  23  25
ENDBRANCH  20  22
ENDBRANCH   6  20
TORSDOF 5
ENDMDL
MODEL 7
REMARK VINA RESULT:     -10.4      4.222     10.954
REMARK  Name = 28693
REMARK  5 active torsions:
REMARK  status: ('A' for Active; 'I' for Inactive)
REMARK    1  A    between atoms: C_6  and  C_20
REMARK    2  A    between atoms: C_20  and  N_22
REMARK    3  A    between atoms: C_23  and  O_25
REMARK    4  A    between atoms: O_25  and  C_26
REMARK    5  A    between atoms: C_26  and  C_27
REMARK                            x       y       z     vdW  Elec       q    Type
REMARK                         _______ _______ _______ _____ _____    ______ ____
ROOT
ATOM      1  N   UNL     1      35.926 -21.670 -19.048  0.00  0.00    +0.387 N 
ATOM      2  N   UNL     1      34.581 -24.033 -13.675  0.00  0.00    -0.284 N 
ATOM      3  C   UNL     1      33.818 -22.610 -18.046  0.00  0.00    +0.004 C 
ATOM      4  C   UNL     1      35.256 -21.991 -17.763  0.00  0.00    -0.050 C 
ATOM      5  C   UNL     1      32.985 -21.644 -18.898  0.00  0.00    +0.002 C 
ATOM      6  C   UNL     1      33.741 -21.259 -20.171  0.00  0.00    -0.001 C 
ATOM      7  C   UNL     1      36.137 -22.923 -16.845  0.00  0.00    +0.007 C 
ATOM      8  C   UNL     1      35.130 -20.709 -19.832  0.00  0.00    -0.076 C 
ATOM      9  C   UNL     1      33.130 -23.013 -16.752  0.00  0.00    -0.024 C 
ATOM     10  C   UNL     1      33.960 -23.366 -15.680  0.00  0.00    +0.007 C 
ATOM     11  C   UNL     1      35.369 -23.350 -15.641  0.00  0.00    -0.008 C 
ATOM     12  C   UNL     1      33.475 -23.790 -14.458  0.00  0.00    +0.051 C 
ATOM     13  C   UNL     1      37.277 -21.132 -18.867  0.00  0.00    -0.101 C 
ATOM     14  C   UNL     1      31.753 -23.144 -16.531  0.00  0.00    -0.004 C 
ATOM     15  C   UNL     1      35.737 -23.773 -14.384  0.00  0.00    +0.061 C 
ATOM     16  C   UNL     1      32.105 -23.901 -14.221  0.00  0.00    +0.015 C 
ATOM     17  C   UNL     1      31.255 -23.572 -15.289  0.00  0.00    +0.001 C 
ATOM     18  C   UNL     1      34.554 -24.497 -12.305  0.00  0.00    +0.117 C 
ATOM     19  H   UNL     1      36.003 -22.554 -19.551  0.00  0.00    -0.080 HD
ENDROOT
BRANCH   6  20
ATOM     20  C   UNL     1      32.940 -20.240 -20.984  0.00  0.00    +0.091 C 
BRANCH  20  22
ATOM     21  O   UNL     1      34.489 -19.485 -23.323  0.00  0.00    -0.226 OA
ATOM     22  N   UNL     1      33.694 -19.041 -21.187  0.00  0.00    -0.271 N 
ATOM     23  C   UNL     1      34.410 -18.756 -22.340  0.00  0.00    +0.402 C 
ATOM     24  H   UNL     1      33.704 -18.376 -20.462  0.00  0.00    +0.153 HD
BRANCH  23  25
ATOM     25  O   UNL     1      35.019 -17.538 -22.227  0.00  0.00    -0.430 OA
BRANCH  25  26
ATOM     26  C   UNL     1      34.584 -16.722 -21.133  0.00  0.00    +0.237 C 
BRANCH  26  27
ATOM     27  C   UNL     1      33.963 -15.468 -21.676  0.00  0.00    +0.021 C 
ATOM     28  C   UNL     1      34.453 -14.909 -22.851  0.00  0.00    -0.001 C 
ATOM     29  C   UNL     1      32.903 -14.877 -20.999  0.00  0.00    -0.001 C 
ATOM     30  C   UNL     1      33.876 -13.744 -23.355  0.00  0.00    -0.000 C 
ATOM     31  C   UNL     1      32.325 -13.711 -21.503  0.00  0.00    -0.000 C 
ATOM     32  C   UNL     1      32.813 -13.144 -22.681  0.00  0.00    -0.000 C 
ENDBRANCH  26  27
ENDBRANCH  25  26
ENDBRANCH  23  25
ENDBRANCH  20  22
ENDBRANCH   6  20
TORSDOF 5
ENDMDL
MODEL 8
REMARK VINA RESULT:     -10.3      8.357     12.290
REMARK  Name = 28693
REMARK  5 active torsions:
REMARK  status: ('A' for Active; 'I' for Inactive)
REMARK    1  A    between atoms: C_6  and  C_20
REMARK    2  A    between atoms: C_20  and  N_22
REMARK    3  A    between atoms: C_23  and  O_25
REMARK    4  A    between atoms: O_25  and  C_26
REMARK    5  A    between atoms: C_26  and  C_27
REMARK                            x       y       z     vdW  Elec       q    Type
REMARK                         _______ _______ _______ _____ _____    ______ ____
ROOT
ATOM      1  N   UNL     1      31.908 -23.778 -15.353  0.00  0.00    +0.387 N 
ATOM      2  N   UNL     1      34.341 -20.991 -20.105  0.00  0.00    -0.284 N 
ATOM      3  C   UNL     1      34.276 -23.410 -16.123  0.00  0.00    +0.004 C 
ATOM      4  C   UNL     1      32.762 -22.928 -16.220  0.00  0.00    -0.050 C 
ATOM      5  C   UNL     1      34.745 -23.390 -14.662  0.00  0.00    +0.002 C 
ATOM      6  C   UNL     1      33.792 -24.199 -13.779  0.00  0.00    -0.001 C 
ATOM      7  C   UNL     1      32.245 -22.880 -17.709  0.00  0.00    +0.007 C 
ATOM      8  C   UNL     1      32.349 -23.712 -13.949  0.00  0.00    -0.076 C 
ATOM      9  C   UNL     1      35.169 -22.603 -17.051  0.00  0.00    -0.024 C 
ATOM     10  C   UNL     1      34.568 -22.068 -18.197  0.00  0.00    +0.007 C 
ATOM     11  C   UNL     1      33.213 -22.151 -18.577  0.00  0.00    -0.008 C 
ATOM     12  C   UNL     1      35.265 -21.347 -19.147  0.00  0.00    +0.051 C 
ATOM     13  C   UNL     1      30.489 -23.418 -15.424  0.00  0.00    -0.101 C 
ATOM     14  C   UNL     1      36.548 -22.395 -16.926  0.00  0.00    -0.004 C 
ATOM     15  C   UNL     1      33.093 -21.477 -19.770  0.00  0.00    +0.061 C 
ATOM     16  C   UNL     1      36.634 -21.115 -19.021  0.00  0.00    +0.015 C 
ATOM     17  C   UNL     1      37.260 -21.659 -17.889  0.00  0.00    +0.001 C 
ATOM     18  C   UNL     1      34.622 -20.221 -21.297  0.00  0.00    +0.117 C 
ATOM     19  H   UNL     1      32.010 -24.729 -15.708  0.00  0.00    -0.080 HD
ENDROOT
BRANCH   6  20
ATOM     20  C   UNL     1      34.220 -24.117 -12.313  0.00  0.00    +0.091 C 
BRANCH  20  22
ATOM     21  O   UNL     1      36.003 -24.260 -10.024  0.00  0.00    -0.226 OA
ATOM     22  N   UNL     1      35.539 -23.576 -12.194  0.00  0.00    -0.271 N 
ATOM     23  C   UNL     1      36.329 -23.689 -11.059  0.00  0.00    +0.402 C 
ATOM     24  H   UNL     1      35.910 -23.093 -12.967  0.00  0.00    +0.153 HD
BRANCH  23  25
ATOM     25  O   UNL     1      37.530 -23.070 -11.259  0.00  0.00    -0.430 OA
BRANCH  25  26
ATOM     26  C   UNL     1      38.612 -23.921 -11.657  0.00  0.00    +0.237 C 
BRANCH  26  27
ATOM     27  C   UNL     1      38.169 -24.765 -12.816  0.00  0.00    +0.021 C 
ATOM     28  C   UNL     1      37.652 -26.035 -12.585  0.00  0.00    -0.001 C 
ATOM     29  C   UNL     1      38.279 -24.270 -14.110  0.00  0.00    -0.001 C 
ATOM     30  C   UNL     1      37.240 -26.820 -13.662  0.00  0.00    -0.000 C 
ATOM     31  C   UNL     1      37.868 -25.055 -15.188  0.00  0.00    -0.000 C 
ATOM     32  C   UNL     1      37.349 -26.330 -14.963  0.00  0.00    -0.000 C 
ENDBRANCH  26  27
ENDBRANCH  25  26
ENDBRANCH  23  25
ENDBRANCH  20  22
ENDBRANCH   6  20
TORSDOF 5
ENDMDL
MODEL 9
REMARK VINA RESULT:     -10.1      3.318      5.912
REMARK  Name = 28693
REMARK  5 active torsions:
REMARK  status: ('A' for Active; 'I' for Inactive)
REMARK    1  A    between atoms: C_6  and  C_20
REMARK    2  A    between atoms: C_20  and  N_22
REMARK    3  A    between atoms: C_23  and  O_25
REMARK    4  A    between atoms: O_25  and  C_26
REMARK    5  A    between atoms: C_26  and  C_27
REMARK                            x       y       z     vdW  Elec       q    Type
REMARK                         _______ _______ _______ _____ _____    ______ ____
ROOT
ATOM      1  N   UNL     1      34.978 -18.649 -23.284  0.00  0.00    +0.387 N 
ATOM      2  N   UNL     1      33.448 -12.825 -23.328  0.00  0.00    -0.284 N 
ATOM      3  C   UNL     1      34.081 -17.079 -21.534  0.00  0.00    +0.004 C 
ATOM      4  C   UNL     1      34.257 -17.367 -23.089  0.00  0.00    -0.050 C 
ATOM      5  C   UNL     1      33.355 -18.251 -20.859  0.00  0.00    +0.002 C 
ATOM      6  C   UNL     1      34.071 -19.570 -21.155  0.00  0.00    -0.001 C 
ATOM      7  C   UNL     1      34.951 -16.168 -23.843  0.00  0.00    +0.007 C 
ATOM      8  C   UNL     1      34.245 -19.767 -22.665  0.00  0.00    -0.076 C 
ATOM      9  C   UNL     1      33.404 -15.739 -21.298  0.00  0.00    -0.024 C 
ATOM     10  C   UNL     1      33.587 -14.758 -22.281  0.00  0.00    +0.007 C 
ATOM     11  C   UNL     1      34.292 -14.877 -23.495  0.00  0.00    -0.008 C 
ATOM     12  C   UNL     1      33.064 -13.483 -22.180  0.00  0.00    +0.051 C 
ATOM     13  C   UNL     1      35.214 -18.961 -24.697  0.00  0.00    -0.101 C 
ATOM     14  C   UNL     1      32.676 -15.347 -20.167  0.00  0.00    -0.004 C 
ATOM     15  C   UNL     1      34.197 -13.661 -24.131  0.00  0.00    +0.061 C 
ATOM     16  C   UNL     1      32.318 -13.090 -21.069  0.00  0.00    +0.015 C 
ATOM     17  C   UNL     1      32.140 -14.053 -20.062  0.00  0.00    +0.001 C 
ATOM     18  C   UNL     1      33.125 -11.454 -23.657  0.00  0.00    +0.117 C 
ATOM     19  H   UNL     1      35.884 -18.530 -22.831  0.00  0.00    -0.080 HD
ENDROOT
BRANCH   6  20
ATOM     20  C   UNL     1      33.307 -20.744 -20.542  0.00  0.00    +0.091 C 
BRANCH  20  22
ATOM     21  O   UNL     1      33.920 -23.427 -19.609  0.00  0.00    -0.226 OA
ATOM     22  N   UNL     1      33.877 -21.128 -19.287  0.00  0.00    -0.271 N 
ATOM     23  C   UNL     1      34.140 -22.438 -18.917  0.00  0.00    +0.402 C 
ATOM     24  H   UNL     1      34.098 -20.415 -18.645  0.00  0.00    +0.153 HD
BRANCH  23  25
ATOM     25  O   UNL     1      34.682 -22.474 -17.664  0.00  0.00    -0.430 OA
BRANCH  25  26
ATOM     26  C   UNL     1      34.347 -23.619 -16.871  0.00  0.00    +0.237 C 
BRANCH  26  27
ATOM     27  C   UNL     1      33.079 -23.340 -16.119  0.00  0.00    +0.021 C 
ATOM     28  C   UNL     1      33.095 -23.314 -14.729  0.00  0.00    -0.001 C 
ATOM     29  C   UNL     1      31.901 -23.108 -16.818  0.00  0.00    -0.001 C 
ATOM     30  C   UNL     1      31.917 -23.054 -14.029  0.00  0.00    -0.000 C 
ATOM     31  C   UNL     1      30.722 -22.849 -16.119  0.00  0.00    -0.000 C 
ATOM     32  C   UNL     1      30.730 -22.822 -14.725  0.00  0.00    -0.000 C 
ENDBRANCH  26  27
ENDBRANCH  25  26
ENDBRANCH  23  25
ENDBRANCH  20  22
ENDBRANCH   6  20
TORSDOF 5
ENDMDL
