MODEL 1
REMARK VINA RESULT:      -6.9      0.000      0.000
REMARK  Name = 448820
REMARK  6 active torsions:
REMARK  status: ('A' for Active; 'I' for Inactive)
REMARK    1  A    between atoms: C2*_2  and  O2*_14
REMARK    2  A    between atoms: C3*_3  and  O3*_16
REMARK    3  A    between atoms: C1*_4  and  N_6
REMARK    4  A    between atoms: C4*_5  and  C5*_18
REMARK    5  A    between atoms: C_8  and  N_11
REMARK    6  A    between atoms: C5*_18  and  O5*_19
REMARK                            x       y       z     vdW  Elec       q    Type
REMARK                         _______ _______ _______ _____ _____    ______ ____
ROOT
ATOM      1  O4* UNL     1      38.162 -24.131 -13.878  0.00  0.00    -0.333 OA
ATOM      2  C2* UNL     1      36.946 -25.826 -14.999  0.00  0.00    +0.187 C 
ATOM      3  C3* UNL     1      37.783 -26.482 -13.918  0.00  0.00    +0.171 C 
ATOM      4  C1* UNL     1      36.894 -24.387 -14.511  0.00  0.00    +0.228 C 
ATOM      5  C4* UNL     1      38.805 -25.397 -13.596  0.00  0.00    +0.175 C 
ENDROOT
BRANCH   4   6
ATOM      6  N   UNL     1      36.664 -23.407 -15.570  0.00  0.00    -0.233 N 
ATOM      7  N   UNL     1      37.128 -21.841 -17.080  0.00  0.00    -0.223 NA
ATOM      8  C   UNL     1      35.472 -23.085 -16.160  0.00  0.00    +0.120 C 
ATOM      9  C   UNL     1      37.629 -22.631 -16.157  0.00  0.00    +0.170 C 
ATOM     10  C   UNL     1      35.784 -22.118 -17.086  0.00  0.00    +0.130 C 
BRANCH   8  11
ATOM     11  N   UNL     1      34.313 -23.674 -15.807  0.00  0.00    -0.344 N 
ATOM     12  H   UNL     1      33.859 -23.409 -14.974  0.00  0.00    +0.144 HD
ATOM     13  H   UNL     1      33.919 -24.370 -16.381  0.00  0.00    +0.144 HD
ENDBRANCH   8  11
ENDBRANCH   4   6
BRANCH   2  14
ATOM     14  O2* UNL     1      35.655 -26.390 -15.118  0.00  0.00    -0.378 OA
ATOM     15  H2* UNL     1      35.683 -27.321 -14.845  0.00  0.00    +0.211 HD
ENDBRANCH   2  14
BRANCH   3  16
ATOM     16  O3* UNL     1      36.974 -26.710 -12.763  0.00  0.00    -0.379 OA
ATOM     17  H3* UNL     1      36.407 -27.482 -12.913  0.00  0.00    +0.211 HD
ENDBRANCH   3  16
BRANCH   5  18
ATOM     18  C5* UNL     1      40.063 -25.495 -14.447  0.00  0.00    +0.169 C 
BRANCH  18  19
ATOM     19  O5* UNL     1      40.891 -26.516 -13.916  0.00  0.00    -0.379 OA
ATOM     20  H5* UNL     1      41.666 -26.632 -14.487  0.00  0.00    +0.211 HD
ENDBRANCH  18  19
ENDBRANCH   5  18
TORSDOF 6
ENDMDL
MODEL 2
REMARK VINA RESULT:      -6.9      2.566      4.399
REMARK  Name = 448820
REMARK  6 active torsions:
REMARK  status: ('A' for Active; 'I' for Inactive)
REMARK    1  A    between atoms: C2*_2  and  O2*_14
REMARK    2  A    between atoms: C3*_3  and  O3*_16
REMARK    3  A    between atoms: C1*_4  and  N_6
REMARK    4  A    between atoms: C4*_5  and  C5*_18
REMARK    5  A    between atoms: C_8  and  N_11
REMARK    6  A    between atoms: C5*_18  and  O5*_19
REMARK                            x       y       z     vdW  Elec       q    Type
REMARK                         _______ _______ _______ _____ _____    ______ ____
ROOT
ATOM      1  O4* UNL     1      36.781 -25.608 -12.790  0.00  0.00    -0.333 OA
ATOM      2  C2* UNL     1      37.664 -23.467 -12.296  0.00  0.00    +0.187 C 
ATOM      3  C3* UNL     1      36.321 -23.595 -11.604  0.00  0.00    +0.171 C 
ATOM      4  C1* UNL     1      38.023 -24.926 -12.533  0.00  0.00    +0.228 C 
ATOM      5  C4* UNL     1      35.689 -24.773 -12.338  0.00  0.00    +0.175 C 
ENDROOT
BRANCH   4   6
ATOM      6  N   UNL     1      38.943 -25.139 -13.648  0.00  0.00    -0.233 N 
ATOM      7  N   UNL     1      40.782 -25.779 -14.724  0.00  0.00    -0.223 NA
ATOM      8  C   UNL     1      38.749 -24.805 -14.961  0.00  0.00    +0.120 C 
ATOM      9  C   UNL     1      40.180 -25.721 -13.557  0.00  0.00    +0.170 C 
ATOM     10  C   UNL     1      39.896 -25.209 -15.603  0.00  0.00    +0.130 C 
BRANCH   8  11
ATOM     11  N   UNL     1      37.621 -24.208 -15.392  0.00  0.00    -0.344 N 
ATOM     12  H   UNL     1      37.299 -24.367 -16.309  0.00  0.00    +0.144 HD
ATOM     13  H   UNL     1      37.118 -23.612 -14.791  0.00  0.00    +0.144 HD
ENDBRANCH   8  11
ENDBRANCH   4   6
BRANCH   2  14
ATOM     14  O2* UNL     1      38.633 -22.807 -11.506  0.00  0.00    -0.378 OA
ATOM     15  H2* UNL     1      38.621 -23.172 -10.607  0.00  0.00    +0.211 HD
ENDBRANCH   2  14
BRANCH   3  16
ATOM     16  O3* UNL     1      36.523 -23.959 -10.238  0.00  0.00    -0.379 OA
ATOM     17  H3* UNL     1      35.810 -24.551  -9.952  0.00  0.00    +0.211 HD
ENDBRANCH   3  16
BRANCH   5  18
ATOM     18  C5* UNL     1      34.876 -24.348 -13.553  0.00  0.00    +0.169 C 
BRANCH  18  19
ATOM     19  O5* UNL     1      35.012 -25.338 -14.558  0.00  0.00    -0.379 OA
ATOM     20  H5* UNL     1      35.173 -26.199 -14.143  0.00  0.00    +0.211 HD
ENDBRANCH  18  19
ENDBRANCH   5  18
TORSDOF 6
ENDMDL
MODEL 3
REMARK VINA RESULT:      -6.6      2.040      2.277
REMARK  Name = 448820
REMARK  6 active torsions:
REMARK  status: ('A' for Active; 'I' for Inactive)
REMARK    1  A    between atoms: C2*_2  and  O2*_14
REMARK    2  A    between atoms: C3*_3  and  O3*_16
REMARK    3  A    between atoms: C1*_4  and  N_6
REMARK    4  A    between atoms: C4*_5  and  C5*_18
REMARK    5  A    between atoms: C_8  and  N_11
REMARK    6  A    between atoms: C5*_18  and  O5*_19
REMARK                            x       y       z     vdW  Elec       q    Type
REMARK                         _______ _______ _______ _____ _____    ______ ____
ROOT
ATOM      1  O4* UNL     1      37.550 -23.235 -13.364  0.00  0.00    -0.333 OA
ATOM      2  C2* UNL     1      35.933 -24.817 -12.664  0.00  0.00    +0.187 C 
ATOM      3  C3* UNL     1      37.103 -24.878 -11.701  0.00  0.00    +0.171 C 
ATOM      4  C1* UNL     1      36.128 -23.444 -13.289  0.00  0.00    +0.228 C 
ATOM      5  C4* UNL     1      38.207 -24.179 -12.485  0.00  0.00    +0.175 C 
ENDROOT
BRANCH   4   6
ATOM      6  N   UNL     1      35.537 -23.307 -14.618  0.00  0.00    -0.233 N 
ATOM      7  N   UNL     1      35.439 -23.100 -16.831  0.00  0.00    -0.223 NA
ATOM      8  C   UNL     1      34.207 -23.243 -14.933  0.00  0.00    +0.120 C 
ATOM      9  C   UNL     1      36.236 -23.216 -15.792  0.00  0.00    +0.170 C 
ATOM     10  C   UNL     1      34.173 -23.115 -16.302  0.00  0.00    +0.130 C 
BRANCH   8  11
ATOM     11  N   UNL     1      33.241 -23.305 -13.996  0.00  0.00    -0.344 N 
ATOM     12  H   UNL     1      33.175 -22.602 -13.309  0.00  0.00    +0.144 HD
ATOM     13  H   UNL     1      32.601 -24.053 -13.997  0.00  0.00    +0.144 HD
ENDBRANCH   8  11
ENDBRANCH   4   6
BRANCH   2  14
ATOM     14  O2* UNL     1      34.680 -24.932 -12.020  0.00  0.00    -0.378 OA
ATOM     15  H2* UNL     1      34.067 -25.420 -12.592  0.00  0.00    +0.211 HD
ENDBRANCH   2  14
BRANCH   3  16
ATOM     16  O3* UNL     1      36.802 -24.104 -10.538  0.00  0.00    -0.379 OA
ATOM     17  H3* UNL     1      35.843 -24.096 -10.395  0.00  0.00    +0.211 HD
ENDBRANCH   3  16
BRANCH   5  18
ATOM     18  C5* UNL     1      39.028 -25.137 -13.338  0.00  0.00    +0.169 C 
BRANCH  18  19
ATOM     19  O5* UNL     1      39.301 -24.516 -14.582  0.00  0.00    -0.379 OA
ATOM     20  H5* UNL     1      38.612 -23.861 -14.774  0.00  0.00    +0.211 HD
ENDBRANCH  18  19
ENDBRANCH   5  18
TORSDOF 6
ENDMDL
MODEL 4
REMARK VINA RESULT:      -6.6     11.018     12.746
REMARK  Name = 448820
REMARK  6 active torsions:
REMARK  status: ('A' for Active; 'I' for Inactive)
REMARK    1  A    between atoms: C2*_2  and  O2*_14
REMARK    2  A    between atoms: C3*_3  and  O3*_16
REMARK    3  A    between atoms: C1*_4  and  N_6
REMARK    4  A    between atoms: C4*_5  and  C5*_18
REMARK    5  A    between atoms: C_8  and  N_11
REMARK    6  A    between atoms: C5*_18  and  O5*_19
REMARK                            x       y       z     vdW  Elec       q    Type
REMARK                         _______ _______ _______ _____ _____    ______ ____
ROOT
ATOM      1  O4* UNL     1      35.392 -16.356 -23.038  0.00  0.00    -0.333 OA
ATOM      2  C2* UNL     1      33.400 -15.626 -21.987  0.00  0.00    +0.187 C 
ATOM      3  C3* UNL     1      34.233 -16.365 -20.958  0.00  0.00    +0.171 C 
ATOM      4  C1* UNL     1      34.450 -15.267 -23.026  0.00  0.00    +0.228 C 
ATOM      5  C4* UNL     1      35.219 -17.135 -21.831  0.00  0.00    +0.175 C 
ENDROOT
BRANCH   4   6
ATOM      6  N   UNL     1      33.913 -15.064 -24.370  0.00  0.00    -0.233 N 
ATOM      7  N   UNL     1      33.348 -15.537 -26.469  0.00  0.00    -0.223 NA
ATOM      8  C   UNL     1      33.343 -13.927 -24.873  0.00  0.00    +0.120 C 
ATOM      9  C   UNL     1      33.893 -16.003 -25.367  0.00  0.00    +0.170 C 
ATOM     10  C   UNL     1      33.004 -14.243 -26.168  0.00  0.00    +0.130 C 
BRANCH   8  11
ATOM     11  N   UNL     1      33.207 -12.804 -24.140  0.00  0.00    -0.344 N 
ATOM     12  H   UNL     1      33.369 -12.828 -23.169  0.00  0.00    +0.144 HD
ATOM     13  H   UNL     1      32.946 -11.961 -24.575  0.00  0.00    +0.144 HD
ENDBRANCH   8  11
ENDBRANCH   4   6
BRANCH   2  14
ATOM     14  O2* UNL     1      32.763 -14.479 -21.461  0.00  0.00    -0.378 OA
ATOM     15  H2* UNL     1      31.963 -14.745 -20.980  0.00  0.00    +0.211 HD
ENDBRANCH   2  14
BRANCH   3  16
ATOM     16  O3* UNL     1      34.958 -15.423 -20.167  0.00  0.00    -0.379 OA
ATOM     17  H3* UNL     1      34.903 -15.675 -19.232  0.00  0.00    +0.211 HD
ENDBRANCH   3  16
BRANCH   5  18
ATOM     18  C5* UNL     1      34.712 -18.517 -22.221  0.00  0.00    +0.169 C 
BRANCH  18  19
ATOM     19  O5* UNL     1      35.150 -18.805 -23.538  0.00  0.00    -0.379 OA
ATOM     20  H5* UNL     1      34.818 -18.126 -24.144  0.00  0.00    +0.211 HD
ENDBRANCH  18  19
ENDBRANCH   5  18
TORSDOF 6
ENDMDL
MODEL 5
REMARK VINA RESULT:      -6.6      8.014     10.534
REMARK  Name = 448820
REMARK  6 active torsions:
REMARK  status: ('A' for Active; 'I' for Inactive)
REMARK    1  A    between atoms: C2*_2  and  O2*_14
REMARK    2  A    between atoms: C3*_3  and  O3*_16
REMARK    3  A    between atoms: C1*_4  and  N_6
REMARK    4  A    between atoms: C4*_5  and  C5*_18
REMARK    5  A    between atoms: C_8  and  N_11
REMARK    6  A    between atoms: C5*_18  and  O5*_19
REMARK                            x       y       z     vdW  Elec       q    Type
REMARK                         _______ _______ _______ _____ _____    ______ ____
ROOT
ATOM      1  O4* UNL     1      34.950 -17.280 -20.628  0.00  0.00    -0.333 OA
ATOM      2  C2* UNL     1      34.262 -18.072 -22.751  0.00  0.00    +0.187 C 
ATOM      3  C3* UNL     1      34.582 -16.595 -22.878  0.00  0.00    +0.171 C 
ATOM      4  C1* UNL     1      35.017 -18.437 -21.482  0.00  0.00    +0.228 C 
ATOM      5  C4* UNL     1      34.570 -16.133 -21.425  0.00  0.00    +0.175 C 
ENDROOT
BRANCH   4   6
ATOM      6  N   UNL     1      34.477 -19.600 -20.782  0.00  0.00    -0.233 N 
ATOM      7  N   UNL     1      32.965 -21.048 -20.029  0.00  0.00    -0.223 NA
ATOM      8  C   UNL     1      35.172 -20.532 -20.061  0.00  0.00    +0.120 C 
ATOM      9  C   UNL     1      33.154 -19.954 -20.732  0.00  0.00    +0.170 C 
ATOM     10  C   UNL     1      34.219 -21.413 -19.607  0.00  0.00    +0.130 C 
BRANCH   8  11
ATOM     11  N   UNL     1      36.510 -20.474 -19.910  0.00  0.00    -0.344 N 
ATOM     12  H   UNL     1      37.092 -20.400 -20.701  0.00  0.00    +0.144 HD
ATOM     13  H   UNL     1      36.906 -20.506 -19.010  0.00  0.00    +0.144 HD
ENDBRANCH   8  11
ENDBRANCH   4   6
BRANCH   2  14
ATOM     14  O2* UNL     1      34.697 -18.830 -23.861  0.00  0.00    -0.378 OA
ATOM     15  H2* UNL     1      34.198 -18.565 -24.650  0.00  0.00    +0.211 HD
ENDBRANCH   2  14
BRANCH   3  16
ATOM     16  O3* UNL     1      35.902 -16.438 -23.400  0.00  0.00    -0.379 OA
ATOM     17  H3* UNL     1      35.894 -16.601 -24.356  0.00  0.00    +0.211 HD
ENDBRANCH   3  16
BRANCH   5  18
ATOM     18  C5* UNL     1      33.198 -15.662 -20.963  0.00  0.00    +0.169 C 
BRANCH  18  19
ATOM     19  O5* UNL     1      32.578 -14.961 -22.028  0.00  0.00    -0.379 OA
ATOM     20  H5* UNL     1      31.667 -14.739 -21.780  0.00  0.00    +0.211 HD
ENDBRANCH  18  19
ENDBRANCH   5  18
TORSDOF 6
ENDMDL
MODEL 6
REMARK VINA RESULT:      -6.5      1.651      2.549
REMARK  Name = 448820
REMARK  6 active torsions:
REMARK  status: ('A' for Active; 'I' for Inactive)
REMARK    1  A    between atoms: C2*_2  and  O2*_14
REMARK    2  A    between atoms: C3*_3  and  O3*_16
REMARK    3  A    between atoms: C1*_4  and  N_6
REMARK    4  A    between atoms: C4*_5  and  C5*_18
REMARK    5  A    between atoms: C_8  and  N_11
REMARK    6  A    between atoms: C5*_18  and  O5*_19
REMARK                            x       y       z     vdW  Elec       q    Type
REMARK                         _______ _______ _______ _____ _____    ______ ____
ROOT
ATOM      1  O4* UNL     1      38.424 -23.909 -14.651  0.00  0.00    -0.333 OA
ATOM      2  C2* UNL     1      36.687 -23.943 -13.042  0.00  0.00    +0.187 C 
ATOM      3  C3* UNL     1      37.957 -24.433 -12.376  0.00  0.00    +0.171 C 
ATOM      4  C1* UNL     1      37.244 -23.192 -14.241  0.00  0.00    +0.228 C 
ATOM      5  C4* UNL     1      38.838 -24.779 -13.571  0.00  0.00    +0.175 C 
ENDROOT
BRANCH   4   6
ATOM      6  N   UNL     1      36.314 -23.089 -15.364  0.00  0.00    -0.233 N 
ATOM      7  N   UNL     1      34.555 -23.547 -16.646  0.00  0.00    -0.223 NA
ATOM      8  C   UNL     1      36.378 -22.220 -16.418  0.00  0.00    +0.120 C 
ATOM      9  C   UNL     1      35.201 -23.867 -15.546  0.00  0.00    +0.170 C 
ATOM     10  C   UNL     1      35.284 -22.522 -17.194  0.00  0.00    +0.130 C 
BRANCH   8  11
ATOM     11  N   UNL     1      37.364 -21.310 -16.542  0.00  0.00    -0.344 N 
ATOM     12  H   UNL     1      38.257 -21.498 -16.172  0.00  0.00    +0.144 HD
ATOM     13  H   UNL     1      37.193 -20.457 -17.002  0.00  0.00    +0.144 HD
ENDBRANCH   8  11
ENDBRANCH   4   6
BRANCH   2  14
ATOM     14  O2* UNL     1      35.912 -23.105 -12.207  0.00  0.00    -0.378 OA
ATOM     15  H2* UNL     1      36.388 -22.946 -11.377  0.00  0.00    +0.211 HD
ENDBRANCH   2  14
BRANCH   3  16
ATOM     16  O3* UNL     1      38.561 -23.359 -11.654  0.00  0.00    -0.379 OA
ATOM     17  H3* UNL     1      39.452 -23.198 -12.000  0.00  0.00    +0.211 HD
ENDBRANCH   3  16
BRANCH   5  18
ATOM     18  C5* UNL     1      38.677 -26.222 -14.030  0.00  0.00    +0.169 C 
BRANCH  18  19
ATOM     19  O5* UNL     1      38.413 -26.228 -15.422  0.00  0.00    -0.379 OA
ATOM     20  H5* UNL     1      38.381 -25.316 -15.748  0.00  0.00    +0.211 HD
ENDBRANCH  18  19
ENDBRANCH   5  18
TORSDOF 6
ENDMDL
MODEL 7
REMARK VINA RESULT:      -6.5      1.790      3.075
REMARK  Name = 448820
REMARK  6 active torsions:
REMARK  status: ('A' for Active; 'I' for Inactive)
REMARK    1  A    between atoms: C2*_2  and  O2*_14
REMARK    2  A    between atoms: C3*_3  and  O3*_16
REMARK    3  A    between atoms: C1*_4  and  N_6
REMARK    4  A    between atoms: C4*_5  and  C5*_18
REMARK    5  A    between atoms: C_8  and  N_11
REMARK    6  A    between atoms: C5*_18  and  O5*_19
REMARK                            x       y       z     vdW  Elec       q    Type
REMARK                         _______ _______ _______ _____ _____    ______ ____
ROOT
ATOM      1  O4* UNL     1      36.753 -26.035 -14.381  0.00  0.00    -0.333 OA
ATOM      2  C2* UNL     1      37.783 -23.970 -14.913  0.00  0.00    +0.187 C 
ATOM      3  C3* UNL     1      38.869 -24.950 -14.517  0.00  0.00    +0.171 C 
ATOM      4  C1* UNL     1      36.642 -24.909 -15.272  0.00  0.00    +0.228 C 
ATOM      5  C4* UNL     1      38.078 -26.038 -13.797  0.00  0.00    +0.175 C 
ENDROOT
BRANCH   4   6
ATOM      6  N   UNL     1      35.315 -24.310 -15.148  0.00  0.00    -0.233 N 
ATOM      7  N   UNL     1      33.450 -23.261 -15.756  0.00  0.00    -0.223 NA
ATOM      8  C   UNL     1      34.539 -24.237 -14.023  0.00  0.00    +0.120 C 
ATOM      9  C   UNL     1      34.617 -23.710 -16.162  0.00  0.00    +0.170 C 
ATOM     10  C   UNL     1      33.396 -23.586 -14.424  0.00  0.00    +0.130 C 
BRANCH   8  11
ATOM     11  N   UNL     1      34.939 -24.740 -12.839  0.00  0.00    -0.344 N 
ATOM     12  H   UNL     1      35.659 -25.411 -12.806  0.00  0.00    +0.144 HD
ATOM     13  H   UNL     1      34.511 -24.437 -12.006  0.00  0.00    +0.144 HD
ENDBRANCH   8  11
ENDBRANCH   4   6
BRANCH   2  14
ATOM     14  O2* UNL     1      38.151 -23.146 -16.001  0.00  0.00    -0.378 OA
ATOM     15  H2* UNL     1      38.615 -23.678 -16.667  0.00  0.00    +0.211 HD
ENDBRANCH   2  14
BRANCH   3  16
ATOM     16  O3* UNL     1      39.456 -25.510 -15.692  0.00  0.00    -0.379 OA
ATOM     17  H3* UNL     1      38.805 -25.511 -16.410  0.00  0.00    +0.211 HD
ENDBRANCH   3  16
BRANCH   5  18
ATOM     18  C5* UNL     1      37.944 -25.783 -12.302  0.00  0.00    +0.169 C 
BRANCH  18  19
ATOM     19  O5* UNL     1      36.849 -26.537 -11.810  0.00  0.00    -0.379 OA
ATOM     20  H5* UNL     1      36.067 -26.365 -12.357  0.00  0.00    +0.211 HD
ENDBRANCH  18  19
ENDBRANCH   5  18
TORSDOF 6
ENDMDL
MODEL 8
REMARK VINA RESULT:      -6.5      2.450      3.621
REMARK  Name = 448820
REMARK  6 active torsions:
REMARK  status: ('A' for Active; 'I' for Inactive)
REMARK    1  A    between atoms: C2*_2  and  O2*_14
REMARK    2  A    between atoms: C3*_3  and  O3*_16
REMARK    3  A    between atoms: C1*_4  and  N_6
REMARK    4  A    between atoms: C4*_5  and  C5*_18
REMARK    5  A    between atoms: C_8  and  N_11
REMARK    6  A    between atoms: C5*_18  and  O5*_19
REMARK                            x       y       z     vdW  Elec       q    Type
REMARK                         _______ _______ _______ _____ _____    ______ ____
ROOT
ATOM      1  O4* UNL     1      35.971 -24.571 -15.708  0.00  0.00    -0.333 OA
ATOM      2  C2* UNL     1      35.659 -24.237 -13.385  0.00  0.00    +0.187 C 
ATOM      3  C3* UNL     1      37.086 -24.697 -13.609  0.00  0.00    +0.171 C 
ATOM      4  C1* UNL     1      35.285 -23.724 -14.767  0.00  0.00    +0.228 C 
ATOM      5  C4* UNL     1      37.022 -25.284 -15.014  0.00  0.00    +0.175 C 
ENDROOT
BRANCH   4   6
ATOM      6  N   UNL     1      33.850 -23.741 -15.041  0.00  0.00    -0.233 N 
ATOM      7  N   UNL     1      31.674 -24.021 -14.675  0.00  0.00    -0.223 NA
ATOM      8  C   UNL     1      33.224 -23.408 -16.211  0.00  0.00    +0.120 C 
ATOM      9  C   UNL     1      32.876 -24.103 -14.149  0.00  0.00    +0.170 C 
ATOM     10  C   UNL     1      31.884 -23.588 -15.960  0.00  0.00    +0.130 C 
BRANCH   8  11
ATOM     11  N   UNL     1      33.904 -23.003 -17.301  0.00  0.00    -0.344 N 
ATOM     12  H   UNL     1      34.846 -22.726 -17.220  0.00  0.00    +0.144 HD
ATOM     13  H   UNL     1      33.460 -22.983 -18.180  0.00  0.00    +0.144 HD
ENDBRANCH   8  11
ENDBRANCH   4   6
BRANCH   2  14
ATOM     14  O2* UNL     1      35.550 -23.229 -12.400  0.00  0.00    -0.378 OA
ATOM     15  H2* UNL     1      34.661 -22.842 -12.430  0.00  0.00    +0.211 HD
ENDBRANCH   2  14
BRANCH   3  16
ATOM     16  O3* UNL     1      37.954 -23.562 -13.623  0.00  0.00    -0.379 OA
ATOM     17  H3* UNL     1      38.687 -23.724 -14.236  0.00  0.00    +0.211 HD
ENDBRANCH   3  16
BRANCH   5  18
ATOM     18  C5* UNL     1      36.681 -26.768 -15.022  0.00  0.00    +0.169 C 
BRANCH  18  19
ATOM     19  O5* UNL     1      36.818 -27.257 -16.345  0.00  0.00    -0.379 OA
ATOM     20  H5* UNL     1      36.125 -26.874 -16.904  0.00  0.00    +0.211 HD
ENDBRANCH  18  19
ENDBRANCH   5  18
TORSDOF 6
ENDMDL
MODEL 9
REMARK VINA RESULT:      -6.4      2.342      3.469
REMARK  Name = 448820
REMARK  6 active torsions:
REMARK  status: ('A' for Active; 'I' for Inactive)
REMARK    1  A    between atoms: C2*_2  and  O2*_14
REMARK    2  A    between atoms: C3*_3  and  O3*_16
REMARK    3  A    between atoms: C1*_4  and  N_6
REMARK    4  A    between atoms: C4*_5  and  C5*_18
REMARK    5  A    between atoms: C_8  and  N_11
REMARK    6  A    between atoms: C5*_18  and  O5*_19
REMARK                            x       y       z     vdW  Elec       q    Type
REMARK                         _______ _______ _______ _____ _____    ______ ____
ROOT
ATOM      1  O4* UNL     1      36.422 -23.807 -15.845  0.00  0.00    -0.333 OA
ATOM      2  C2* UNL     1      34.242 -23.637 -14.937  0.00  0.00    +0.187 C 
ATOM      3  C3* UNL     1      35.140 -24.274 -13.894  0.00  0.00    +0.171 C 
ATOM      4  C1* UNL     1      35.260 -22.956 -15.839  0.00  0.00    +0.228 C 
ATOM      5  C4* UNL     1      36.337 -24.720 -14.726  0.00  0.00    +0.175 C 
ENDROOT
BRANCH   4   6
ATOM      6  N   UNL     1      34.795 -22.744 -17.208  0.00  0.00    -0.233 N 
ATOM      7  N   UNL     1      33.468 -22.870 -18.988  0.00  0.00    -0.223 NA
ATOM      8  C   UNL     1      35.430 -22.051 -18.202  0.00  0.00    +0.120 C 
ATOM      9  C   UNL     1      33.621 -23.218 -17.730  0.00  0.00    +0.170 C 
ATOM     10  C   UNL     1      34.592 -22.144 -19.289  0.00  0.00    +0.130 C 
BRANCH   8  11
ATOM     11  N   UNL     1      36.623 -21.453 -18.014  0.00  0.00    -0.344 N 
ATOM     12  H   UNL     1      37.436 -21.998 -17.911  0.00  0.00    +0.144 HD
ATOM     13  H   UNL     1      36.682 -20.472 -17.980  0.00  0.00    +0.144 HD
ENDBRANCH   8  11
ENDBRANCH   4   6
BRANCH   2  14
ATOM     14  O2* UNL     1      33.324 -22.713 -14.387  0.00  0.00    -0.378 OA
ATOM     15  H2* UNL     1      32.460 -23.142 -14.277  0.00  0.00    +0.211 HD
ENDBRANCH   2  14
BRANCH   3  16
ATOM     16  O3* UNL     1      35.570 -23.278 -12.965  0.00  0.00    -0.379 OA
ATOM     17  H3* UNL     1      35.927 -23.708 -12.173  0.00  0.00    +0.211 HD
ENDBRANCH   3  16
BRANCH   5  18
ATOM     18  C5* UNL     1      36.187 -26.134 -15.271  0.00  0.00    +0.169 C 
BRANCH  18  19
ATOM     19  O5* UNL     1      37.429 -26.543 -15.818  0.00  0.00    -0.379 OA
ATOM     20  H5* UNL     1      38.086 -26.613 -15.109  0.00  0.00    +0.211 HD
ENDBRANCH  18  19
ENDBRANCH   5  18
TORSDOF 6
ENDMDL
