MODEL 1
REMARK VINA RESULT:      -7.3      0.000      0.000
REMARK  Name = 36688409
REMARK  5 active torsions:
REMARK  status: ('A' for Active; 'I' for Inactive)
REMARK    1  A    between atoms: C_1  and  C_11
REMARK    2  A    between atoms: C_3  and  C_10
REMARK    3  A    between atoms: C_11  and  O_12
REMARK    4  A    between atoms: C_11  and  C_14
REMARK    5  A    between atoms: C_14  and  N_15
REMARK                            x       y       z     vdW  Elec       q    Type
REMARK                         _______ _______ _______ _____ _____    ______ ____
ROOT
ATOM      1  C   UNL     1      34.404 -21.239 -19.709  0.00  0.00    +0.002 C 
ATOM      2  C   UNL     1      35.365 -20.465 -20.358  0.00  0.00    +0.002 C 
ATOM      3  C   UNL     1      34.979 -19.349 -21.100  0.00  0.00    +0.071 C 
ATOM      4  C   UNL     1      33.055 -20.896 -19.802  0.00  0.00    -0.002 C 
ATOM      5  C   UNL     1      33.630 -19.006 -21.192  0.00  0.00    +0.004 C 
ATOM      6  C   UNL     1      32.668 -19.781 -20.543  0.00  0.00    -0.000 C 
ENDROOT
BRANCH   3  10
ATOM      7  F   UNL     1      35.826 -17.184 -21.598  0.00  0.00    -0.166 F 
ATOM      8  F   UNL     1      37.285 -18.781 -21.389  0.00  0.00    -0.166 F 
ATOM      9  F   UNL     1      36.023 -18.693 -23.150  0.00  0.00    -0.166 F 
ATOM     10  C   UNL     1      36.007 -18.522 -21.795  0.00  0.00    +0.419 C 
ENDBRANCH   3  10
BRANCH   1  11
ATOM     11  C   UNL     1      34.817 -22.433 -18.917  0.00  0.00    +0.111 C 
BRANCH  11  12
ATOM     12  O   UNL     1      35.990 -22.107 -18.158  0.00  0.00    -0.382 OA
ATOM     13  H   UNL     1      36.736 -22.640 -18.472  0.00  0.00    +0.211 HD
ENDBRANCH  11  12
BRANCH  11  14
ATOM     14  C   UNL     1      33.705 -22.914 -17.964  0.00  0.00    -0.052 C 
BRANCH  14  15
ATOM     15  N   UNL     1      34.222 -23.175 -16.623  0.00  0.00    +0.382 N 
ATOM     16  H   UNL     1      33.913 -22.437 -15.990  0.00  0.00    -0.089 HD
ATOM     17  H   UNL     1      35.241 -23.196 -16.649  0.00  0.00    -0.089 HD
ATOM     18  H   UNL     1      33.872 -24.074 -16.293  0.00  0.00    -0.089 HD
ENDBRANCH  14  15
ENDBRANCH  11  14
ENDBRANCH   1  11
TORSDOF 5
ENDMDL
MODEL 2
REMARK VINA RESULT:      -7.2      2.776      3.880
REMARK  Name = 36688409
REMARK  5 active torsions:
REMARK  status: ('A' for Active; 'I' for Inactive)
REMARK    1  A    between atoms: C_1  and  C_11
REMARK    2  A    between atoms: C_3  and  C_10
REMARK    3  A    between atoms: C_11  and  O_12
REMARK    4  A    between atoms: C_11  and  C_14
REMARK    5  A    between atoms: C_14  and  N_15
REMARK                            x       y       z     vdW  Elec       q    Type
REMARK                         _______ _______ _______ _____ _____    ______ ____
ROOT
ATOM      1  C   UNL     1      34.614 -18.900 -21.873  0.00  0.00    +0.002 C 
ATOM      2  C   UNL     1      34.394 -17.640 -21.319  0.00  0.00    +0.002 C 
ATOM      3  C   UNL     1      34.509 -16.499 -22.112  0.00  0.00    +0.071 C 
ATOM      4  C   UNL     1      34.950 -19.020 -23.221  0.00  0.00    -0.002 C 
ATOM      5  C   UNL     1      34.844 -16.619 -23.461  0.00  0.00    +0.004 C 
ATOM      6  C   UNL     1      35.065 -17.880 -24.016  0.00  0.00    -0.000 C 
ENDROOT
BRANCH   3  10
ATOM      7  F   UNL     1      34.750 -14.142 -22.307  0.00  0.00    -0.166 F 
ATOM      8  F   UNL     1      32.955 -14.864 -21.315  0.00  0.00    -0.166 F 
ATOM      9  F   UNL     1      34.869 -14.977 -20.302  0.00  0.00    -0.166 F 
ATOM     10  C   UNL     1      34.274 -15.151 -21.520  0.00  0.00    +0.419 C 
ENDBRANCH   3  10
BRANCH   1  11
ATOM     11  C   UNL     1      34.492 -20.121 -21.024  0.00  0.00    +0.111 C 
BRANCH  11  12
ATOM     12  O   UNL     1      35.508 -20.089 -20.011  0.00  0.00    -0.382 OA
ATOM     13  H   UNL     1      35.889 -19.199 -19.964  0.00  0.00    +0.211 HD
ENDBRANCH  11  12
BRANCH  11  14
ATOM     14  C   UNL     1      33.106 -20.232 -20.359  0.00  0.00    -0.052 C 
BRANCH  14  15
ATOM     15  N   UNL     1      32.838 -21.593 -19.901  0.00  0.00    +0.382 N 
ATOM     16  H   UNL     1      32.661 -22.194 -20.706  0.00  0.00    -0.089 HD
ATOM     17  H   UNL     1      32.019 -21.592 -19.292  0.00  0.00    -0.089 HD
ATOM     18  H   UNL     1      33.645 -21.943 -19.385  0.00  0.00    -0.089 HD
ENDBRANCH  14  15
ENDBRANCH  11  14
ENDBRANCH   1  11
TORSDOF 5
ENDMDL
MODEL 3
REMARK VINA RESULT:      -7.1      5.170      6.597
REMARK  Name = 36688409
REMARK  5 active torsions:
REMARK  status: ('A' for Active; 'I' for Inactive)
REMARK    1  A    between atoms: C_1  and  C_11
REMARK    2  A    between atoms: C_3  and  C_10
REMARK    3  A    between atoms: C_11  and  O_12
REMARK    4  A    between atoms: C_11  and  C_14
REMARK    5  A    between atoms: C_14  and  N_15
REMARK                            x       y       z     vdW  Elec       q    Type
REMARK                         _______ _______ _______ _____ _____    ______ ____
ROOT
ATOM      1  C   UNL     1      34.457 -16.775 -24.519  0.00  0.00    +0.002 C 
ATOM      2  C   UNL     1      34.835 -16.894 -23.182  0.00  0.00    +0.002 C 
ATOM      3  C   UNL     1      35.062 -18.155 -22.631  0.00  0.00    +0.071 C 
ATOM      4  C   UNL     1      34.306 -17.918 -25.305  0.00  0.00    -0.002 C 
ATOM      5  C   UNL     1      34.910 -19.297 -23.416  0.00  0.00    +0.004 C 
ATOM      6  C   UNL     1      34.532 -19.178 -24.755  0.00  0.00    -0.000 C 
ENDROOT
BRANCH   3  10
ATOM      7  F   UNL     1      35.364 -17.104 -20.520  0.00  0.00    -0.166 F 
ATOM      8  F   UNL     1      34.710 -19.177 -20.496  0.00  0.00    -0.166 F 
ATOM      9  F   UNL     1      36.756 -18.694 -21.030  0.00  0.00    -0.166 F 
ATOM     10  C   UNL     1      35.465 -18.282 -21.201  0.00  0.00    +0.419 C 
ENDBRANCH   3  10
BRANCH   1  11
ATOM     11  C   UNL     1      34.213 -15.427 -25.109  0.00  0.00    +0.111 C 
BRANCH  11  12
ATOM     12  O   UNL     1      33.566 -15.583 -26.379  0.00  0.00    -0.382 OA
ATOM     13  H   UNL     1      32.699 -15.150 -26.355  0.00  0.00    +0.211 HD
ENDBRANCH  11  12
BRANCH  11  14
ATOM     14  C   UNL     1      33.346 -14.539 -24.195  0.00  0.00    -0.052 C 
BRANCH  14  15
ATOM     15  N   UNL     1      34.107 -13.413 -23.661  0.00  0.00    +0.382 N 
ATOM     16  H   UNL     1      33.740 -12.541 -24.046  0.00  0.00    -0.089 HD
ATOM     17  H   UNL     1      35.089 -13.511 -23.921  0.00  0.00    -0.089 HD
ATOM     18  H   UNL     1      34.024 -13.397 -22.645  0.00  0.00    -0.089 HD
ENDBRANCH  14  15
ENDBRANCH  11  14
ENDBRANCH   1  11
TORSDOF 5
ENDMDL
MODEL 4
REMARK VINA RESULT:      -7.0      3.973      5.085
REMARK  Name = 36688409
REMARK  5 active torsions:
REMARK  status: ('A' for Active; 'I' for Inactive)
REMARK    1  A    between atoms: C_1  and  C_11
REMARK    2  A    between atoms: C_3  and  C_10
REMARK    3  A    between atoms: C_11  and  O_12
REMARK    4  A    between atoms: C_11  and  C_14
REMARK    5  A    between atoms: C_14  and  N_15
REMARK                            x       y       z     vdW  Elec       q    Type
REMARK                         _______ _______ _______ _____ _____    ______ ____
ROOT
ATOM      1  C   UNL     1      34.855 -18.956 -21.642  0.00  0.00    +0.002 C 
ATOM      2  C   UNL     1      35.721 -19.717 -20.858  0.00  0.00    +0.002 C 
ATOM      3  C   UNL     1      35.209 -20.672 -19.980  0.00  0.00    +0.071 C 
ATOM      4  C   UNL     1      33.477 -19.150 -21.549  0.00  0.00    -0.002 C 
ATOM      5  C   UNL     1      33.832 -20.867 -19.887  0.00  0.00    +0.004 C 
ATOM      6  C   UNL     1      32.965 -20.105 -20.672  0.00  0.00    -0.000 C 
ENDROOT
BRANCH   3  10
ATOM      7  F   UNL     1      35.516 -22.554 -18.560  0.00  0.00    -0.166 F 
ATOM      8  F   UNL     1      37.191 -22.005 -19.833  0.00  0.00    -0.166 F 
ATOM      9  F   UNL     1      36.697 -20.785 -18.109  0.00  0.00    -0.166 F 
ATOM     10  C   UNL     1      36.135 -21.485 -19.140  0.00  0.00    +0.419 C 
ENDBRANCH   3  10
BRANCH   1  11
ATOM     11  C   UNL     1      35.401 -17.933 -22.581  0.00  0.00    +0.111 C 
BRANCH  11  12
ATOM     12  O   UNL     1      36.815 -18.134 -22.718  0.00  0.00    -0.382 OA
ATOM     13  H   UNL     1      36.989 -19.057 -22.957  0.00  0.00    +0.211 HD
ENDBRANCH  11  12
BRANCH  11  14
ATOM     14  C   UNL     1      34.735 -18.000 -23.969  0.00  0.00    -0.052 C 
BRANCH  14  15
ATOM     15  N   UNL     1      35.113 -16.862 -24.802  0.00  0.00    +0.382 N 
ATOM     16  H   UNL     1      34.688 -16.960 -25.725  0.00  0.00    -0.089 HD
ATOM     17  H   UNL     1      36.128 -16.832 -24.897  0.00  0.00    -0.089 HD
ATOM     18  H   UNL     1      34.786 -15.999 -24.368  0.00  0.00    -0.089 HD
ENDBRANCH  14  15
ENDBRANCH  11  14
ENDBRANCH   1  11
TORSDOF 5
ENDMDL
MODEL 5
REMARK VINA RESULT:      -7.0      4.267      5.486
REMARK  Name = 36688409
REMARK  5 active torsions:
REMARK  status: ('A' for Active; 'I' for Inactive)
REMARK    1  A    between atoms: C_1  and  C_11
REMARK    2  A    between atoms: C_3  and  C_10
REMARK    3  A    between atoms: C_11  and  O_12
REMARK    4  A    between atoms: C_11  and  C_14
REMARK    5  A    between atoms: C_14  and  N_15
REMARK                            x       y       z     vdW  Elec       q    Type
REMARK                         _______ _______ _______ _____ _____    ______ ____
ROOT
ATOM      1  C   UNL     1      35.096 -19.168 -21.173  0.00  0.00    +0.002 C 
ATOM      2  C   UNL     1      34.336 -20.140 -20.523  0.00  0.00    +0.002 C 
ATOM      3  C   UNL     1      34.961 -21.097 -19.724  0.00  0.00    +0.071 C 
ATOM      4  C   UNL     1      36.483 -19.152 -21.022  0.00  0.00    -0.002 C 
ATOM      5  C   UNL     1      36.347 -21.081 -19.574  0.00  0.00    +0.004 C 
ATOM      6  C   UNL     1      37.109 -20.108 -20.223  0.00  0.00    -0.000 C 
ENDROOT
BRANCH   3  10
ATOM      7  F   UNL     1      32.876 -21.719 -18.767  0.00  0.00    -0.166 F 
ATOM      8  F   UNL     1      34.012 -23.293 -19.746  0.00  0.00    -0.166 F 
ATOM      9  F   UNL     1      34.664 -22.522 -17.826  0.00  0.00    -0.166 F 
ATOM     10  C   UNL     1      34.148 -22.137 -19.031  0.00  0.00    +0.419 C 
ENDBRANCH   3  10
BRANCH   1  11
ATOM     11  C   UNL     1      34.428 -18.145 -22.028  0.00  0.00    +0.111 C 
BRANCH  11  12
ATOM     12  O   UNL     1      34.567 -16.857 -21.412  0.00  0.00    -0.382 OA
ATOM     13  H   UNL     1      34.332 -16.167 -22.050  0.00  0.00    +0.211 HD
ENDBRANCH  11  12
BRANCH  11  14
ATOM     14  C   UNL     1      35.017 -18.101 -23.452  0.00  0.00    -0.052 C 
BRANCH  14  15
ATOM     15  N   UNL     1      35.465 -16.756 -23.806  0.00  0.00    +0.382 N 
ATOM     16  H   UNL     1      35.646 -16.712 -24.809  0.00  0.00    -0.089 HD
ATOM     17  H   UNL     1      36.321 -16.537 -23.296  0.00  0.00    -0.089 HD
ATOM     18  H   UNL     1      34.741 -16.081 -23.561  0.00  0.00    -0.089 HD
ENDBRANCH  14  15
ENDBRANCH  11  14
ENDBRANCH   1  11
TORSDOF 5
ENDMDL
MODEL 6
REMARK VINA RESULT:      -7.0      1.537      2.446
REMARK  Name = 36688409
REMARK  5 active torsions:
REMARK  status: ('A' for Active; 'I' for Inactive)
REMARK    1  A    between atoms: C_1  and  C_11
REMARK    2  A    between atoms: C_3  and  C_10
REMARK    3  A    between atoms: C_11  and  O_12
REMARK    4  A    between atoms: C_11  and  C_14
REMARK    5  A    between atoms: C_14  and  N_15
REMARK                            x       y       z     vdW  Elec       q    Type
REMARK                         _______ _______ _______ _____ _____    ______ ____
ROOT
ATOM      1  C   UNL     1      34.644 -21.713 -19.425  0.00  0.00    +0.002 C 
ATOM      2  C   UNL     1      34.155 -20.677 -20.220  0.00  0.00    +0.002 C 
ATOM      3  C   UNL     1      35.030 -19.723 -20.738  0.00  0.00    +0.071 C 
ATOM      4  C   UNL     1      36.009 -21.795 -19.148  0.00  0.00    -0.002 C 
ATOM      5  C   UNL     1      36.395 -19.805 -20.462  0.00  0.00    +0.004 C 
ATOM      6  C   UNL     1      36.884 -20.842 -19.666  0.00  0.00    -0.000 C 
ENDROOT
BRANCH   3  10
ATOM      7  F   UNL     1      34.125 -19.038 -22.827  0.00  0.00    -0.166 F 
ATOM      8  F   UNL     1      33.413 -17.989 -21.061  0.00  0.00    -0.166 F 
ATOM      9  F   UNL     1      35.415 -17.616 -21.806  0.00  0.00    -0.166 F 
ATOM     10  C   UNL     1      34.507 -18.614 -21.588  0.00  0.00    +0.419 C 
ENDBRANCH   3  10
BRANCH   1  11
ATOM     11  C   UNL     1      33.708 -22.733 -18.869  0.00  0.00    +0.111 C 
BRANCH  11  12
ATOM     12  O   UNL     1      33.905 -23.974 -19.562  0.00  0.00    -0.382 OA
ATOM     13  H   UNL     1      34.441 -23.819 -20.354  0.00  0.00    +0.211 HD
ENDBRANCH  11  12
BRANCH  11  14
ATOM     14  C   UNL     1      33.913 -22.949 -17.357  0.00  0.00    -0.052 C 
BRANCH  14  15
ATOM     15  N   UNL     1      32.670 -23.340 -16.697  0.00  0.00    +0.382 N 
ATOM     16  H   UNL     1      32.851 -24.119 -16.063  0.00  0.00    -0.089 HD
ATOM     17  H   UNL     1      31.987 -23.626 -17.399  0.00  0.00    -0.089 HD
ATOM     18  H   UNL     1      32.303 -22.550 -16.168  0.00  0.00    -0.089 HD
ENDBRANCH  14  15
ENDBRANCH  11  14
ENDBRANCH   1  11
TORSDOF 5
ENDMDL
MODEL 7
REMARK VINA RESULT:      -6.9      4.252      5.548
REMARK  Name = 36688409
REMARK  5 active torsions:
REMARK  status: ('A' for Active; 'I' for Inactive)
REMARK    1  A    between atoms: C_1  and  C_11
REMARK    2  A    between atoms: C_3  and  C_10
REMARK    3  A    between atoms: C_11  and  O_12
REMARK    4  A    between atoms: C_11  and  C_14
REMARK    5  A    between atoms: C_14  and  N_15
REMARK                            x       y       z     vdW  Elec       q    Type
REMARK                         _______ _______ _______ _____ _____    ______ ____
ROOT
ATOM      1  C   UNL     1      34.986 -17.225 -22.780  0.00  0.00    +0.002 C 
ATOM      2  C   UNL     1      34.417 -15.954 -22.862  0.00  0.00    +0.002 C 
ATOM      3  C   UNL     1      33.916 -15.491 -24.078  0.00  0.00    +0.071 C 
ATOM      4  C   UNL     1      35.054 -18.033 -23.914  0.00  0.00    -0.002 C 
ATOM      5  C   UNL     1      33.984 -16.299 -25.213  0.00  0.00    +0.004 C 
ATOM      6  C   UNL     1      34.553 -17.571 -25.131  0.00  0.00    -0.000 C 
ENDROOT
BRANCH   3  10
ATOM      7  F   UNL     1      32.738 -13.890 -25.383  0.00  0.00    -0.166 F 
ATOM      8  F   UNL     1      32.322 -13.912 -23.249  0.00  0.00    -0.166 F 
ATOM      9  F   UNL     1      34.205 -13.118 -23.976  0.00  0.00    -0.166 F 
ATOM     10  C   UNL     1      33.309 -14.132 -24.167  0.00  0.00    +0.419 C 
ENDBRANCH   3  10
BRANCH   1  11
ATOM     11  C   UNL     1      35.523 -17.719 -21.479  0.00  0.00    +0.111 C 
BRANCH  11  12
ATOM     12  O   UNL     1      35.200 -16.773 -20.450  0.00  0.00    -0.382 OA
ATOM     13  H   UNL     1      34.395 -16.292 -20.696  0.00  0.00    +0.211 HD
ENDBRANCH  11  12
BRANCH  11  14
ATOM     14  C   UNL     1      34.957 -19.102 -21.103  0.00  0.00    -0.052 C 
BRANCH  14  15
ATOM     15  N   UNL     1      35.886 -19.853 -20.263  0.00  0.00    +0.382 N 
ATOM     16  H   UNL     1      35.987 -20.800 -20.629  0.00  0.00    -0.089 HD
ATOM     17  H   UNL     1      35.526 -19.895 -19.309  0.00  0.00    -0.089 HD
ATOM     18  H   UNL     1      36.795 -19.390 -20.263  0.00  0.00    -0.089 HD
ENDBRANCH  14  15
ENDBRANCH  11  14
ENDBRANCH   1  11
TORSDOF 5
ENDMDL
MODEL 8
REMARK VINA RESULT:      -6.9      5.655      6.961
REMARK  Name = 36688409
REMARK  5 active torsions:
REMARK  status: ('A' for Active; 'I' for Inactive)
REMARK    1  A    between atoms: C_1  and  C_11
REMARK    2  A    between atoms: C_3  and  C_10
REMARK    3  A    between atoms: C_11  and  O_12
REMARK    4  A    between atoms: C_11  and  C_14
REMARK    5  A    between atoms: C_14  and  N_15
REMARK                            x       y       z     vdW  Elec       q    Type
REMARK                         _______ _______ _______ _____ _____    ______ ____
ROOT
ATOM      1  C   UNL     1      33.937 -15.020 -22.920  0.00  0.00    +0.002 C 
ATOM      2  C   UNL     1      34.520 -16.250 -23.222  0.00  0.00    +0.002 C 
ATOM      3  C   UNL     1      35.028 -17.051 -22.200  0.00  0.00    +0.071 C 
ATOM      4  C   UNL     1      33.861 -14.591 -21.596  0.00  0.00    -0.002 C 
ATOM      5  C   UNL     1      34.951 -16.623 -20.875  0.00  0.00    +0.004 C 
ATOM      6  C   UNL     1      34.367 -15.391 -20.573  0.00  0.00    -0.000 C 
ENDROOT
BRANCH   3  10
ATOM      7  F   UNL     1      36.870 -18.529 -21.928  0.00  0.00    -0.166 F 
ATOM      8  F   UNL     1      34.906 -19.439 -22.127  0.00  0.00    -0.166 F 
ATOM      9  F   UNL     1      35.869 -18.557 -23.858  0.00  0.00    -0.166 F 
ATOM     10  C   UNL     1      35.653 -18.366 -22.523  0.00  0.00    +0.419 C 
ENDBRANCH   3  10
BRANCH   1  11
ATOM     11  C   UNL     1      33.395 -14.162 -24.014  0.00  0.00    +0.111 C 
BRANCH  11  12
ATOM     12  O   UNL     1      34.152 -12.945 -24.072  0.00  0.00    -0.382 OA
ATOM     13  H   UNL     1      33.588 -12.230 -24.404  0.00  0.00    +0.211 HD
ENDBRANCH  11  12
BRANCH  11  14
ATOM     14  C   UNL     1      33.444 -14.865 -25.385  0.00  0.00    -0.052 C 
BRANCH  14  15
ATOM     15  N   UNL     1      32.369 -14.409 -26.261  0.00  0.00    +0.382 N 
ATOM     16  H   UNL     1      31.796 -15.206 -26.541  0.00  0.00    -0.089 HD
ATOM     17  H   UNL     1      32.769 -13.971 -27.092  0.00  0.00    -0.089 HD
ATOM     18  H   UNL     1      31.790 -13.732 -25.766  0.00  0.00    -0.089 HD
ENDBRANCH  14  15
ENDBRANCH  11  14
ENDBRANCH   1  11
TORSDOF 5
ENDMDL
MODEL 9
REMARK VINA RESULT:      -6.9      1.750      2.057
REMARK  Name = 36688409
REMARK  5 active torsions:
REMARK  status: ('A' for Active; 'I' for Inactive)
REMARK    1  A    between atoms: C_1  and  C_11
REMARK    2  A    between atoms: C_3  and  C_10
REMARK    3  A    between atoms: C_11  and  O_12
REMARK    4  A    between atoms: C_11  and  C_14
REMARK    5  A    between atoms: C_14  and  N_15
REMARK                            x       y       z     vdW  Elec       q    Type
REMARK                         _______ _______ _______ _____ _____    ______ ____
ROOT
ATOM      1  C   UNL     1      35.702 -21.447 -18.712  0.00  0.00    +0.002 C 
ATOM      2  C   UNL     1      35.892 -20.538 -19.753  0.00  0.00    +0.002 C 
ATOM      3  C   UNL     1      34.842 -20.242 -20.621  0.00  0.00    +0.071 C 
ATOM      4  C   UNL     1      34.461 -22.059 -18.540  0.00  0.00    -0.002 C 
ATOM      5  C   UNL     1      33.601 -20.854 -20.448  0.00  0.00    +0.004 C 
ATOM      6  C   UNL     1      33.410 -21.763 -19.407  0.00  0.00    -0.000 C 
ENDROOT
BRANCH   3  10
ATOM      7  F   UNL     1      34.228 -18.182 -21.638  0.00  0.00    -0.166 F 
ATOM      8  F   UNL     1      36.314 -18.771 -21.801  0.00  0.00    -0.166 F 
ATOM      9  F   UNL     1      34.806 -19.799 -22.972  0.00  0.00    -0.166 F 
ATOM     10  C   UNL     1      35.045 -19.271 -21.735  0.00  0.00    +0.419 C 
ENDBRANCH   3  10
BRANCH   1  11
ATOM     11  C   UNL     1      36.826 -21.765 -17.785  0.00  0.00    +0.111 C 
BRANCH  11  12
ATOM     12  O   UNL     1      37.384 -20.540 -17.289  0.00  0.00    -0.382 OA
ATOM     13  H   UNL     1      36.980 -20.324 -16.435  0.00  0.00    +0.211 HD
ENDBRANCH  11  12
BRANCH  11  14
ATOM     14  C   UNL     1      36.373 -22.640 -16.600  0.00  0.00    -0.052 C 
BRANCH  14  15
ATOM     15  N   UNL     1      37.511 -23.250 -15.917  0.00  0.00    +0.382 N 
ATOM     16  H   UNL     1      37.234 -24.155 -15.536  0.00  0.00    -0.089 HD
ATOM     17  H   UNL     1      37.818 -22.642 -15.157  0.00  0.00    -0.089 HD
ATOM     18  H   UNL     1      38.276 -23.380 -16.579  0.00  0.00    -0.089 HD
ENDBRANCH  14  15
ENDBRANCH  11  14
ENDBRANCH   1  11
TORSDOF 5
ENDMDL
