MODEL 1
REMARK VINA RESULT:      -6.3      0.000      0.000
REMARK  Name = 23403
REMARK  16 active torsions:
REMARK  status: ('A' for Active; 'I' for Inactive)
REMARK    1  A    between atoms: C_1  and  C_2
REMARK    2  A    between atoms: C_1  and  C_12
REMARK    3  A    between atoms: C_2  and  C_3
REMARK    4  A    between atoms: C_3  and  C_4
REMARK    5  A    between atoms: C_5  and  C_6
REMARK    6  A    between atoms: C_6  and  S_7
REMARK    7  A    between atoms: S_7  and  C_8
REMARK    8  A    between atoms: C_8  and  C_9
REMARK    9  A    between atoms: C_9  and  O_10
REMARK   10  A    between atoms: C_12  and  C_13
REMARK   11  A    between atoms: C_13  and  C_14
REMARK   12  A    between atoms: C_14  and  C_15
REMARK   13  A    between atoms: C_15  and  S_16
REMARK   14  A    between atoms: S_16  and  C_17
REMARK   15  A    between atoms: C_17  and  C_18
REMARK   16  A    between atoms: C_18  and  O_19
REMARK                            x       y       z     vdW  Elec       q    Type
REMARK                         _______ _______ _______ _____ _____    ______ ____
ROOT
ATOM      1  C   UNL     1      35.122 -21.202 -19.830  0.00  0.00    +0.000 C 
ENDROOT
BRANCH   1   2
ATOM      2  C   UNL     1      34.894 -22.131 -18.635  0.00  0.00    +0.005 C 
BRANCH   2   3
ATOM      3  C   UNL     1      33.438 -22.598 -18.567  0.00  0.00    +0.026 C 
BRANCH   3   4
ATOM      4  C   UNL     1      33.054 -23.199 -17.211  0.00  0.00    -0.030 C 
ATOM      5  C   UNL     1      31.607 -22.962 -16.762  0.00  0.00    -0.019 C 
BRANCH   5   6
ATOM      6  C   UNL     1      31.198 -23.605 -15.437  0.00  0.00    +0.083 C 
BRANCH   6   7
ATOM      7  S   UNL     1      29.488 -24.218 -15.439  0.00  0.00    -0.133 S 
BRANCH   7   8
ATOM      8  C   UNL     1      28.646 -22.645 -15.726  0.00  0.00    +0.090 C 
BRANCH   8   9
ATOM      9  C   UNL     1      27.807 -22.687 -16.993  0.00  0.00    +0.149 C 
BRANCH   9  10
ATOM     10  O   UNL     1      27.798 -24.005 -17.528  0.00  0.00    -0.381 OA
ATOM     11  H   UNL     1      28.267 -24.012 -18.376  0.00  0.00    +0.210 HD
ENDBRANCH   9  10
ENDBRANCH   8   9
ENDBRANCH   7   8
ENDBRANCH   6   7
ENDBRANCH   5   6
ENDBRANCH   3   4
ENDBRANCH   2   3
ENDBRANCH   1   2
BRANCH   1  12
ATOM     12  C   UNL     1      33.841 -20.455 -20.206  0.00  0.00    +0.000 C 
BRANCH  12  13
ATOM     13  C   UNL     1      34.084 -19.477 -21.358  0.00  0.00    +0.001 C 
BRANCH  13  14
ATOM     14  C   UNL     1      35.552 -19.045 -21.418  0.00  0.00    +0.012 C 
BRANCH  14  15
ATOM     15  C   UNL     1      35.810 -17.881 -22.374  0.00  0.00    +0.058 C 
BRANCH  15  16
ATOM     16  S   UNL     1      34.828 -16.406 -21.971  0.00  0.00    -0.138 S 
BRANCH  16  17
ATOM     17  C   UNL     1      34.385 -15.919 -23.655  0.00  0.00    +0.089 C 
BRANCH  17  18
ATOM     18  C   UNL     1      34.751 -17.000 -24.660  0.00  0.00    +0.149 C 
BRANCH  18  19
ATOM     19  O   UNL     1      34.397 -16.584 -25.973  0.00  0.00    -0.381 OA
ATOM     20  H   UNL     1      33.651 -15.966 -25.926  0.00  0.00    +0.210 HD
ENDBRANCH  18  19
ENDBRANCH  17  18
ENDBRANCH  16  17
ENDBRANCH  15  16
ENDBRANCH  14  15
ENDBRANCH  13  14
ENDBRANCH  12  13
ENDBRANCH   1  12
TORSDOF 16
ENDMDL
MODEL 2
REMARK VINA RESULT:      -6.3      4.882      6.036
REMARK  Name = 23403
REMARK  16 active torsions:
REMARK  status: ('A' for Active; 'I' for Inactive)
REMARK    1  A    between atoms: C_1  and  C_2
REMARK    2  A    between atoms: C_1  and  C_12
REMARK    3  A    between atoms: C_2  and  C_3
REMARK    4  A    between atoms: C_3  and  C_4
REMARK    5  A    between atoms: C_5  and  C_6
REMARK    6  A    between atoms: C_6  and  S_7
REMARK    7  A    between atoms: S_7  and  C_8
REMARK    8  A    between atoms: C_8  and  C_9
REMARK    9  A    between atoms: C_9  and  O_10
REMARK   10  A    between atoms: C_12  and  C_13
REMARK   11  A    between atoms: C_13  and  C_14
REMARK   12  A    between atoms: C_14  and  C_15
REMARK   13  A    between atoms: C_15  and  S_16
REMARK   14  A    between atoms: S_16  and  C_17
REMARK   15  A    between atoms: C_17  and  C_18
REMARK   16  A    between atoms: C_18  and  O_19
REMARK                            x       y       z     vdW  Elec       q    Type
REMARK                         _______ _______ _______ _____ _____    ______ ____
ROOT
ATOM      1  C   UNL     1      34.936 -21.663 -19.605  0.00  0.00    +0.000 C 
ENDROOT
BRANCH   1   2
ATOM      2  C   UNL     1      35.360 -22.039 -18.183  0.00  0.00    +0.005 C 
BRANCH   2   3
ATOM      3  C   UNL     1      36.770 -21.531 -17.873  0.00  0.00    +0.026 C 
BRANCH   3   4
ATOM      4  C   UNL     1      37.276 -21.944 -16.488  0.00  0.00    -0.030 C 
ATOM      5  C   UNL     1      36.595 -23.170 -15.867  0.00  0.00    -0.019 C 
BRANCH   5   6
ATOM      6  C   UNL     1      37.130 -23.624 -14.509  0.00  0.00    +0.083 C 
BRANCH   6   7
ATOM      7  S   UNL     1      37.475 -25.406 -14.437  0.00  0.00    -0.133 S 
BRANCH   7   8
ATOM      8  C   UNL     1      39.110 -25.326 -13.672  0.00  0.00    +0.090 C 
BRANCH   8   9
ATOM      9  C   UNL     1      40.214 -25.507 -14.700  0.00  0.00    +0.149 C 
BRANCH   9  10
ATOM     10  O   UNL     1      41.105 -26.535 -14.284  0.00  0.00    -0.381 OA
ATOM     11  H   UNL     1      40.599 -27.253 -13.873  0.00  0.00    +0.210 HD
ENDBRANCH   9  10
ENDBRANCH   8   9
ENDBRANCH   7   8
ENDBRANCH   6   7
ENDBRANCH   5   6
ENDBRANCH   3   4
ENDBRANCH   2   3
ENDBRANCH   1   2
BRANCH   1  12
ATOM     12  C   UNL     1      33.454 -21.287 -19.662  0.00  0.00    +0.000 C 
BRANCH  12  13
ATOM     13  C   UNL     1      33.241 -19.976 -20.422  0.00  0.00    +0.001 C 
BRANCH  13  14
ATOM     14  C   UNL     1      34.533 -19.513 -21.102  0.00  0.00    +0.012 C 
BRANCH  14  15
ATOM     15  C   UNL     1      34.504 -18.049 -21.541  0.00  0.00    +0.058 C 
BRANCH  15  16
ATOM     16  S   UNL     1      35.095 -17.812 -23.242  0.00  0.00    -0.138 S 
BRANCH  16  17
ATOM     17  C   UNL     1      34.399 -16.169 -23.533  0.00  0.00    +0.089 C 
BRANCH  17  18
ATOM     18  C   UNL     1      34.000 -15.985 -24.989  0.00  0.00    +0.149 C 
BRANCH  18  19
ATOM     19  O   UNL     1      34.803 -16.811 -25.822  0.00  0.00    -0.381 OA
ATOM     20  H   UNL     1      34.493 -17.728 -25.763  0.00  0.00    +0.210 HD
ENDBRANCH  18  19
ENDBRANCH  17  18
ENDBRANCH  16  17
ENDBRANCH  15  16
ENDBRANCH  14  15
ENDBRANCH  13  14
ENDBRANCH  12  13
ENDBRANCH   1  12
TORSDOF 16
ENDMDL
MODEL 3
REMARK VINA RESULT:      -6.3      0.922      9.247
REMARK  Name = 23403
REMARK  16 active torsions:
REMARK  status: ('A' for Active; 'I' for Inactive)
REMARK    1  A    between atoms: C_1  and  C_2
REMARK    2  A    between atoms: C_1  and  C_12
REMARK    3  A    between atoms: C_2  and  C_3
REMARK    4  A    between atoms: C_3  and  C_4
REMARK    5  A    between atoms: C_5  and  C_6
REMARK    6  A    between atoms: C_6  and  S_7
REMARK    7  A    between atoms: S_7  and  C_8
REMARK    8  A    between atoms: C_8  and  C_9
REMARK    9  A    between atoms: C_9  and  O_10
REMARK   10  A    between atoms: C_12  and  C_13
REMARK   11  A    between atoms: C_13  and  C_14
REMARK   12  A    between atoms: C_14  and  C_15
REMARK   13  A    between atoms: C_15  and  S_16
REMARK   14  A    between atoms: S_16  and  C_17
REMARK   15  A    between atoms: C_17  and  C_18
REMARK   16  A    between atoms: C_18  and  O_19
REMARK                            x       y       z     vdW  Elec       q    Type
REMARK                         _______ _______ _______ _____ _____    ______ ____
ROOT
ATOM      1  C   UNL     1      33.599 -22.672 -18.524  0.00  0.00    +0.000 C 
ENDROOT
BRANCH   1   2
ATOM      2  C   UNL     1      34.287 -21.665 -19.450  0.00  0.00    +0.005 C 
BRANCH   2   3
ATOM      3  C   UNL     1      33.285 -20.650 -20.006  0.00  0.00    +0.026 C 
BRANCH   3   4
ATOM      4  C   UNL     1      33.911 -19.649 -20.982  0.00  0.00    -0.030 C 
ATOM      5  C   UNL     1      35.425 -19.443 -20.848  0.00  0.00    -0.019 C 
BRANCH   5   6
ATOM      6  C   UNL     1      36.068 -18.488 -21.853  0.00  0.00    +0.083 C 
BRANCH   6   7
ATOM      7  S   UNL     1      35.151 -18.374 -23.417  0.00  0.00    -0.133 S 
BRANCH   7   8
ATOM      8  C   UNL     1      34.859 -16.590 -23.419  0.00  0.00    +0.090 C 
BRANCH   8   9
ATOM      9  C   UNL     1      34.220 -16.134 -24.721  0.00  0.00    +0.149 C 
BRANCH   9  10
ATOM     10  O   UNL     1      34.765 -16.863 -25.814  0.00  0.00    -0.381 OA
ATOM     11  H   UNL     1      34.171 -16.792 -26.577  0.00  0.00    +0.210 HD
ENDBRANCH   9  10
ENDBRANCH   8   9
ENDBRANCH   7   8
ENDBRANCH   6   7
ENDBRANCH   5   6
ENDBRANCH   3   4
ENDBRANCH   2   3
ENDBRANCH   1   2
BRANCH   1  12
ATOM     12  C   UNL     1      34.348 -22.809 -17.198  0.00  0.00    +0.000 C 
BRANCH  12  13
ATOM     13  C   UNL     1      33.455 -23.418 -16.114  0.00  0.00    +0.001 C 
BRANCH  13  14
ATOM     14  C   UNL     1      31.975 -23.325 -16.498  0.00  0.00    +0.012 C 
BRANCH  14  15
ATOM     15  C   UNL     1      31.055 -23.004 -15.321  0.00  0.00    +0.058 C 
BRANCH  15  16
ATOM     16  S   UNL     1      29.443 -23.833 -15.440  0.00  0.00    -0.138 S 
BRANCH  16  17
ATOM     17  C   UNL     1      28.423 -22.377 -15.770  0.00  0.00    +0.089 C 
BRANCH  17  18
ATOM     18  C   UNL     1      27.555 -22.574 -17.002  0.00  0.00    +0.149 C 
BRANCH  18  19
ATOM     19  O   UNL     1      27.791 -23.859 -17.564  0.00  0.00    -0.381 OA
ATOM     20  H   UNL     1      28.635 -24.205 -17.235  0.00  0.00    +0.210 HD
ENDBRANCH  18  19
ENDBRANCH  17  18
ENDBRANCH  16  17
ENDBRANCH  15  16
ENDBRANCH  14  15
ENDBRANCH  13  14
ENDBRANCH  12  13
ENDBRANCH   1  12
TORSDOF 16
ENDMDL
MODEL 4
REMARK VINA RESULT:      -6.3      5.009      6.246
REMARK  Name = 23403
REMARK  16 active torsions:
REMARK  status: ('A' for Active; 'I' for Inactive)
REMARK    1  A    between atoms: C_1  and  C_2
REMARK    2  A    between atoms: C_1  and  C_12
REMARK    3  A    between atoms: C_2  and  C_3
REMARK    4  A    between atoms: C_3  and  C_4
REMARK    5  A    between atoms: C_5  and  C_6
REMARK    6  A    between atoms: C_6  and  S_7
REMARK    7  A    between atoms: S_7  and  C_8
REMARK    8  A    between atoms: C_8  and  C_9
REMARK    9  A    between atoms: C_9  and  O_10
REMARK   10  A    between atoms: C_12  and  C_13
REMARK   11  A    between atoms: C_13  and  C_14
REMARK   12  A    between atoms: C_14  and  C_15
REMARK   13  A    between atoms: C_15  and  S_16
REMARK   14  A    between atoms: S_16  and  C_17
REMARK   15  A    between atoms: C_17  and  C_18
REMARK   16  A    between atoms: C_18  and  O_19
REMARK                            x       y       z     vdW  Elec       q    Type
REMARK                         _______ _______ _______ _____ _____    ______ ____
ROOT
ATOM      1  C   UNL     1      34.940 -21.796 -19.479  0.00  0.00    +0.000 C 
ENDROOT
BRANCH   1   2
ATOM      2  C   UNL     1      35.413 -22.157 -18.069  0.00  0.00    +0.005 C 
BRANCH   2   3
ATOM      3  C   UNL     1      36.778 -21.536 -17.766  0.00  0.00    +0.026 C 
BRANCH   3   4
ATOM      4  C   UNL     1      37.410 -22.055 -16.470  0.00  0.00    -0.030 C 
ATOM      5  C   UNL     1      36.707 -23.252 -15.818  0.00  0.00    -0.019 C 
BRANCH   5   6
ATOM      6  C   UNL     1      37.361 -23.812 -14.555  0.00  0.00    +0.083 C 
BRANCH   6   7
ATOM      7  S   UNL     1      37.784 -25.574 -14.692  0.00  0.00    -0.133 S 
BRANCH   7   8
ATOM      8  C   UNL     1      39.334 -25.544 -13.763  0.00  0.00    +0.090 C 
BRANCH   8   9
ATOM      9  C   UNL     1      40.529 -25.348 -14.681  0.00  0.00    +0.149 C 
BRANCH   9  10
ATOM     10  O   UNL     1      40.269 -25.936 -15.950  0.00  0.00    -0.381 OA
ATOM     11  H   UNL     1      39.753 -25.318 -16.492  0.00  0.00    +0.210 HD
ENDBRANCH   9  10
ENDBRANCH   8   9
ENDBRANCH   7   8
ENDBRANCH   6   7
ENDBRANCH   5   6
ENDBRANCH   3   4
ENDBRANCH   2   3
ENDBRANCH   1   2
BRANCH   1  12
ATOM     12  C   UNL     1      33.478 -21.346 -19.478  0.00  0.00    +0.000 C 
BRANCH  12  13
ATOM     13  C   UNL     1      33.229 -20.259 -20.527  0.00  0.00    +0.001 C 
BRANCH  13  14
ATOM     14  C   UNL     1      34.546 -19.666 -21.033  0.00  0.00    +0.012 C 
BRANCH  14  15
ATOM     15  C   UNL     1      34.442 -19.040 -22.424  0.00  0.00    +0.058 C 
BRANCH  15  16
ATOM     16  S   UNL     1      35.415 -17.514 -22.585  0.00  0.00    -0.138 S 
BRANCH  16  17
ATOM     17  C   UNL     1      34.928 -16.728 -21.032  0.00  0.00    +0.089 C 
BRANCH  17  18
ATOM     18  C   UNL     1      34.358 -15.339 -21.268  0.00  0.00    +0.149 C 
BRANCH  18  19
ATOM     19  O   UNL     1      33.333 -15.065 -20.320  0.00  0.00    -0.381 OA
ATOM     20  H   UNL     1      32.466 -15.171 -20.743  0.00  0.00    +0.210 HD
ENDBRANCH  18  19
ENDBRANCH  17  18
ENDBRANCH  16  17
ENDBRANCH  15  16
ENDBRANCH  14  15
ENDBRANCH  13  14
ENDBRANCH  12  13
ENDBRANCH   1  12
TORSDOF 16
ENDMDL
MODEL 5
REMARK VINA RESULT:      -6.2      3.800      9.483
REMARK  Name = 23403
REMARK  16 active torsions:
REMARK  status: ('A' for Active; 'I' for Inactive)
REMARK    1  A    between atoms: C_1  and  C_2
REMARK    2  A    between atoms: C_1  and  C_12
REMARK    3  A    between atoms: C_2  and  C_3
REMARK    4  A    between atoms: C_3  and  C_4
REMARK    5  A    between atoms: C_5  and  C_6
REMARK    6  A    between atoms: C_6  and  S_7
REMARK    7  A    between atoms: S_7  and  C_8
REMARK    8  A    between atoms: C_8  and  C_9
REMARK    9  A    between atoms: C_9  and  O_10
REMARK   10  A    between atoms: C_12  and  C_13
REMARK   11  A    between atoms: C_13  and  C_14
REMARK   12  A    between atoms: C_14  and  C_15
REMARK   13  A    between atoms: C_15  and  S_16
REMARK   14  A    between atoms: S_16  and  C_17
REMARK   15  A    between atoms: C_17  and  C_18
REMARK   16  A    between atoms: C_18  and  O_19
REMARK                            x       y       z     vdW  Elec       q    Type
REMARK                         _______ _______ _______ _____ _____    ______ ____
ROOT
ATOM      1  C   UNL     1      34.917 -22.200 -18.226  0.00  0.00    +0.000 C 
ENDROOT
BRANCH   1   2
ATOM      2  C   UNL     1      34.097 -22.169 -19.518  0.00  0.00    +0.005 C 
BRANCH   2   3
ATOM      3  C   UNL     1      33.063 -21.041 -19.490  0.00  0.00    +0.026 C 
BRANCH   3   4
ATOM      4  C   UNL     1      33.145 -20.108 -20.701  0.00  0.00    -0.030 C 
ATOM      5  C   UNL     1      34.556 -19.839 -21.242  0.00  0.00    -0.019 C 
BRANCH   5   6
ATOM      6  C   UNL     1      34.645 -18.954 -22.485  0.00  0.00    +0.083 C 
BRANCH   6   7
ATOM      7  S   UNL     1      35.233 -17.273 -22.124  0.00  0.00    -0.133 S 
BRANCH   7   8
ATOM      8  C   UNL     1      34.517 -16.433 -23.555  0.00  0.00    +0.090 C 
BRANCH   8   9
ATOM      9  C   UNL     1      34.461 -17.349 -24.767  0.00  0.00    +0.149 C 
BRANCH   9  10
ATOM     10  O   UNL     1      34.830 -16.630 -25.938  0.00  0.00    -0.381 OA
ATOM     11  H   UNL     1      35.484 -15.952 -25.708  0.00  0.00    +0.210 HD
ENDBRANCH   9  10
ENDBRANCH   8   9
ENDBRANCH   7   8
ENDBRANCH   6   7
ENDBRANCH   5   6
ENDBRANCH   3   4
ENDBRANCH   2   3
ENDBRANCH   1   2
BRANCH   1  12
ATOM     12  C   UNL     1      36.322 -21.635 -18.445  0.00  0.00    +0.000 C 
BRANCH  12  13
ATOM     13  C   UNL     1      37.086 -21.513 -17.124  0.00  0.00    +0.001 C 
BRANCH  13  14
ATOM     14  C   UNL     1      36.593 -22.541 -16.102  0.00  0.00    +0.012 C 
BRANCH  14  15
ATOM     15  C   UNL     1      37.715 -23.358 -15.463  0.00  0.00    +0.058 C 
BRANCH  15  16
ATOM     16  S   UNL     1      37.134 -24.408 -14.099  0.00  0.00    -0.138 S 
BRANCH  16  17
ATOM     17  C   UNL     1      37.967 -25.940 -14.576  0.00  0.00    +0.089 C 
BRANCH  17  18
ATOM     18  C   UNL     1      36.968 -27.011 -14.986  0.00  0.00    +0.149 C 
BRANCH  18  19
ATOM     19  O   UNL     1      35.780 -26.405 -15.480  0.00  0.00    -0.381 OA
ATOM     20  H   UNL     1      35.268 -26.047 -14.738  0.00  0.00    +0.210 HD
ENDBRANCH  18  19
ENDBRANCH  17  18
ENDBRANCH  16  17
ENDBRANCH  15  16
ENDBRANCH  14  15
ENDBRANCH  13  14
ENDBRANCH  12  13
ENDBRANCH   1  12
TORSDOF 16
ENDMDL
MODEL 6
REMARK VINA RESULT:      -6.2      4.023      4.887
REMARK  Name = 23403
REMARK  16 active torsions:
REMARK  status: ('A' for Active; 'I' for Inactive)
REMARK    1  A    between atoms: C_1  and  C_2
REMARK    2  A    between atoms: C_1  and  C_12
REMARK    3  A    between atoms: C_2  and  C_3
REMARK    4  A    between atoms: C_3  and  C_4
REMARK    5  A    between atoms: C_5  and  C_6
REMARK    6  A    between atoms: C_6  and  S_7
REMARK    7  A    between atoms: S_7  and  C_8
REMARK    8  A    between atoms: C_8  and  C_9
REMARK    9  A    between atoms: C_9  and  O_10
REMARK   10  A    between atoms: C_12  and  C_13
REMARK   11  A    between atoms: C_13  and  C_14
REMARK   12  A    between atoms: C_14  and  C_15
REMARK   13  A    between atoms: C_15  and  S_16
REMARK   14  A    between atoms: S_16  and  C_17
REMARK   15  A    between atoms: C_17  and  C_18
REMARK   16  A    between atoms: C_18  and  O_19
REMARK                            x       y       z     vdW  Elec       q    Type
REMARK                         _______ _______ _______ _____ _____    ______ ____
ROOT
ATOM      1  C   UNL     1      33.263 -20.139 -20.543  0.00  0.00    +0.000 C 
ENDROOT
BRANCH   1   2
ATOM      2  C   UNL     1      33.447 -21.271 -19.529  0.00  0.00    +0.005 C 
BRANCH   2   3
ATOM      3  C   UNL     1      34.878 -21.811 -19.556  0.00  0.00    +0.026 C 
BRANCH   3   4
ATOM      4  C   UNL     1      35.392 -22.242 -18.179  0.00  0.00    -0.030 C 
ATOM      5  C   UNL     1      36.744 -21.654 -17.756  0.00  0.00    -0.019 C 
BRANCH   5   6
ATOM      6  C   UNL     1      37.239 -22.034 -16.361  0.00  0.00    +0.083 C 
BRANCH   6   7
ATOM      7  S   UNL     1      36.070 -23.085 -15.450  0.00  0.00    -0.133 S 
BRANCH   7   8
ATOM      8  C   UNL     1      37.201 -24.432 -15.032  0.00  0.00    +0.090 C 
BRANCH   8   9
ATOM      9  C   UNL     1      36.484 -25.772 -15.009  0.00  0.00    +0.149 C 
BRANCH   9  10
ATOM     10  O   UNL     1      37.141 -26.691 -15.874  0.00  0.00    -0.381 OA
ATOM     11  H   UNL     1      37.996 -26.940 -15.490  0.00  0.00    +0.210 HD
ENDBRANCH   9  10
ENDBRANCH   8   9
ENDBRANCH   7   8
ENDBRANCH   6   7
ENDBRANCH   5   6
ENDBRANCH   3   4
ENDBRANCH   2   3
ENDBRANCH   1   2
BRANCH   1  12
ATOM     12  C   UNL     1      34.610 -19.629 -21.057  0.00  0.00    +0.000 C 
BRANCH  12  13
ATOM     13  C   UNL     1      34.512 -19.167 -22.513  0.00  0.00    +0.001 C 
BRANCH  13  14
ATOM     14  C   UNL     1      35.647 -18.201 -22.865  0.00  0.00    +0.012 C 
BRANCH  14  15
ATOM     15  C   UNL     1      35.175 -16.773 -23.137  0.00  0.00    +0.058 C 
BRANCH  15  16
ATOM     16  S   UNL     1      34.503 -15.960 -21.658  0.00  0.00    -0.138 S 
BRANCH  16  17
ATOM     17  C   UNL     1      33.237 -14.952 -22.466  0.00  0.00    +0.089 C 
BRANCH  17  18
ATOM     18  C   UNL     1      33.829 -14.111 -23.585  0.00  0.00    +0.149 C 
BRANCH  18  19
ATOM     19  O   UNL     1      32.891 -13.981 -24.646  0.00  0.00    -0.381 OA
ATOM     20  H   UNL     1      32.213 -13.332 -24.401  0.00  0.00    +0.210 HD
ENDBRANCH  18  19
ENDBRANCH  17  18
ENDBRANCH  16  17
ENDBRANCH  15  16
ENDBRANCH  14  15
ENDBRANCH  13  14
ENDBRANCH  12  13
ENDBRANCH   1  12
TORSDOF 16
ENDMDL
MODEL 7
REMARK VINA RESULT:      -6.2      1.419      1.672
REMARK  Name = 23403
REMARK  16 active torsions:
REMARK  status: ('A' for Active; 'I' for Inactive)
REMARK    1  A    between atoms: C_1  and  C_2
REMARK    2  A    between atoms: C_1  and  C_12
REMARK    3  A    between atoms: C_2  and  C_3
REMARK    4  A    between atoms: C_3  and  C_4
REMARK    5  A    between atoms: C_5  and  C_6
REMARK    6  A    between atoms: C_6  and  S_7
REMARK    7  A    between atoms: S_7  and  C_8
REMARK    8  A    between atoms: C_8  and  C_9
REMARK    9  A    between atoms: C_9  and  O_10
REMARK   10  A    between atoms: C_12  and  C_13
REMARK   11  A    between atoms: C_13  and  C_14
REMARK   12  A    between atoms: C_14  and  C_15
REMARK   13  A    between atoms: C_15  and  S_16
REMARK   14  A    between atoms: S_16  and  C_17
REMARK   15  A    between atoms: C_17  and  C_18
REMARK   16  A    between atoms: C_18  and  O_19
REMARK                            x       y       z     vdW  Elec       q    Type
REMARK                         _______ _______ _______ _____ _____    ______ ____
ROOT
ATOM      1  C   UNL     1      33.248 -20.839 -20.089  0.00  0.00    +0.000 C 
ENDROOT
BRANCH   1   2
ATOM      2  C   UNL     1      34.326 -21.590 -19.304  0.00  0.00    +0.005 C 
BRANCH   2   3
ATOM      3  C   UNL     1      33.844 -22.985 -18.898  0.00  0.00    +0.026 C 
BRANCH   3   4
ATOM      4  C   UNL     1      33.616 -23.136 -17.391  0.00  0.00    -0.030 C 
ATOM      5  C   UNL     1      32.159 -23.033 -16.922  0.00  0.00    -0.019 C 
BRANCH   5   6
ATOM      6  C   UNL     1      31.915 -23.238 -15.427  0.00  0.00    +0.083 C 
BRANCH   6   7
ATOM      7  S   UNL     1      30.177 -23.584 -15.028  0.00  0.00    -0.133 S 
BRANCH   7   8
ATOM      8  C   UNL     1      29.415 -22.776 -16.454  0.00  0.00    +0.090 C 
BRANCH   8   9
ATOM      9  C   UNL     1      27.926 -23.073 -16.532  0.00  0.00    +0.149 C 
BRANCH   9  10
ATOM     10  O   UNL     1      27.623 -23.728 -17.758  0.00  0.00    -0.381 OA
ATOM     11  H   UNL     1      27.770 -24.681 -17.659  0.00  0.00    +0.210 HD
ENDBRANCH   9  10
ENDBRANCH   8   9
ENDBRANCH   7   8
ENDBRANCH   6   7
ENDBRANCH   5   6
ENDBRANCH   3   4
ENDBRANCH   2   3
ENDBRANCH   1   2
BRANCH   1  12
ATOM     12  C   UNL     1      33.852 -19.696 -20.907  0.00  0.00    +0.000 C 
BRANCH  12  13
ATOM     13  C   UNL     1      35.377 -19.809 -20.981  0.00  0.00    +0.001 C 
BRANCH  13  14
ATOM     14  C   UNL     1      35.987 -18.606 -21.706  0.00  0.00    +0.012 C 
BRANCH  14  15
ATOM     15  C   UNL     1      35.444 -18.402 -23.120  0.00  0.00    +0.058 C 
BRANCH  15  16
ATOM     16  S   UNL     1      34.974 -16.679 -23.453  0.00  0.00    -0.138 S 
BRANCH  16  17
ATOM     17  C   UNL     1      34.698 -16.148 -21.747  0.00  0.00    +0.089 C 
BRANCH  17  18
ATOM     18  C   UNL     1      34.396 -14.660 -21.671  0.00  0.00    +0.149 C 
BRANCH  18  19
ATOM     19  O   UNL     1      34.723 -14.033 -22.904  0.00  0.00    -0.381 OA
ATOM     20  H   UNL     1      35.154 -13.182 -22.729  0.00  0.00    +0.210 HD
ENDBRANCH  18  19
ENDBRANCH  17  18
ENDBRANCH  16  17
ENDBRANCH  15  16
ENDBRANCH  14  15
ENDBRANCH  13  14
ENDBRANCH  12  13
ENDBRANCH   1  12
TORSDOF 16
ENDMDL
MODEL 8
REMARK VINA RESULT:      -6.1      4.206      4.950
REMARK  Name = 23403
REMARK  16 active torsions:
REMARK  status: ('A' for Active; 'I' for Inactive)
REMARK    1  A    between atoms: C_1  and  C_2
REMARK    2  A    between atoms: C_1  and  C_12
REMARK    3  A    between atoms: C_2  and  C_3
REMARK    4  A    between atoms: C_3  and  C_4
REMARK    5  A    between atoms: C_5  and  C_6
REMARK    6  A    between atoms: C_6  and  S_7
REMARK    7  A    between atoms: S_7  and  C_8
REMARK    8  A    between atoms: C_8  and  C_9
REMARK    9  A    between atoms: C_9  and  O_10
REMARK   10  A    between atoms: C_12  and  C_13
REMARK   11  A    between atoms: C_13  and  C_14
REMARK   12  A    between atoms: C_14  and  C_15
REMARK   13  A    between atoms: C_15  and  S_16
REMARK   14  A    between atoms: S_16  and  C_17
REMARK   15  A    between atoms: C_17  and  C_18
REMARK   16  A    between atoms: C_18  and  O_19
REMARK                            x       y       z     vdW  Elec       q    Type
REMARK                         _______ _______ _______ _____ _____    ______ ____
ROOT
ATOM      1  C   UNL     1      34.530 -21.641 -19.514  0.00  0.00    +0.000 C 
ENDROOT
BRANCH   1   2
ATOM      2  C   UNL     1      34.755 -22.406 -18.208  0.00  0.00    +0.005 C 
BRANCH   2   3
ATOM      3  C   UNL     1      33.446 -22.992 -17.676  0.00  0.00    +0.026 C 
BRANCH   3   4
ATOM      4  C   UNL     1      33.487 -23.318 -16.180  0.00  0.00    -0.030 C 
ATOM      5  C   UNL     1      34.767 -24.000 -15.681  0.00  0.00    -0.019 C 
BRANCH   5   6
ATOM      6  C   UNL     1      34.842 -24.279 -14.180  0.00  0.00    +0.083 C 
BRANCH   6   7
ATOM      7  S   UNL     1      36.421 -25.017 -13.669  0.00  0.00    -0.133 S 
BRANCH   7   8
ATOM      8  C   UNL     1      36.507 -24.324 -12.002  0.00  0.00    +0.090 C 
BRANCH   8   9
ATOM      9  C   UNL     1      37.159 -22.950 -12.005  0.00  0.00    +0.149 C 
BRANCH   9  10
ATOM     10  O   UNL     1      38.517 -23.055 -11.595  0.00  0.00    -0.381 OA
ATOM     11  H   UNL     1      38.603 -23.767 -10.942  0.00  0.00    +0.210 HD
ENDBRANCH   9  10
ENDBRANCH   8   9
ENDBRANCH   7   8
ENDBRANCH   6   7
ENDBRANCH   5   6
ENDBRANCH   3   4
ENDBRANCH   2   3
ENDBRANCH   1   2
BRANCH   1  12
ATOM     12  C   UNL     1      33.093 -21.126 -19.616  0.00  0.00    +0.000 C 
BRANCH  12  13
ATOM     13  C   UNL     1      32.985 -19.970 -20.614  0.00  0.00    +0.001 C 
BRANCH  13  14
ATOM     14  C   UNL     1      34.366 -19.406 -20.961  0.00  0.00    +0.012 C 
BRANCH  14  15
ATOM     15  C   UNL     1      34.605 -19.250 -22.462  0.00  0.00    +0.058 C 
BRANCH  15  16
ATOM     16  S   UNL     1      35.284 -17.624 -22.902  0.00  0.00    -0.138 S 
BRANCH  16  17
ATOM     17  C   UNL     1      34.647 -17.522 -24.591  0.00  0.00    +0.089 C 
BRANCH  17  18
ATOM     18  C   UNL     1      34.159 -16.120 -24.916  0.00  0.00    +0.149 C 
BRANCH  18  19
ATOM     19  O   UNL     1      33.681 -16.068 -26.254  0.00  0.00    -0.381 OA
ATOM     20  H   UNL     1      33.724 -16.954 -26.647  0.00  0.00    +0.210 HD
ENDBRANCH  18  19
ENDBRANCH  17  18
ENDBRANCH  16  17
ENDBRANCH  15  16
ENDBRANCH  14  15
ENDBRANCH  13  14
ENDBRANCH  12  13
ENDBRANCH   1  12
TORSDOF 16
ENDMDL
MODEL 9
REMARK VINA RESULT:      -6.1      4.263      9.754
REMARK  Name = 23403
REMARK  16 active torsions:
REMARK  status: ('A' for Active; 'I' for Inactive)
REMARK    1  A    between atoms: C_1  and  C_2
REMARK    2  A    between atoms: C_1  and  C_12
REMARK    3  A    between atoms: C_2  and  C_3
REMARK    4  A    between atoms: C_3  and  C_4
REMARK    5  A    between atoms: C_5  and  C_6
REMARK    6  A    between atoms: C_6  and  S_7
REMARK    7  A    between atoms: S_7  and  C_8
REMARK    8  A    between atoms: C_8  and  C_9
REMARK    9  A    between atoms: C_9  and  O_10
REMARK   10  A    between atoms: C_12  and  C_13
REMARK   11  A    between atoms: C_13  and  C_14
REMARK   12  A    between atoms: C_14  and  C_15
REMARK   13  A    between atoms: C_15  and  S_16
REMARK   14  A    between atoms: S_16  and  C_17
REMARK   15  A    between atoms: C_17  and  C_18
REMARK   16  A    between atoms: C_18  and  O_19
REMARK                            x       y       z     vdW  Elec       q    Type
REMARK                         _______ _______ _______ _____ _____    ______ ____
ROOT
ATOM      1  C   UNL     1      35.129 -22.284 -18.306  0.00  0.00    +0.000 C 
ENDROOT
BRANCH   1   2
ATOM      2  C   UNL     1      34.555 -21.985 -19.694  0.00  0.00    +0.005 C 
BRANCH   2   3
ATOM      3  C   UNL     1      33.331 -21.070 -19.601  0.00  0.00    +0.026 C 
BRANCH   3   4
ATOM      4  C   UNL     1      33.216 -20.087 -20.770  0.00  0.00    -0.030 C 
ATOM      5  C   UNL     1      34.529 -19.442 -21.232  0.00  0.00    -0.019 C 
BRANCH   5   6
ATOM      6  C   UNL     1      34.433 -18.502 -22.433  0.00  0.00    +0.083 C 
BRANCH   6   7
ATOM      7  S   UNL     1      34.960 -16.805 -22.056  0.00  0.00    -0.133 S 
BRANCH   7   8
ATOM      8  C   UNL     1      34.853 -16.120 -23.725  0.00  0.00    +0.090 C 
BRANCH   8   9
ATOM      9  C   UNL     1      34.854 -17.218 -24.777  0.00  0.00    +0.149 C 
BRANCH   9  10
ATOM     10  O   UNL     1      33.804 -16.998 -25.711  0.00  0.00    -0.381 OA
ATOM     11  H   UNL     1      33.459 -17.852 -26.016  0.00  0.00    +0.210 HD
ENDBRANCH   9  10
ENDBRANCH   8   9
ENDBRANCH   7   8
ENDBRANCH   6   7
ENDBRANCH   5   6
ENDBRANCH   3   4
ENDBRANCH   2   3
ENDBRANCH   1   2
BRANCH   1  12
ATOM     12  C   UNL     1      36.509 -21.650 -18.127  0.00  0.00    +0.000 C 
BRANCH  12  13
ATOM     13  C   UNL     1      37.030 -21.844 -16.700  0.00  0.00    +0.001 C 
BRANCH  13  14
ATOM     14  C   UNL     1      36.001 -22.569 -15.828  0.00  0.00    +0.012 C 
BRANCH  14  15
ATOM     15  C   UNL     1      36.624 -23.430 -14.731  0.00  0.00    +0.058 C 
BRANCH  15  16
ATOM     16  S   UNL     1      35.423 -23.943 -13.469  0.00  0.00    -0.138 S 
BRANCH  16  17
ATOM     17  C   UNL     1      36.334 -23.400 -12.005  0.00  0.00    +0.089 C 
BRANCH  17  18
ATOM     18  C   UNL     1      37.739 -23.980 -11.979  0.00  0.00    +0.149 C 
BRANCH  18  19
ATOM     19  O   UNL     1      38.681 -22.961 -11.670  0.00  0.00    -0.381 OA
ATOM     20  H   UNL     1      39.490 -23.101 -12.187  0.00  0.00    +0.210 HD
ENDBRANCH  18  19
ENDBRANCH  17  18
ENDBRANCH  16  17
ENDBRANCH  15  16
ENDBRANCH  14  15
ENDBRANCH  13  14
ENDBRANCH  12  13
ENDBRANCH   1  12
TORSDOF 16
ENDMDL
