MODEL 1
REMARK VINA RESULT:      -8.5      0.000      0.000
REMARK  Name = 70687267
REMARK  9 active torsions:
REMARK  status: ('A' for Active; 'I' for Inactive)
REMARK    1  A    between atoms: C_3  and  C_8
REMARK    2  A    between atoms: C_3  and  C_15
REMARK    3  A    between atoms: C_15  and  O_16
REMARK    4  A    between atoms: O_16  and  C_17
REMARK    5  A    between atoms: C_17  and  C_18
REMARK    6  A    between atoms: C_18  and  C_19
REMARK    7  A    between atoms: C_19  and  N_20
REMARK    8  A    between atoms: N_20  and  C_22
REMARK    9  A    between atoms: N_20  and  C_24
REMARK                            x       y       z     vdW  Elec       q    Type
REMARK                         _______ _______ _______ _____ _____    ______ ____
ROOT
ATOM      1  C   UNL     1      31.633  -7.998 -23.898  0.00  0.00    +0.014 C 
ATOM      2  C   UNL     1      32.610  -6.123 -23.198  0.00  0.00    +0.001 C 
ATOM      3  C   UNL     1      32.709  -8.550 -22.901  0.00  0.00    +0.108 C 
ATOM      4  C   UNL     1      32.364  -6.808 -24.536  0.00  0.00    +0.001 C 
ATOM      5  C   UNL     1      33.344  -7.217 -22.392  0.00  0.00    +0.015 C 
ATOM      6  C   UNL     1      30.500  -7.260 -23.152  0.00  0.00    +0.001 C 
ATOM      7  C   UNL     1      31.183  -5.984 -22.649  0.00  0.00    +0.000 C 
ENDROOT
BRANCH   3   8
ATOM      8  C   UNL     1      32.140  -9.374 -21.796  0.00  0.00    -0.013 C 
ATOM      9  C   UNL     1      31.370 -10.500 -22.092  0.00  0.00    -0.004 C 
ATOM     10  C   UNL     1      32.376  -9.020 -20.468  0.00  0.00    -0.004 C 
ATOM     11  C   UNL     1      30.838 -11.271 -21.059  0.00  0.00    -0.000 C 
ATOM     12  C   UNL     1      31.844  -9.792 -19.435  0.00  0.00    -0.000 C 
ATOM     13  C   UNL     1      31.074 -10.917 -19.730  0.00  0.00    -0.000 C 
ENDBRANCH   3   8
BRANCH   3  15
ATOM     14  O   UNL     1      34.930  -9.197 -23.586  0.00  0.00    -0.250 OA
ATOM     15  C   UNL     1      33.722  -9.386 -23.634  0.00  0.00    +0.320 C 
BRANCH  15  16
ATOM     16  O   UNL     1      33.082 -10.363 -24.339  0.00  0.00    -0.448 OA
BRANCH  16  17
ATOM     17  C   UNL     1      33.906 -11.451 -24.769  0.00  0.00    +0.206 C 
BRANCH  17  18
ATOM     18  C   UNL     1      33.814 -12.572 -23.743  0.00  0.00    +0.025 C 
BRANCH  18  19
ATOM     19  C   UNL     1      33.357 -13.879 -24.383  0.00  0.00    -0.074 C 
BRANCH  19  20
ATOM     20  N   UNL     1      33.196 -14.912 -23.366  0.00  0.00    +0.387 N 
ATOM     21  H   UNL     1      32.519 -15.593 -23.709  0.00  0.00    -0.080 HD
BRANCH  20  22
ATOM     22  C   UNL     1      32.684 -14.334 -22.121  0.00  0.00    -0.077 C 
ATOM     23  C   UNL     1      32.629 -15.375 -21.016  0.00  0.00    -0.025 C 
ENDBRANCH  20  22
BRANCH  20  24
ATOM     24  C   UNL     1      34.465 -15.599 -23.122  0.00  0.00    -0.077 C 
ATOM     25  C   UNL     1      34.818 -16.525 -24.273  0.00  0.00    -0.025 C 
ENDBRANCH  20  24
ENDBRANCH  19  20
ENDBRANCH  18  19
ENDBRANCH  17  18
ENDBRANCH  16  17
ENDBRANCH  15  16
ENDBRANCH   3  15
TORSDOF 9
ENDMDL
MODEL 2
REMARK VINA RESULT:      -8.0      1.042      1.649
REMARK  Name = 70687267
REMARK  9 active torsions:
REMARK  status: ('A' for Active; 'I' for Inactive)
REMARK    1  A    between atoms: C_3  and  C_8
REMARK    2  A    between atoms: C_3  and  C_15
REMARK    3  A    between atoms: C_15  and  O_16
REMARK    4  A    between atoms: O_16  and  C_17
REMARK    5  A    between atoms: C_17  and  C_18
REMARK    6  A    between atoms: C_18  and  C_19
REMARK    7  A    between atoms: C_19  and  N_20
REMARK    8  A    between atoms: N_20  and  C_22
REMARK    9  A    between atoms: N_20  and  C_24
REMARK                            x       y       z     vdW  Elec       q    Type
REMARK                         _______ _______ _______ _____ _____    ______ ____
ROOT
ATOM      1  C   UNL     1      31.756  -7.651 -23.862  0.00  0.00    +0.014 C 
ATOM      2  C   UNL     1      32.259  -5.713 -22.887  0.00  0.00    +0.001 C 
ATOM      3  C   UNL     1      32.721  -8.110 -22.716  0.00  0.00    +0.108 C 
ATOM      4  C   UNL     1      32.370  -6.308 -24.285  0.00  0.00    +0.001 C 
ATOM      5  C   UNL     1      33.019  -6.743 -22.023  0.00  0.00    +0.015 C 
ATOM      6  C   UNL     1      30.400  -7.171 -23.298  0.00  0.00    +0.001 C 
ATOM      7  C   UNL     1      30.755  -5.851 -22.605  0.00  0.00    +0.000 C 
ENDROOT
BRANCH   3   8
ATOM      8  C   UNL     1      32.119  -9.108 -21.785  0.00  0.00    -0.013 C 
ATOM      9  C   UNL     1      32.206  -8.915 -20.406  0.00  0.00    -0.004 C 
ATOM     10  C   UNL     1      31.471 -10.233 -22.293  0.00  0.00    -0.004 C 
ATOM     11  C   UNL     1      31.643  -9.848 -19.535  0.00  0.00    -0.000 C 
ATOM     12  C   UNL     1      30.908 -11.166 -21.422  0.00  0.00    -0.000 C 
ATOM     13  C   UNL     1      30.995 -10.974 -20.043  0.00  0.00    -0.000 C 
ENDBRANCH   3   8
BRANCH   3  15
ATOM     14  O   UNL     1      35.059  -8.142 -23.310  0.00  0.00    -0.250 OA
ATOM     15  C   UNL     1      33.974  -8.708 -23.296  0.00  0.00    +0.320 C 
BRANCH  15  16
ATOM     16  O   UNL     1      33.702  -9.951 -23.786  0.00  0.00    -0.448 OA
BRANCH  16  17
ATOM     17  C   UNL     1      34.376 -10.293 -25.001  0.00  0.00    +0.206 C 
BRANCH  17  18
ATOM     18  C   UNL     1      34.072 -11.747 -25.338  0.00  0.00    +0.025 C 
BRANCH  18  19
ATOM     19  C   UNL     1      33.823 -12.573 -24.080  0.00  0.00    -0.074 C 
BRANCH  19  20
ATOM     20  N   UNL     1      32.952 -13.703 -24.381  0.00  0.00    +0.387 N 
ATOM     21  H   UNL     1      31.994 -13.433 -24.162  0.00  0.00    -0.080 HD
BRANCH  20  22
ATOM     22  C   UNL     1      33.309 -14.862 -23.560  0.00  0.00    -0.077 C 
ATOM     23  C   UNL     1      34.456 -14.535 -22.619  0.00  0.00    -0.025 C 
ENDBRANCH  20  22
BRANCH  20  24
ATOM     24  C   UNL     1      33.026 -14.047 -25.802  0.00  0.00    -0.077 C 
ATOM     25  C   UNL     1      33.145 -15.548 -25.999  0.00  0.00    -0.025 C 
ENDBRANCH  20  24
ENDBRANCH  19  20
ENDBRANCH  18  19
ENDBRANCH  17  18
ENDBRANCH  16  17
ENDBRANCH  15  16
ENDBRANCH   3  15
TORSDOF 9
ENDMDL
MODEL 3
REMARK VINA RESULT:      -7.9      3.766      8.880
REMARK  Name = 70687267
REMARK  9 active torsions:
REMARK  status: ('A' for Active; 'I' for Inactive)
REMARK    1  A    between atoms: C_3  and  C_8
REMARK    2  A    between atoms: C_3  and  C_15
REMARK    3  A    between atoms: C_15  and  O_16
REMARK    4  A    between atoms: O_16  and  C_17
REMARK    5  A    between atoms: C_17  and  C_18
REMARK    6  A    between atoms: C_18  and  C_19
REMARK    7  A    between atoms: C_19  and  N_20
REMARK    8  A    between atoms: N_20  and  C_22
REMARK    9  A    between atoms: N_20  and  C_24
REMARK                            x       y       z     vdW  Elec       q    Type
REMARK                         _______ _______ _______ _____ _____    ______ ____
ROOT
ATOM      1  C   UNL     1      35.814 -17.806 -22.674  0.00  0.00    +0.014 C 
ATOM      2  C   UNL     1      34.217 -17.693 -24.222  0.00  0.00    +0.001 C 
ATOM      3  C   UNL     1      34.516 -17.957 -21.808  0.00  0.00    +0.108 C 
ATOM      4  C   UNL     1      35.368 -16.811 -23.755  0.00  0.00    +0.001 C 
ATOM      5  C   UNL     1      33.420 -17.922 -22.920  0.00  0.00    +0.015 C 
ATOM      6  C   UNL     1      36.063 -19.062 -23.538  0.00  0.00    +0.001 C 
ATOM      7  C   UNL     1      34.947 -18.995 -24.586  0.00  0.00    +0.000 C 
ENDROOT
BRANCH   3   8
ATOM      8  C   UNL     1      34.474 -19.209 -20.998  0.00  0.00    -0.013 C 
ATOM      9  C   UNL     1      33.247 -19.788 -20.675  0.00  0.00    -0.004 C 
ATOM     10  C   UNL     1      35.661 -19.799 -20.565  0.00  0.00    -0.004 C 
ATOM     11  C   UNL     1      33.208 -20.959 -19.918  0.00  0.00    -0.000 C 
ATOM     12  C   UNL     1      35.621 -20.970 -19.808  0.00  0.00    -0.000 C 
ATOM     13  C   UNL     1      34.395 -21.550 -19.484  0.00  0.00    -0.000 C 
ENDBRANCH   3   8
BRANCH   3  15
ATOM     14  O   UNL     1      35.259 -16.400 -20.121  0.00  0.00    -0.250 OA
ATOM     15  C   UNL     1      34.374 -16.789 -20.871  0.00  0.00    +0.320 C 
BRANCH  15  16
ATOM     16  O   UNL     1      33.126 -16.254 -20.997  0.00  0.00    -0.448 OA
BRANCH  16  17
ATOM     17  C   UNL     1      33.070 -14.825 -21.038  0.00  0.00    +0.206 C 
BRANCH  17  18
ATOM     18  C   UNL     1      32.645 -14.389 -22.433  0.00  0.00    +0.025 C 
BRANCH  18  19
ATOM     19  C   UNL     1      33.393 -13.138 -22.881  0.00  0.00    -0.074 C 
BRANCH  19  20
ATOM     20  N   UNL     1      33.841 -13.283 -24.261  0.00  0.00    +0.387 N 
ATOM     21  H   UNL     1      34.780 -13.680 -24.251  0.00  0.00    -0.080 HD
BRANCH  20  22
ATOM     22  C   UNL     1      33.896 -11.978 -24.925  0.00  0.00    -0.077 C 
ATOM     23  C   UNL     1      33.517 -10.860 -23.968  0.00  0.00    -0.025 C 
ENDBRANCH  20  22
BRANCH  20  24
ATOM     24  C   UNL     1      32.959 -14.190 -24.997  0.00  0.00    -0.077 C 
ATOM     25  C   UNL     1      33.074 -13.971 -26.496  0.00  0.00    -0.025 C 
ENDBRANCH  20  24
ENDBRANCH  19  20
ENDBRANCH  18  19
ENDBRANCH  17  18
ENDBRANCH  16  17
ENDBRANCH  15  16
ENDBRANCH   3  15
TORSDOF 9
ENDMDL
MODEL 4
REMARK VINA RESULT:      -7.5     13.914     16.835
REMARK  Name = 70687267
REMARK  9 active torsions:
REMARK  status: ('A' for Active; 'I' for Inactive)
REMARK    1  A    between atoms: C_3  and  C_8
REMARK    2  A    between atoms: C_3  and  C_15
REMARK    3  A    between atoms: C_15  and  O_16
REMARK    4  A    between atoms: O_16  and  C_17
REMARK    5  A    between atoms: C_17  and  C_18
REMARK    6  A    between atoms: C_18  and  C_19
REMARK    7  A    between atoms: C_19  and  N_20
REMARK    8  A    between atoms: N_20  and  C_22
REMARK    9  A    between atoms: N_20  and  C_24
REMARK                            x       y       z     vdW  Elec       q    Type
REMARK                         _______ _______ _______ _____ _____    ______ ____
ROOT
ATOM      1  C   UNL     1      36.650 -25.758 -14.136  0.00  0.00    +0.014 C 
ATOM      2  C   UNL     1      38.204 -25.167 -12.654  0.00  0.00    +0.001 C 
ATOM      3  C   UNL     1      36.298 -24.252 -13.886  0.00  0.00    +0.108 C 
ATOM      4  C   UNL     1      37.106 -26.220 -12.744  0.00  0.00    +0.001 C 
ATOM      5  C   UNL     1      37.427 -23.852 -12.883  0.00  0.00    +0.015 C 
ATOM      6  C   UNL     1      37.971 -25.904 -14.924  0.00  0.00    +0.001 C 
ATOM      7  C   UNL     1      39.035 -25.471 -13.910  0.00  0.00    +0.000 C 
ENDROOT
BRANCH   3   8
ATOM      8  C   UNL     1      36.305 -23.417 -15.122  0.00  0.00    -0.013 C 
ATOM      9  C   UNL     1      37.352 -22.525 -15.355  0.00  0.00    -0.004 C 
ATOM     10  C   UNL     1      35.265 -23.529 -16.045  0.00  0.00    -0.004 C 
ATOM     11  C   UNL     1      37.359 -21.746 -16.511  0.00  0.00    -0.000 C 
ATOM     12  C   UNL     1      35.272 -22.749 -17.201  0.00  0.00    -0.000 C 
ATOM     13  C   UNL     1      36.319 -21.856 -17.434  0.00  0.00    -0.000 C 
ENDBRANCH   3   8
BRANCH   3  15
ATOM     14  O   UNL     1      34.739 -23.605 -12.161  0.00  0.00    -0.250 OA
ATOM     15  C   UNL     1      34.941 -24.131 -13.248  0.00  0.00    +0.320 C 
BRANCH  15  16
ATOM     16  O   UNL     1      34.002 -24.690 -14.063  0.00  0.00    -0.448 OA
BRANCH  16  17
ATOM     17  C   UNL     1      32.642 -24.415 -13.715  0.00  0.00    +0.206 C 
BRANCH  17  18
ATOM     18  C   UNL     1      32.128 -23.285 -14.597  0.00  0.00    +0.025 C 
BRANCH  18  19
ATOM     19  C   UNL     1      30.630 -23.069 -14.413  0.00  0.00    -0.074 C 
BRANCH  19  20
ATOM     20  N   UNL     1      29.931 -23.256 -15.679  0.00  0.00    +0.387 N 
ATOM     21  H   UNL     1      30.537 -22.923 -16.428  0.00  0.00    -0.080 HD
BRANCH  20  22
ATOM     22  C   UNL     1      28.691 -22.478 -15.703  0.00  0.00    -0.077 C 
ATOM     23  C   UNL     1      27.931 -22.698 -17.001  0.00  0.00    -0.025 C 
ENDBRANCH  20  22
BRANCH  20  24
ATOM     24  C   UNL     1      29.646 -24.673 -15.907  0.00  0.00    -0.077 C 
ATOM     25  C   UNL     1      29.045 -25.318 -14.669  0.00  0.00    -0.025 C 
ENDBRANCH  20  24
ENDBRANCH  19  20
ENDBRANCH  18  19
ENDBRANCH  17  18
ENDBRANCH  16  17
ENDBRANCH  15  16
ENDBRANCH   3  15
TORSDOF 9
ENDMDL
MODEL 5
REMARK VINA RESULT:      -7.5      9.898     14.665
REMARK  Name = 70687267
REMARK  9 active torsions:
REMARK  status: ('A' for Active; 'I' for Inactive)
REMARK    1  A    between atoms: C_3  and  C_8
REMARK    2  A    between atoms: C_3  and  C_15
REMARK    3  A    between atoms: C_15  and  O_16
REMARK    4  A    between atoms: O_16  and  C_17
REMARK    5  A    between atoms: C_17  and  C_18
REMARK    6  A    between atoms: C_18  and  C_19
REMARK    7  A    between atoms: C_19  and  N_20
REMARK    8  A    between atoms: N_20  and  C_22
REMARK    9  A    between atoms: N_20  and  C_24
REMARK                            x       y       z     vdW  Elec       q    Type
REMARK                         _______ _______ _______ _____ _____    ______ ____
ROOT
ATOM      1  C   UNL     1      35.634 -22.907 -14.989  0.00  0.00    +0.014 C 
ATOM      2  C   UNL     1      36.669 -24.876 -14.879  0.00  0.00    +0.001 C 
ATOM      3  C   UNL     1      34.564 -23.867 -15.613  0.00  0.00    +0.108 C 
ATOM      4  C   UNL     1      36.950 -23.514 -15.500  0.00  0.00    +0.001 C 
ATOM      5  C   UNL     1      35.294 -25.241 -15.480  0.00  0.00    +0.015 C 
ATOM      6  C   UNL     1      35.789 -23.146 -13.471  0.00  0.00    +0.001 C 
ATOM      7  C   UNL     1      36.478 -24.513 -13.399  0.00  0.00    +0.000 C 
ENDROOT
BRANCH   3   8
ATOM      8  C   UNL     1      33.250 -23.844 -14.908  0.00  0.00    -0.013 C 
ATOM      9  C   UNL     1      32.434 -22.716 -14.993  0.00  0.00    -0.004 C 
ATOM     10  C   UNL     1      32.838 -24.949 -14.163  0.00  0.00    -0.004 C 
ATOM     11  C   UNL     1      31.204 -22.694 -14.334  0.00  0.00    -0.000 C 
ATOM     12  C   UNL     1      31.609 -24.927 -13.505  0.00  0.00    -0.000 C 
ATOM     13  C   UNL     1      30.792 -23.799 -13.589  0.00  0.00    -0.000 C 
ENDBRANCH   3   8
BRANCH   3  15
ATOM     14  O   UNL     1      33.451 -24.023 -17.747  0.00  0.00    -0.250 OA
ATOM     15  C   UNL     1      34.326 -23.519 -17.057  0.00  0.00    +0.320 C 
BRANCH  15  16
ATOM     16  O   UNL     1      35.226 -22.574 -17.452  0.00  0.00    -0.448 OA
BRANCH  16  17
ATOM     17  C   UNL     1      35.155 -22.195 -18.829  0.00  0.00    +0.206 C 
BRANCH  17  18
ATOM     18  C   UNL     1      36.191 -21.111 -19.095  0.00  0.00    +0.025 C 
BRANCH  18  19
ATOM     19  C   UNL     1      36.093 -20.581 -20.522  0.00  0.00    -0.074 C 
BRANCH  19  20
ATOM     20  N   UNL     1      35.192 -19.436 -20.575  0.00  0.00    +0.387 N 
ATOM     21  H   UNL     1      34.901 -19.215 -19.623  0.00  0.00    -0.080 HD
BRANCH  20  22
ATOM     22  C   UNL     1      33.999 -19.754 -21.364  0.00  0.00    -0.077 C 
ATOM     23  C   UNL     1      32.807 -20.035 -20.465  0.00  0.00    -0.025 C 
ENDBRANCH  20  22
BRANCH  20  24
ATOM     24  C   UNL     1      35.874 -18.268 -21.136  0.00  0.00    -0.077 C 
ATOM     25  C   UNL     1      35.000 -17.029 -21.053  0.00  0.00    -0.025 C 
ENDBRANCH  20  24
ENDBRANCH  19  20
ENDBRANCH  18  19
ENDBRANCH  17  18
ENDBRANCH  16  17
ENDBRANCH  15  16
ENDBRANCH   3  15
TORSDOF 9
ENDMDL
MODEL 6
REMARK VINA RESULT:      -7.4     10.380     15.124
REMARK  Name = 70687267
REMARK  9 active torsions:
REMARK  status: ('A' for Active; 'I' for Inactive)
REMARK    1  A    between atoms: C_3  and  C_8
REMARK    2  A    between atoms: C_3  and  C_15
REMARK    3  A    between atoms: C_15  and  O_16
REMARK    4  A    between atoms: O_16  and  C_17
REMARK    5  A    between atoms: C_17  and  C_18
REMARK    6  A    between atoms: C_18  and  C_19
REMARK    7  A    between atoms: C_19  and  N_20
REMARK    8  A    between atoms: N_20  and  C_22
REMARK    9  A    between atoms: N_20  and  C_24
REMARK                            x       y       z     vdW  Elec       q    Type
REMARK                         _______ _______ _______ _____ _____    ______ ____
ROOT
ATOM      1  C   UNL     1      35.884 -23.171 -13.870  0.00  0.00    +0.014 C 
ATOM      2  C   UNL     1      36.788 -25.198 -14.059  0.00  0.00    +0.001 C 
ATOM      3  C   UNL     1      34.940 -23.846 -14.922  0.00  0.00    +0.108 C 
ATOM      4  C   UNL     1      37.254 -23.759 -14.239  0.00  0.00    +0.001 C 
ATOM      5  C   UNL     1      35.566 -25.275 -15.000  0.00  0.00    +0.015 C 
ATOM      6  C   UNL     1      35.689 -23.783 -12.465  0.00  0.00    +0.001 C 
ATOM      7  C   UNL     1      36.288 -25.187 -12.606  0.00  0.00    +0.000 C 
ENDROOT
BRANCH   3   8
ATOM      8  C   UNL     1      33.504 -23.868 -14.518  0.00  0.00    -0.013 C 
ATOM      9  C   UNL     1      32.759 -22.689 -14.530  0.00  0.00    -0.004 C 
ATOM     10  C   UNL     1      32.908 -25.067 -14.128  0.00  0.00    -0.004 C 
ATOM     11  C   UNL     1      31.416 -22.710 -14.153  0.00  0.00    -0.000 C 
ATOM     12  C   UNL     1      31.566 -25.088 -13.750  0.00  0.00    -0.000 C 
ATOM     13  C   UNL     1      30.819 -23.909 -13.762  0.00  0.00    -0.000 C 
ENDBRANCH   3   8
BRANCH   3  15
ATOM     14  O   UNL     1      35.670 -22.104 -16.423  0.00  0.00    -0.250 OA
ATOM     15  C   UNL     1      35.042 -23.139 -16.246  0.00  0.00    +0.320 C 
BRANCH  15  16
ATOM     16  O   UNL     1      34.335 -23.828 -17.187  0.00  0.00    -0.448 OA
BRANCH  16  17
ATOM     17  C   UNL     1      33.374 -23.062 -17.918  0.00  0.00    +0.206 C 
BRANCH  17  18
ATOM     18  C   UNL     1      34.006 -22.594 -19.221  0.00  0.00    +0.025 C 
BRANCH  18  19
ATOM     19  C   UNL     1      33.473 -21.229 -19.644  0.00  0.00    -0.074 C 
BRANCH  19  20
ATOM     20  N   UNL     1      34.576 -20.337 -19.982  0.00  0.00    +0.387 N 
ATOM     21  H   UNL     1      34.583 -19.572 -19.308  0.00  0.00    -0.080 HD
BRANCH  20  22
ATOM     22  C   UNL     1      34.394 -19.776 -21.322  0.00  0.00    -0.077 C 
ATOM     23  C   UNL     1      34.137 -18.280 -21.260  0.00  0.00    -0.025 C 
ENDBRANCH  20  22
BRANCH  20  24
ATOM     24  C   UNL     1      35.855 -21.044 -19.897  0.00  0.00    -0.077 C 
ATOM     25  C   UNL     1      37.017 -20.115 -20.204  0.00  0.00    -0.025 C 
ENDBRANCH  20  24
ENDBRANCH  19  20
ENDBRANCH  18  19
ENDBRANCH  17  18
ENDBRANCH  16  17
ENDBRANCH  15  16
ENDBRANCH   3  15
TORSDOF 9
ENDMDL
MODEL 7
REMARK VINA RESULT:      -7.4      1.436      4.041
REMARK  Name = 70687267
REMARK  9 active torsions:
REMARK  status: ('A' for Active; 'I' for Inactive)
REMARK    1  A    between atoms: C_3  and  C_8
REMARK    2  A    between atoms: C_3  and  C_15
REMARK    3  A    between atoms: C_15  and  O_16
REMARK    4  A    between atoms: O_16  and  C_17
REMARK    5  A    between atoms: C_17  and  C_18
REMARK    6  A    between atoms: C_18  and  C_19
REMARK    7  A    between atoms: C_19  and  N_20
REMARK    8  A    between atoms: N_20  and  C_22
REMARK    9  A    between atoms: N_20  and  C_24
REMARK                            x       y       z     vdW  Elec       q    Type
REMARK                         _______ _______ _______ _____ _____    ______ ____
ROOT
ATOM      1  C   UNL     1      33.485  -7.494 -21.947  0.00  0.00    +0.014 C 
ATOM      2  C   UNL     1      31.377  -8.157 -21.669  0.00  0.00    +0.001 C 
ATOM      3  C   UNL     1      33.102  -7.959 -23.393  0.00  0.00    +0.108 C 
ATOM      4  C   UNL     1      32.734  -8.508 -21.071  0.00  0.00    +0.001 C 
ATOM      5  C   UNL     1      31.611  -8.373 -23.180  0.00  0.00    +0.015 C 
ATOM      6  C   UNL     1      32.748  -6.193 -21.559  0.00  0.00    +0.001 C 
ATOM      7  C   UNL     1      31.294  -6.648 -21.395  0.00  0.00    +0.000 C 
ENDROOT
BRANCH   3   8
ATOM      8  C   UNL     1      33.262  -6.898 -24.429  0.00  0.00    -0.013 C 
ATOM      9  C   UNL     1      34.502  -6.700 -25.037  0.00  0.00    -0.004 C 
ATOM     10  C   UNL     1      32.174  -6.105 -24.790  0.00  0.00    -0.004 C 
ATOM     11  C   UNL     1      34.652  -5.708 -26.006  0.00  0.00    -0.000 C 
ATOM     12  C   UNL     1      32.324  -5.114 -25.759  0.00  0.00    -0.000 C 
ATOM     13  C   UNL     1      33.563  -4.914 -26.368  0.00  0.00    -0.000 C 
ENDBRANCH   3   8
BRANCH   3  15
ATOM     14  O   UNL     1      35.161  -9.157 -23.776  0.00  0.00    -0.250 OA
ATOM     15  C   UNL     1      33.938  -9.141 -23.801  0.00  0.00    +0.320 C 
BRANCH  15  16
ATOM     16  O   UNL     1      33.123 -10.162 -24.193  0.00  0.00    -0.448 OA
BRANCH  16  17
ATOM     17  C   UNL     1      33.577 -11.476 -23.856  0.00  0.00    +0.206 C 
BRANCH  17  18
ATOM     18  C   UNL     1      32.601 -12.095 -22.865  0.00  0.00    +0.025 C 
BRANCH  18  19
ATOM     19  C   UNL     1      32.665 -13.618 -22.892  0.00  0.00    -0.074 C 
BRANCH  19  20
ATOM     20  N   UNL     1      34.010 -14.074 -22.558  0.00  0.00    +0.387 N 
ATOM     21  H   UNL     1      34.644 -13.280 -22.641  0.00  0.00    -0.080 HD
BRANCH  20  22
ATOM     22  C   UNL     1      34.446 -15.119 -23.487  0.00  0.00    -0.077 C 
ATOM     23  C   UNL     1      33.565 -15.154 -24.724  0.00  0.00    -0.025 C 
ENDBRANCH  20  22
BRANCH  20  24
ATOM     24  C   UNL     1      34.059 -14.566 -21.181  0.00  0.00    -0.077 C 
ATOM     25  C   UNL     1      32.743 -15.210 -20.779  0.00  0.00    -0.025 C 
ENDBRANCH  20  24
ENDBRANCH  19  20
ENDBRANCH  18  19
ENDBRANCH  17  18
ENDBRANCH  16  17
ENDBRANCH  15  16
ENDBRANCH   3  15
TORSDOF 9
ENDMDL
MODEL 8
REMARK VINA RESULT:      -7.2      2.277      7.375
REMARK  Name = 70687267
REMARK  9 active torsions:
REMARK  status: ('A' for Active; 'I' for Inactive)
REMARK    1  A    between atoms: C_3  and  C_8
REMARK    2  A    between atoms: C_3  and  C_15
REMARK    3  A    between atoms: C_15  and  O_16
REMARK    4  A    between atoms: O_16  and  C_17
REMARK    5  A    between atoms: C_17  and  C_18
REMARK    6  A    between atoms: C_18  and  C_19
REMARK    7  A    between atoms: C_19  and  N_20
REMARK    8  A    between atoms: N_20  and  C_22
REMARK    9  A    between atoms: N_20  and  C_24
REMARK                            x       y       z     vdW  Elec       q    Type
REMARK                         _______ _______ _______ _____ _____    ______ ____
ROOT
ATOM      1  C   UNL     1      32.374 -14.987 -22.227  0.00  0.00    +0.014 C 
ATOM      2  C   UNL     1      33.693 -13.915 -20.788  0.00  0.00    +0.001 C 
ATOM      3  C   UNL     1      33.711 -14.879 -23.037  0.00  0.00    +0.108 C 
ATOM      4  C   UNL     1      32.351 -13.656 -21.461  0.00  0.00    +0.001 C 
ATOM      5  C   UNL     1      34.628 -14.169 -21.991  0.00  0.00    +0.015 C 
ATOM      6  C   UNL     1      32.505 -15.981 -21.053  0.00  0.00    +0.001 C 
ATOM      7  C   UNL     1      33.434 -15.252 -20.077  0.00  0.00    +0.000 C 
ENDROOT
BRANCH   3   8
ATOM      8  C   UNL     1      34.255 -16.196 -23.479  0.00  0.00    -0.013 C 
ATOM      9  C   UNL     1      33.970 -16.673 -24.759  0.00  0.00    -0.004 C 
ATOM     10  C   UNL     1      35.048 -16.949 -22.614  0.00  0.00    -0.004 C 
ATOM     11  C   UNL     1      34.480 -17.904 -25.173  0.00  0.00    -0.000 C 
ATOM     12  C   UNL     1      35.557 -18.180 -23.028  0.00  0.00    -0.000 C 
ATOM     13  C   UNL     1      35.273 -18.658 -24.307  0.00  0.00    -0.000 C 
ENDBRANCH   3   8
BRANCH   3  15
ATOM     14  O   UNL     1      32.710 -14.263 -25.144  0.00  0.00    -0.250 OA
ATOM     15  C   UNL     1      33.517 -14.020 -24.257  0.00  0.00    +0.320 C 
BRANCH  15  16
ATOM     16  O   UNL     1      34.369 -12.957 -24.205  0.00  0.00    -0.448 OA
BRANCH  16  17
ATOM     17  C   UNL     1      33.885 -11.752 -24.805  0.00  0.00    +0.206 C 
BRANCH  17  18
ATOM     18  C   UNL     1      33.240 -10.891 -23.727  0.00  0.00    +0.025 C 
BRANCH  18  19
ATOM     19  C   UNL     1      33.793  -9.470 -23.740  0.00  0.00    -0.074 C 
BRANCH  19  20
ATOM     20  N   UNL     1      32.802  -8.537 -23.217  0.00  0.00    +0.387 N 
ATOM     21  H   UNL     1      31.967  -8.601 -23.797  0.00  0.00    -0.080 HD
BRANCH  20  22
ATOM     22  C   UNL     1      33.306  -7.163 -23.277  0.00  0.00    -0.077 C 
ATOM     23  C   UNL     1      34.611  -7.091 -24.052  0.00  0.00    -0.025 C 
ENDBRANCH  20  22
BRANCH  20  24
ATOM     24  C   UNL     1      32.442  -8.885 -21.841  0.00  0.00    -0.077 C 
ATOM     25  C   UNL     1      32.780  -7.756 -20.882  0.00  0.00    -0.025 C 
ENDBRANCH  20  24
ENDBRANCH  19  20
ENDBRANCH  18  19
ENDBRANCH  17  18
ENDBRANCH  16  17
ENDBRANCH  15  16
ENDBRANCH   3  15
TORSDOF 9
ENDMDL
MODEL 9
REMARK VINA RESULT:      -7.1      1.171      3.649
REMARK  Name = 70687267
REMARK  9 active torsions:
REMARK  status: ('A' for Active; 'I' for Inactive)
REMARK    1  A    between atoms: C_3  and  C_8
REMARK    2  A    between atoms: C_3  and  C_15
REMARK    3  A    between atoms: C_15  and  O_16
REMARK    4  A    between atoms: O_16  and  C_17
REMARK    5  A    between atoms: C_17  and  C_18
REMARK    6  A    between atoms: C_18  and  C_19
REMARK    7  A    between atoms: C_19  and  N_20
REMARK    8  A    between atoms: N_20  and  C_22
REMARK    9  A    between atoms: N_20  and  C_24
REMARK                            x       y       z     vdW  Elec       q    Type
REMARK                         _______ _______ _______ _____ _____    ______ ____
ROOT
ATOM      1  C   UNL     1      32.581 -10.288 -20.675  0.00  0.00    +0.014 C 
ATOM      2  C   UNL     1      30.744 -11.525 -20.914  0.00  0.00    +0.001 C 
ATOM      3  C   UNL     1      32.063  -9.825 -22.079  0.00  0.00    +0.108 C 
ATOM      4  C   UNL     1      32.227 -11.783 -20.676  0.00  0.00    +0.001 C 
ATOM      5  C   UNL     1      30.755 -10.670 -22.200  0.00  0.00    +0.015 C 
ATOM      6  C   UNL     1      31.660  -9.786 -19.541  0.00  0.00    +0.001 C 
ATOM      7  C   UNL     1      30.388 -10.620 -19.726  0.00  0.00    +0.000 C 
ENDROOT
BRANCH   3   8
ATOM      8  C   UNL     1      31.811  -8.358 -22.175  0.00  0.00    -0.013 C 
ATOM      9  C   UNL     1      31.043  -7.850 -23.223  0.00  0.00    -0.004 C 
ATOM     10  C   UNL     1      32.342  -7.495 -21.217  0.00  0.00    -0.004 C 
ATOM     11  C   UNL     1      30.806  -6.478 -23.312  0.00  0.00    -0.000 C 
ATOM     12  C   UNL     1      32.106  -6.123 -21.306  0.00  0.00    -0.000 C 
ATOM     13  C   UNL     1      31.338  -5.614 -22.354  0.00  0.00    -0.000 C 
ENDBRANCH   3   8
BRANCH   3  15
ATOM     14  O   UNL     1      34.042  -9.541 -23.429  0.00  0.00    -0.250 OA
ATOM     15  C   UNL     1      33.049 -10.200 -23.151  0.00  0.00    +0.320 C 
BRANCH  15  16
ATOM     16  O   UNL     1      32.659 -11.366 -23.742  0.00  0.00    -0.448 OA
BRANCH  16  17
ATOM     17  C   UNL     1      33.717 -12.173 -24.268  0.00  0.00    +0.206 C 
BRANCH  17  18
ATOM     18  C   UNL     1      33.402 -13.637 -23.993  0.00  0.00    +0.025 C 
BRANCH  18  19
ATOM     19  C   UNL     1      34.235 -14.181 -22.837  0.00  0.00    -0.074 C 
BRANCH  19  20
ATOM     20  N   UNL     1      34.813 -15.472 -23.194  0.00  0.00    +0.387 N 
ATOM     21  H   UNL     1      35.808 -15.338 -23.369  0.00  0.00    -0.080 HD
BRANCH  20  22
ATOM     22  C   UNL     1      34.191 -15.996 -24.412  0.00  0.00    -0.077 C 
ATOM     23  C   UNL     1      34.751 -17.363 -24.768  0.00  0.00    -0.025 C 
ENDBRANCH  20  22
BRANCH  20  24
ATOM     24  C   UNL     1      34.659 -16.426 -22.095  0.00  0.00    -0.077 C 
ATOM     25  C   UNL     1      34.580 -15.714 -20.755  0.00  0.00    -0.025 C 
ENDBRANCH  20  24
ENDBRANCH  19  20
ENDBRANCH  18  19
ENDBRANCH  17  18
ENDBRANCH  16  17
ENDBRANCH  15  16
ENDBRANCH   3  15
TORSDOF 9
ENDMDL
