MODEL 1
REMARK VINA RESULT:     -10.7      0.000      0.000
REMARK  Name = 11844916
REMARK  7 active torsions:
REMARK  status: ('A' for Active; 'I' for Inactive)
REMARK    1  A    between atoms: N_2  and  C_16
REMARK    2  A    between atoms: C_5  and  O_8
REMARK    3  A    between atoms: O_8  and  C_9
REMARK    4  A    between atoms: C_9  and  C_10
REMARK    5  A    between atoms: C_10  and  C_12
REMARK    6  A    between atoms: C_16  and  C_17
REMARK    7  A    between atoms: C_20  and  N_24
REMARK                            x       y       z     vdW  Elec       q    Type
REMARK                         _______ _______ _______ _____ _____    ______ ____
ROOT
ATOM      1  O   UNL     1      35.090 -16.182 -20.257  0.00  0.00    -0.269 OA
ATOM      2  N   UNL     1      35.299 -17.333 -22.284  0.00  0.00    -0.250 N 
ATOM      3  C   UNL     1      34.917 -16.256 -21.472  0.00  0.00    +0.256 C 
ATOM      4  C   UNL     1      35.068 -17.340 -23.649  0.00  0.00    +0.071 C 
ATOM      5  C   UNL     1      34.044 -15.175 -23.495  0.00  0.00    +0.144 C 
ATOM      6  C   UNL     1      34.245 -15.120 -22.174  0.00  0.00    +0.095 C 
ATOM      7  C   UNL     1      34.466 -16.318 -24.266  0.00  0.00    +0.053 C 
ENDROOT
BRANCH   5   8
ATOM      8  O   UNL     1      33.428 -14.145 -24.171  0.00  0.00    -0.475 OA
BRANCH   8   9
ATOM      9  C   UNL     1      33.851 -12.890 -23.674  0.00  0.00    +0.211 C 
BRANCH   9  10
ATOM     10  C   UNL     1      33.888 -11.849 -24.788  0.00  0.00    +0.080 C 
BRANCH  10  12
ATOM     11  S   UNL     1      32.748  -9.858 -23.254  0.00  0.00    -0.091 S 
ATOM     12  C   UNL     1      33.995 -10.443 -24.246  0.00  0.00    +0.011 C 
ATOM     13  C   UNL     1      34.998  -9.551 -24.457  0.00  0.00    +0.003 C 
ATOM     14  C   UNL     1      34.743  -8.325 -23.777  0.00  0.00    +0.007 C 
ATOM     15  C   UNL     1      33.552  -8.355 -23.085  0.00  0.00    +0.035 C 
ENDBRANCH  10  12
ENDBRANCH   9  10
ENDBRANCH   8   9
ENDBRANCH   5   8
BRANCH   2  16
ATOM     16  C   UNL     1      35.961 -18.496 -21.704  0.00  0.00    +0.125 C 
BRANCH  16  17
ATOM     17  C   UNL     1      34.986 -19.417 -21.028  0.00  0.00    -0.005 C 
ATOM     18  C   UNL     1      35.432 -20.445 -20.204  0.00  0.00    -0.011 C 
ATOM     19  C   UNL     1      33.626 -19.224 -21.245  0.00  0.00    -0.003 C 
ATOM     20  C   UNL     1      34.507 -21.289 -19.589  0.00  0.00    +0.037 C 
ATOM     21  C   UNL     1      36.898 -20.644 -19.979  0.00  0.00    +0.032 C 
ATOM     22  C   UNL     1      32.701 -20.069 -20.631  0.00  0.00    +0.001 C 
ATOM     23  C   UNL     1      33.141 -21.101 -19.803  0.00  0.00    +0.014 C 
BRANCH  20  24
ATOM     24  N   UNL     1      34.933 -22.339 -18.745  0.00  0.00    -0.357 N 
ATOM     25  H   UNL     1      35.892 -22.549 -18.668  0.00  0.00    +0.142 HD
ATOM     26  H   UNL     1      34.271 -22.859 -18.236  0.00  0.00    +0.142 HD
ENDBRANCH  20  24
ENDBRANCH  16  17
ENDBRANCH   2  16
TORSDOF 7
ENDMDL
MODEL 2
REMARK VINA RESULT:     -10.5      2.195      2.687
REMARK  Name = 11844916
REMARK  7 active torsions:
REMARK  status: ('A' for Active; 'I' for Inactive)
REMARK    1  A    between atoms: N_2  and  C_16
REMARK    2  A    between atoms: C_5  and  O_8
REMARK    3  A    between atoms: O_8  and  C_9
REMARK    4  A    between atoms: C_9  and  C_10
REMARK    5  A    between atoms: C_10  and  C_12
REMARK    6  A    between atoms: C_16  and  C_17
REMARK    7  A    between atoms: C_20  and  N_24
REMARK                            x       y       z     vdW  Elec       q    Type
REMARK                         _______ _______ _______ _____ _____    ______ ____
ROOT
ATOM      1  O   UNL     1      35.131 -17.605 -24.409  0.00  0.00    -0.269 OA
ATOM      2  N   UNL     1      35.262 -17.354 -22.086  0.00  0.00    -0.250 N 
ATOM      3  C   UNL     1      34.955 -16.941 -23.389  0.00  0.00    +0.256 C 
ATOM      4  C   UNL     1      35.033 -16.544 -20.986  0.00  0.00    +0.071 C 
ATOM      5  C   UNL     1      34.166 -14.827 -22.422  0.00  0.00    +0.144 C 
ATOM      6  C   UNL     1      34.366 -15.572 -23.516  0.00  0.00    +0.095 C 
ATOM      7  C   UNL     1      34.506 -15.321 -21.111  0.00  0.00    +0.053 C 
ENDROOT
BRANCH   5   8
ATOM      8  O   UNL     1      33.626 -13.562 -22.505  0.00  0.00    -0.475 OA
BRANCH   8   9
ATOM      9  C   UNL     1      32.320 -13.533 -21.961  0.00  0.00    +0.211 C 
BRANCH   9  10
ATOM     10  C   UNL     1      31.628 -12.212 -22.280  0.00  0.00    +0.080 C 
BRANCH  10  12
ATOM     11  S   UNL     1      31.900  -9.592 -21.458  0.00  0.00    -0.091 S 
ATOM     12  C   UNL     1      31.696 -11.243 -21.123  0.00  0.00    +0.011 C 
ATOM     13  C   UNL     1      31.614 -11.532 -19.798  0.00  0.00    +0.003 C 
ATOM     14  C   UNL     1      31.721 -10.350 -19.010  0.00  0.00    +0.007 C 
ATOM     15  C   UNL     1      31.881  -9.223 -19.786  0.00  0.00    +0.035 C 
ENDBRANCH  10  12
ENDBRANCH   9  10
ENDBRANCH   8   9
ENDBRANCH   5   8
BRANCH   2  16
ATOM     16  C   UNL     1      35.841 -18.670 -21.847  0.00  0.00    +0.125 C 
BRANCH  16  17
ATOM     17  C   UNL     1      34.910 -19.562 -21.076  0.00  0.00    -0.005 C 
ATOM     18  C   UNL     1      35.406 -20.509 -20.186  0.00  0.00    -0.011 C 
ATOM     19  C   UNL     1      33.540 -19.423 -21.272  0.00  0.00    -0.003 C 
ATOM     20  C   UNL     1      34.521 -21.327 -19.483  0.00  0.00    +0.037 C 
ATOM     21  C   UNL     1      36.882 -20.650 -19.985  0.00  0.00    +0.032 C 
ATOM     22  C   UNL     1      32.655 -20.242 -20.569  0.00  0.00    +0.001 C 
ATOM     23  C   UNL     1      33.145 -21.193 -19.675  0.00  0.00    +0.014 C 
BRANCH  20  24
ATOM     24  N   UNL     1      34.997 -22.295 -18.571  0.00  0.00    -0.357 N 
ATOM     25  H   UNL     1      34.487 -22.493 -17.753  0.00  0.00    +0.142 HD
ATOM     26  H   UNL     1      35.839 -22.770 -18.755  0.00  0.00    +0.142 HD
ENDBRANCH  20  24
ENDBRANCH  16  17
ENDBRANCH   2  16
TORSDOF 7
ENDMDL
MODEL 3
REMARK VINA RESULT:     -10.5      4.864      9.740
REMARK  Name = 11844916
REMARK  7 active torsions:
REMARK  status: ('A' for Active; 'I' for Inactive)
REMARK    1  A    between atoms: N_2  and  C_16
REMARK    2  A    between atoms: C_5  and  O_8
REMARK    3  A    between atoms: O_8  and  C_9
REMARK    4  A    between atoms: C_9  and  C_10
REMARK    5  A    between atoms: C_10  and  C_12
REMARK    6  A    between atoms: C_16  and  C_17
REMARK    7  A    between atoms: C_20  and  N_24
REMARK                            x       y       z     vdW  Elec       q    Type
REMARK                         _______ _______ _______ _____ _____    ______ ____
ROOT
ATOM      1  O   UNL     1      36.928 -20.345 -20.350  0.00  0.00    -0.269 OA
ATOM      2  N   UNL     1      34.946 -19.548 -21.304  0.00  0.00    -0.250 N 
ATOM      3  C   UNL     1      35.701 -20.341 -20.430  0.00  0.00    +0.256 C 
ATOM      4  C   UNL     1      33.562 -19.601 -21.332  0.00  0.00    +0.071 C 
ATOM      5  C   UNL     1      33.582 -21.261 -19.599  0.00  0.00    +0.144 C 
ATOM      6  C   UNL     1      34.919 -21.246 -19.532  0.00  0.00    +0.095 C 
ATOM      7  C   UNL     1      32.873 -20.414 -20.525  0.00  0.00    +0.053 C 
ENDROOT
BRANCH   5   8
ATOM      8  O   UNL     1      32.833 -22.083 -18.786  0.00  0.00    -0.475 OA
BRANCH   8   9
ATOM      9  C   UNL     1      33.619 -23.141 -18.275  0.00  0.00    +0.211 C 
BRANCH   9  10
ATOM     10  C   UNL     1      33.554 -23.181 -16.752  0.00  0.00    +0.080 C 
BRANCH  10  12
ATOM     11  S   UNL     1      35.169 -24.585 -15.009  0.00  0.00    -0.091 S 
ATOM     12  C   UNL     1      34.923 -23.335 -16.130  0.00  0.00    +0.011 C 
ATOM     13  C   UNL     1      36.023 -22.572 -16.359  0.00  0.00    +0.003 C 
ATOM     14  C   UNL     1      37.129 -23.027 -15.584  0.00  0.00    +0.007 C 
ATOM     15  C   UNL     1      36.803 -24.115 -14.804  0.00  0.00    +0.035 C 
ENDBRANCH  10  12
ENDBRANCH   9  10
ENDBRANCH   8   9
ENDBRANCH   5   8
BRANCH   2  16
ATOM     16  C   UNL     1      35.606 -18.630 -22.224  0.00  0.00    +0.125 C 
BRANCH  16  17
ATOM     17  C   UNL     1      35.065 -17.233 -22.109  0.00  0.00    -0.005 C 
ATOM     18  C   UNL     1      34.662 -16.531 -23.240  0.00  0.00    -0.011 C 
ATOM     19  C   UNL     1      34.977 -16.655 -20.848  0.00  0.00    -0.003 C 
ATOM     20  C   UNL     1      34.165 -15.234 -23.107  0.00  0.00    +0.037 C 
ATOM     21  C   UNL     1      34.763 -17.163 -24.592  0.00  0.00    +0.032 C 
ATOM     22  C   UNL     1      34.480 -15.357 -20.715  0.00  0.00    +0.001 C 
ATOM     23  C   UNL     1      34.074 -14.648 -21.844  0.00  0.00    +0.014 C 
BRANCH  20  24
ATOM     24  N   UNL     1      33.746 -14.500 -24.239  0.00  0.00    -0.357 N 
ATOM     25  H   UNL     1      34.349 -14.398 -25.010  0.00  0.00    +0.142 HD
ATOM     26  H   UNL     1      32.851 -14.090 -24.256  0.00  0.00    +0.142 HD
ENDBRANCH  20  24
ENDBRANCH  16  17
ENDBRANCH   2  16
TORSDOF 7
ENDMDL
MODEL 4
REMARK VINA RESULT:     -10.4      4.956      9.929
REMARK  Name = 11844916
REMARK  7 active torsions:
REMARK  status: ('A' for Active; 'I' for Inactive)
REMARK    1  A    between atoms: N_2  and  C_16
REMARK    2  A    between atoms: C_5  and  O_8
REMARK    3  A    between atoms: O_8  and  C_9
REMARK    4  A    between atoms: C_9  and  C_10
REMARK    5  A    between atoms: C_10  and  C_12
REMARK    6  A    between atoms: C_16  and  C_17
REMARK    7  A    between atoms: C_20  and  N_24
REMARK                            x       y       z     vdW  Elec       q    Type
REMARK                         _______ _______ _______ _____ _____    ______ ____
ROOT
ATOM      1  O   UNL     1      36.993 -20.670 -20.147  0.00  0.00    -0.269 OA
ATOM      2  N   UNL     1      35.158 -19.407 -20.862  0.00  0.00    -0.250 N 
ATOM      3  C   UNL     1      35.780 -20.486 -20.219  0.00  0.00    +0.256 C 
ATOM      4  C   UNL     1      33.781 -19.270 -20.900  0.00  0.00    +0.071 C 
ATOM      5  C   UNL     1      33.537 -21.300 -19.644  0.00  0.00    +0.144 C 
ATOM      6  C   UNL     1      34.862 -21.477 -19.579  0.00  0.00    +0.095 C 
ATOM      7  C   UNL     1      32.969 -20.163 -20.324  0.00  0.00    +0.053 C 
ENDROOT
BRANCH   5   8
ATOM      8  O   UNL     1      32.665 -22.195 -19.065  0.00  0.00    -0.475 OA
BRANCH   8   9
ATOM      9  C   UNL     1      33.312 -22.956 -18.064  0.00  0.00    +0.211 C 
BRANCH   9  10
ATOM     10  C   UNL     1      32.409 -23.137 -16.848  0.00  0.00    +0.080 C 
BRANCH  10  12
ATOM     11  S   UNL     1      34.878 -23.245 -15.621  0.00  0.00    -0.091 S 
ATOM     12  C   UNL     1      33.196 -23.465 -15.601  0.00  0.00    +0.011 C 
ATOM     13  C   UNL     1      32.714 -23.934 -14.421  0.00  0.00    +0.003 C 
ATOM     14  C   UNL     1      33.766 -24.124 -13.478  0.00  0.00    +0.007 C 
ATOM     15  C   UNL     1      34.995 -23.788 -14.001  0.00  0.00    +0.035 C 
ENDBRANCH  10  12
ENDBRANCH   9  10
ENDBRANCH   8   9
ENDBRANCH   5   8
BRANCH   2  16
ATOM     16  C   UNL     1      35.958 -18.381 -21.522  0.00  0.00    +0.125 C 
BRANCH  16  17
ATOM     17  C   UNL     1      35.301 -17.875 -22.774  0.00  0.00    -0.005 C 
ATOM     18  C   UNL     1      34.731 -16.607 -22.816  0.00  0.00    -0.011 C 
ATOM     19  C   UNL     1      35.270 -18.702 -23.892  0.00  0.00    -0.003 C 
ATOM     20  C   UNL     1      34.123 -16.161 -23.990  0.00  0.00    +0.037 C 
ATOM     21  C   UNL     1      34.768 -15.727 -21.606  0.00  0.00    +0.032 C 
ATOM     22  C   UNL     1      34.663 -18.256 -25.066  0.00  0.00    +0.001 C 
ATOM     23  C   UNL     1      34.090 -16.985 -25.115  0.00  0.00    +0.014 C 
BRANCH  20  24
ATOM     24  N   UNL     1      33.540 -14.876 -24.060  0.00  0.00    -0.357 N 
ATOM     25  H   UNL     1      32.763 -14.721 -24.644  0.00  0.00    +0.142 HD
ATOM     26  H   UNL     1      33.910 -14.138 -23.526  0.00  0.00    +0.142 HD
ENDBRANCH  20  24
ENDBRANCH  16  17
ENDBRANCH   2  16
TORSDOF 7
ENDMDL
MODEL 5
REMARK VINA RESULT:     -10.3      1.525      1.939
REMARK  Name = 11844916
REMARK  7 active torsions:
REMARK  status: ('A' for Active; 'I' for Inactive)
REMARK    1  A    between atoms: N_2  and  C_16
REMARK    2  A    between atoms: C_5  and  O_8
REMARK    3  A    between atoms: O_8  and  C_9
REMARK    4  A    between atoms: C_9  and  C_10
REMARK    5  A    between atoms: C_10  and  C_12
REMARK    6  A    between atoms: C_16  and  C_17
REMARK    7  A    between atoms: C_20  and  N_24
REMARK                            x       y       z     vdW  Elec       q    Type
REMARK                         _______ _______ _______ _____ _____    ______ ____
ROOT
ATOM      1  O   UNL     1      35.159 -16.319 -20.243  0.00  0.00    -0.269 OA
ATOM      2  N   UNL     1      35.340 -17.459 -22.278  0.00  0.00    -0.250 N 
ATOM      3  C   UNL     1      34.991 -16.377 -21.459  0.00  0.00    +0.256 C 
ATOM      4  C   UNL     1      35.117 -17.447 -23.645  0.00  0.00    +0.071 C 
ATOM      5  C   UNL     1      34.168 -15.249 -23.478  0.00  0.00    +0.144 C 
ATOM      6  C   UNL     1      34.363 -15.211 -22.155  0.00  0.00    +0.095 C 
ATOM      7  C   UNL     1      34.555 -16.399 -24.256  0.00  0.00    +0.053 C 
ENDROOT
BRANCH   5   8
ATOM      8  O   UNL     1      33.593 -14.192 -24.149  0.00  0.00    -0.475 OA
BRANCH   8   9
ATOM      9  C   UNL     1      33.474 -13.063 -23.305  0.00  0.00    +0.211 C 
BRANCH   9  10
ATOM     10  C   UNL     1      32.075 -12.979 -22.703  0.00  0.00    +0.080 C 
BRANCH  10  12
ATOM     11  S   UNL     1      32.221 -10.226 -22.577  0.00  0.00    -0.091 S 
ATOM     12  C   UNL     1      31.890 -11.733 -21.869  0.00  0.00    +0.011 C 
ATOM     13  C   UNL     1      31.479 -11.658 -20.577  0.00  0.00    +0.003 C 
ATOM     14  C   UNL     1      31.428 -10.305 -20.134  0.00  0.00    +0.007 C 
ATOM     15  C   UNL     1      31.807  -9.423 -21.122  0.00  0.00    +0.035 C 
ENDBRANCH  10  12
ENDBRANCH   9  10
ENDBRANCH   8   9
ENDBRANCH   5   8
BRANCH   2  16
ATOM     16  C   UNL     1      35.957 -18.649 -21.704  0.00  0.00    +0.125 C 
BRANCH  16  17
ATOM     17  C   UNL     1      34.955 -19.514 -20.994  0.00  0.00    -0.005 C 
ATOM     18  C   UNL     1      35.371 -20.547 -20.160  0.00  0.00    -0.011 C 
ATOM     19  C   UNL     1      33.601 -19.263 -21.189  0.00  0.00    -0.003 C 
ATOM     20  C   UNL     1      34.421 -21.338 -19.514  0.00  0.00    +0.037 C 
ATOM     21  C   UNL     1      36.830 -20.809 -19.960  0.00  0.00    +0.032 C 
ATOM     22  C   UNL     1      32.651 -20.054 -20.542  0.00  0.00    +0.001 C 
ATOM     23  C   UNL     1      33.061 -21.091 -19.704  0.00  0.00    +0.014 C 
BRANCH  20  24
ATOM     24  N   UNL     1      34.816 -22.392 -18.659  0.00  0.00    -0.357 N 
ATOM     25  H   UNL     1      34.442 -22.454 -17.751  0.00  0.00    +0.142 HD
ATOM     26  H   UNL     1      35.464 -23.062 -18.973  0.00  0.00    +0.142 HD
ENDBRANCH  20  24
ENDBRANCH  16  17
ENDBRANCH   2  16
TORSDOF 7
ENDMDL
MODEL 6
REMARK VINA RESULT:     -10.1      4.797      9.791
REMARK  Name = 11844916
REMARK  7 active torsions:
REMARK  status: ('A' for Active; 'I' for Inactive)
REMARK    1  A    between atoms: N_2  and  C_16
REMARK    2  A    between atoms: C_5  and  O_8
REMARK    3  A    between atoms: O_8  and  C_9
REMARK    4  A    between atoms: C_9  and  C_10
REMARK    5  A    between atoms: C_10  and  C_12
REMARK    6  A    between atoms: C_16  and  C_17
REMARK    7  A    between atoms: C_20  and  N_24
REMARK                            x       y       z     vdW  Elec       q    Type
REMARK                         _______ _______ _______ _____ _____    ______ ____
ROOT
ATOM      1  O   UNL     1      36.904 -20.501 -20.341  0.00  0.00    -0.269 OA
ATOM      2  N   UNL     1      34.934 -19.625 -21.249  0.00  0.00    -0.250 N 
ATOM      3  C   UNL     1      35.677 -20.448 -20.392  0.00  0.00    +0.256 C 
ATOM      4  C   UNL     1      33.549 -19.623 -21.245  0.00  0.00    +0.071 C 
ATOM      5  C   UNL     1      33.543 -21.283 -19.512  0.00  0.00    +0.144 C 
ATOM      6  C   UNL     1      34.880 -21.321 -19.476  0.00  0.00    +0.095 C 
ATOM      7  C   UNL     1      32.847 -20.408 -20.422  0.00  0.00    +0.053 C 
ENDROOT
BRANCH   5   8
ATOM      8  O   UNL     1      32.781 -22.075 -18.682  0.00  0.00    -0.475 OA
BRANCH   8   9
ATOM      9  C   UNL     1      33.503 -23.220 -18.272  0.00  0.00    +0.211 C 
BRANCH   9  10
ATOM     10  C   UNL     1      33.755 -23.193 -16.767  0.00  0.00    +0.080 C 
BRANCH  10  12
ATOM     11  S   UNL     1      32.562 -23.587 -14.311  0.00  0.00    -0.091 S 
ATOM     12  C   UNL     1      32.470 -23.276 -15.976  0.00  0.00    +0.011 C 
ATOM     13  C   UNL     1      31.203 -23.128 -16.442  0.00  0.00    +0.003 C 
ATOM     14  C   UNL     1      30.252 -23.274 -15.392  0.00  0.00    +0.007 C 
ATOM     15  C   UNL     1      30.855 -23.528 -14.179  0.00  0.00    +0.035 C 
ENDBRANCH  10  12
ENDBRANCH   9  10
ENDBRANCH   8   9
ENDBRANCH   5   8
BRANCH   2  16
ATOM     16  C   UNL     1      35.609 -18.734 -22.185  0.00  0.00    +0.125 C 
BRANCH  16  17
ATOM     17  C   UNL     1      35.076 -17.331 -22.108  0.00  0.00    -0.005 C 
ATOM     18  C   UNL     1      34.676 -16.658 -23.258  0.00  0.00    -0.011 C 
ATOM     19  C   UNL     1      34.993 -16.717 -20.863  0.00  0.00    -0.003 C 
ATOM     20  C   UNL     1      34.187 -15.355 -23.161  0.00  0.00    +0.037 C 
ATOM     21  C   UNL     1      34.773 -17.328 -24.592  0.00  0.00    +0.032 C 
ATOM     22  C   UNL     1      34.504 -15.414 -20.766  0.00  0.00    +0.001 C 
ATOM     23  C   UNL     1      34.100 -14.734 -21.914  0.00  0.00    +0.014 C 
BRANCH  20  24
ATOM     24  N   UNL     1      33.772 -14.650 -24.312  0.00  0.00    -0.357 N 
ATOM     25  H   UNL     1      33.286 -13.799 -24.218  0.00  0.00    +0.142 HD
ATOM     26  H   UNL     1      33.968 -15.010 -25.206  0.00  0.00    +0.142 HD
ENDBRANCH  20  24
ENDBRANCH  16  17
ENDBRANCH   2  16
TORSDOF 7
ENDMDL
MODEL 7
REMARK VINA RESULT:     -10.1      3.972      9.147
REMARK  Name = 11844916
REMARK  7 active torsions:
REMARK  status: ('A' for Active; 'I' for Inactive)
REMARK    1  A    between atoms: N_2  and  C_16
REMARK    2  A    between atoms: C_5  and  O_8
REMARK    3  A    between atoms: O_8  and  C_9
REMARK    4  A    between atoms: C_9  and  C_10
REMARK    5  A    between atoms: C_10  and  C_12
REMARK    6  A    between atoms: C_16  and  C_17
REMARK    7  A    between atoms: C_20  and  N_24
REMARK                            x       y       z     vdW  Elec       q    Type
REMARK                         _______ _______ _______ _____ _____    ______ ____
ROOT
ATOM      1  O   UNL     1      33.832 -12.947 -23.970  0.00  0.00    -0.269 OA
ATOM      2  N   UNL     1      32.531 -13.391 -22.077  0.00  0.00    -0.250 N 
ATOM      3  C   UNL     1      33.606 -13.597 -22.951  0.00  0.00    +0.256 C 
ATOM      4  C   UNL     1      32.345 -14.168 -20.946  0.00  0.00    +0.071 C 
ATOM      5  C   UNL     1      34.315 -15.430 -21.480  0.00  0.00    +0.144 C 
ATOM      6  C   UNL     1      34.539 -14.707 -22.584  0.00  0.00    +0.095 C 
ATOM      7  C   UNL     1      33.185 -15.158 -20.628  0.00  0.00    +0.053 C 
ENDROOT
BRANCH   5   8
ATOM      8  O   UNL     1      35.154 -16.459 -21.115  0.00  0.00    -0.475 OA
BRANCH   8   9
ATOM      9  C   UNL     1      35.324 -17.375 -22.179  0.00  0.00    +0.211 C 
BRANCH   9  10
ATOM     10  C   UNL     1      35.987 -18.659 -21.691  0.00  0.00    +0.080 C 
BRANCH  10  12
ATOM     11  S   UNL     1      35.611 -20.883 -20.102  0.00  0.00    -0.091 S 
ATOM     12  C   UNL     1      35.006 -19.577 -21.000  0.00  0.00    +0.011 C 
ATOM     13  C   UNL     1      33.650 -19.489 -21.005  0.00  0.00    +0.003 C 
ATOM     14  C   UNL     1      33.068 -20.539 -20.237  0.00  0.00    +0.007 C 
ATOM     15  C   UNL     1      34.021 -21.370 -19.690  0.00  0.00    +0.035 C 
ENDBRANCH  10  12
ENDBRANCH   9  10
ENDBRANCH   8   9
ENDBRANCH   5   8
BRANCH   2  16
ATOM     16  C   UNL     1      31.559 -12.335 -22.340  0.00  0.00    +0.125 C 
BRANCH  16  17
ATOM     17  C   UNL     1      31.698 -11.192 -21.376  0.00  0.00    -0.005 C 
ATOM     18  C   UNL     1      32.160  -9.952 -21.804  0.00  0.00    -0.011 C 
ATOM     19  C   UNL     1      31.359 -11.399 -20.043  0.00  0.00    -0.003 C 
ATOM     20  C   UNL     1      32.283  -8.906 -20.888  0.00  0.00    +0.037 C 
ATOM     21  C   UNL     1      32.525  -9.742 -23.240  0.00  0.00    +0.032 C 
ATOM     22  C   UNL     1      31.482 -10.353 -19.127  0.00  0.00    +0.001 C 
ATOM     23  C   UNL     1      31.943  -9.107 -19.550  0.00  0.00    +0.014 C 
BRANCH  20  24
ATOM     24  N   UNL     1      32.747  -7.636 -21.298  0.00  0.00    -0.357 N 
ATOM     25  H   UNL     1      32.500  -7.285 -22.183  0.00  0.00    +0.142 HD
ATOM     26  H   UNL     1      33.315  -7.103 -20.696  0.00  0.00    +0.142 HD
ENDBRANCH  20  24
ENDBRANCH  16  17
ENDBRANCH   2  16
TORSDOF 7
ENDMDL
MODEL 8
REMARK VINA RESULT:     -10.1      4.902      9.933
REMARK  Name = 11844916
REMARK  7 active torsions:
REMARK  status: ('A' for Active; 'I' for Inactive)
REMARK    1  A    between atoms: N_2  and  C_16
REMARK    2  A    between atoms: C_5  and  O_8
REMARK    3  A    between atoms: O_8  and  C_9
REMARK    4  A    between atoms: C_9  and  C_10
REMARK    5  A    between atoms: C_10  and  C_12
REMARK    6  A    between atoms: C_16  and  C_17
REMARK    7  A    between atoms: C_20  and  N_24
REMARK                            x       y       z     vdW  Elec       q    Type
REMARK                         _______ _______ _______ _____ _____    ______ ____
ROOT
ATOM      1  O   UNL     1      32.828 -19.122 -20.727  0.00  0.00    -0.269 OA
ATOM      2  N   UNL     1      35.142 -19.460 -20.639  0.00  0.00    -0.250 N 
ATOM      3  C   UNL     1      33.802 -19.814 -20.435  0.00  0.00    +0.256 C 
ATOM      4  C   UNL     1      36.185 -20.298 -20.282  0.00  0.00    +0.071 C 
ATOM      5  C   UNL     1      34.613 -21.925 -19.479  0.00  0.00    +0.144 C 
ATOM      6  C   UNL     1      33.571 -21.152 -19.808  0.00  0.00    +0.095 C 
ATOM      7  C   UNL     1      35.967 -21.492 -19.721  0.00  0.00    +0.053 C 
ENDROOT
BRANCH   5   8
ATOM      8  O   UNL     1      34.434 -23.162 -18.900  0.00  0.00    -0.475 OA
BRANCH   8   9
ATOM      9  C   UNL     1      33.328 -23.152 -18.019  0.00  0.00    +0.211 C 
BRANCH   9  10
ATOM     10  C   UNL     1      33.768 -23.453 -16.590  0.00  0.00    +0.080 C 
BRANCH  10  12
ATOM     11  S   UNL     1      32.882 -23.882 -14.013  0.00  0.00    -0.091 S 
ATOM     12  C   UNL     1      32.611 -23.409 -15.619  0.00  0.00    +0.011 C 
ATOM     13  C   UNL     1      31.334 -23.026 -15.875  0.00  0.00    +0.003 C 
ATOM     14  C   UNL     1      30.528 -23.119 -14.704  0.00  0.00    +0.007 C 
ATOM     15  C   UNL     1      31.244 -23.573 -13.618  0.00  0.00    +0.035 C 
ENDBRANCH  10  12
ENDBRANCH   9  10
ENDBRANCH   8   9
ENDBRANCH   5   8
BRANCH   2  16
ATOM     16  C   UNL     1      35.482 -18.177 -21.243  0.00  0.00    +0.125 C 
BRANCH  16  17
ATOM     17  C   UNL     1      35.056 -18.103 -22.681  0.00  0.00    -0.005 C 
ATOM     18  C   UNL     1      34.651 -16.897 -23.243  0.00  0.00    -0.011 C 
ATOM     19  C   UNL     1      35.072 -19.268 -23.441  0.00  0.00    -0.003 C 
ATOM     20  C   UNL     1      34.258 -16.855 -24.581  0.00  0.00    +0.037 C 
ATOM     21  C   UNL     1      34.636 -15.651 -22.414  0.00  0.00    +0.032 C 
ATOM     22  C   UNL     1      34.679 -19.225 -24.780  0.00  0.00    +0.001 C 
ATOM     23  C   UNL     1      34.273 -18.019 -25.349  0.00  0.00    +0.014 C 
BRANCH  20  24
ATOM     24  N   UNL     1      33.845 -15.642 -25.177  0.00  0.00    -0.357 N 
ATOM     25  H   UNL     1      33.092 -15.637 -25.810  0.00  0.00    +0.142 HD
ATOM     26  H   UNL     1      34.311 -14.804 -24.958  0.00  0.00    +0.142 HD
ENDBRANCH  20  24
ENDBRANCH  16  17
ENDBRANCH   2  16
TORSDOF 7
ENDMDL
MODEL 9
REMARK VINA RESULT:     -10.0      3.825      9.276
REMARK  Name = 11844916
REMARK  7 active torsions:
REMARK  status: ('A' for Active; 'I' for Inactive)
REMARK    1  A    between atoms: N_2  and  C_16
REMARK    2  A    between atoms: C_5  and  O_8
REMARK    3  A    between atoms: O_8  and  C_9
REMARK    4  A    between atoms: C_9  and  C_10
REMARK    5  A    between atoms: C_10  and  C_12
REMARK    6  A    between atoms: C_16  and  C_17
REMARK    7  A    between atoms: C_20  and  N_24
REMARK                            x       y       z     vdW  Elec       q    Type
REMARK                         _______ _______ _______ _____ _____    ______ ____
ROOT
ATOM      1  O   UNL     1      32.309 -13.268 -19.884  0.00  0.00    -0.269 OA
ATOM      2  N   UNL     1      32.340 -12.809 -22.178  0.00  0.00    -0.250 N 
ATOM      3  C   UNL     1      32.730 -13.490 -21.017  0.00  0.00    +0.256 C 
ATOM      4  C   UNL     1      32.864 -13.120 -23.422  0.00  0.00    +0.071 C 
ATOM      5  C   UNL     1      34.222 -14.833 -22.431  0.00  0.00    +0.144 C 
ATOM      6  C   UNL     1      33.746 -14.571 -21.207  0.00  0.00    +0.095 C 
ATOM      7  C   UNL     1      33.771 -14.089 -23.580  0.00  0.00    +0.053 C 
ENDROOT
BRANCH   5   8
ATOM      8  O   UNL     1      35.157 -15.822 -22.639  0.00  0.00    -0.475 OA
BRANCH   8   9
ATOM      9  C   UNL     1      35.014 -16.861 -21.691  0.00  0.00    +0.211 C 
BRANCH   9  10
ATOM     10  C   UNL     1      34.586 -18.159 -22.368  0.00  0.00    +0.080 C 
BRANCH  10  12
ATOM     11  S   UNL     1      35.655 -20.089 -20.710  0.00  0.00    -0.091 S 
ATOM     12  C   UNL     1      34.327 -19.262 -21.368  0.00  0.00    +0.011 C 
ATOM     13  C   UNL     1      33.124 -19.695 -20.910  0.00  0.00    +0.003 C 
ATOM     14  C   UNL     1      33.285 -20.755 -19.972  0.00  0.00    +0.007 C 
ATOM     15  C   UNL     1      34.611 -21.071 -19.771  0.00  0.00    +0.035 C 
ENDBRANCH  10  12
ENDBRANCH   9  10
ENDBRANCH   8   9
ENDBRANCH   5   8
BRANCH   2  16
ATOM     16  C   UNL     1      31.357 -11.735 -22.108  0.00  0.00    +0.125 C 
BRANCH  16  17
ATOM     17  C   UNL     1      32.006 -10.382 -22.044  0.00  0.00    -0.005 C 
ATOM     18  C   UNL     1      32.011  -9.650 -20.861  0.00  0.00    -0.011 C 
ATOM     19  C   UNL     1      32.602  -9.874 -23.193  0.00  0.00    -0.003 C 
ATOM     20  C   UNL     1      32.619  -8.394 -20.828  0.00  0.00    +0.037 C 
ATOM     21  C   UNL     1      31.365 -10.206 -19.632  0.00  0.00    +0.032 C 
ATOM     22  C   UNL     1      33.210  -8.619 -23.160  0.00  0.00    +0.001 C 
ATOM     23  C   UNL     1      33.219  -7.879 -21.977  0.00  0.00    +0.014 C 
BRANCH  20  24
ATOM     24  N   UNL     1      32.640  -7.631 -19.639  0.00  0.00    -0.357 N 
ATOM     25  H   UNL     1      31.811  -7.221 -19.303  0.00  0.00    +0.142 HD
ATOM     26  H   UNL     1      33.484  -7.510 -19.148  0.00  0.00    +0.142 HD
ENDBRANCH  20  24
ENDBRANCH  16  17
ENDBRANCH   2  16
TORSDOF 7
ENDMDL
