MODEL 1
REMARK VINA RESULT:      -9.0      0.000      0.000
REMARK  Name = 162501
REMARK  7 active torsions:
REMARK  status: ('A' for Active; 'I' for Inactive)
REMARK    1  A    between atoms: C_2  and  N_16
REMARK    2  A    between atoms: C_3  and  C_20
REMARK    3  A    between atoms: C_5  and  N_8
REMARK    4  A    between atoms: C_20  and  O_21
REMARK    5  A    between atoms: O_21  and  P_22
REMARK    6  A    between atoms: P_22  and  O_24
REMARK    7  A    between atoms: P_22  and  O_26
REMARK                            x       y       z     vdW  Elec       q    Type
REMARK                         _______ _______ _______ _____ _____    ______ ____
ROOT
ATOM      1  O   UNL     1      35.926 -22.835 -14.522  0.00  0.00    -0.339 OA
ATOM      2  C   UNL     1      35.988 -25.031 -13.605  0.00  0.00    -0.031 C 
ATOM      3  C   UNL     1      36.835 -23.819 -13.995  0.00  0.00    +0.128 C 
ATOM      4  C   UNL     1      34.847 -24.952 -14.601  0.00  0.00    +0.032 C 
ATOM      5  C   UNL     1      34.660 -23.455 -14.786  0.00  0.00    +0.197 C 
ENDROOT
BRANCH   5   8
ATOM      6  O   UNL     1      31.994 -23.703 -15.761  0.00  0.00    -0.252 OA
ATOM      7  O   UNL     1      33.172 -22.055 -19.890  0.00  0.00    -0.270 OA
ATOM      8  N   UNL     1      34.224 -23.104 -16.107  0.00  0.00    -0.219 N 
ATOM      9  N   UNL     1      32.596 -22.880 -17.816  0.00  0.00    -0.236 N 
ATOM     10  C   UNL     1      35.161 -22.600 -17.001  0.00  0.00    +0.071 C 
ATOM     11  C   UNL     1      32.878 -23.263 -16.500  0.00  0.00    +0.315 C 
ATOM     12  C   UNL     1      34.887 -22.235 -18.259  0.00  0.00    +0.047 C 
ATOM     13  C   UNL     1      33.490 -22.372 -18.747  0.00  0.00    +0.250 C 
ATOM     14  C   UNL     1      35.911 -21.695 -19.205  0.00  0.00    +0.037 C 
ATOM     15  H   UNL     1      31.663 -22.982 -18.113  0.00  0.00    +0.159 HD
ENDBRANCH   5   8
BRANCH   2  16
ATOM     16  N   UNL     1      35.498 -24.883 -12.233  0.00  0.00    +0.384 N 
ATOM     17  H   UNL     1      34.566 -24.471 -12.249  0.00  0.00    -0.089 HD
ATOM     18  H   UNL     1      36.130 -24.277 -11.710  0.00  0.00    -0.089 HD
ATOM     19  H   UNL     1      35.458 -25.799 -11.786  0.00  0.00    -0.089 HD
ENDBRANCH   2  16
BRANCH   3  20
ATOM     20  C   UNL     1      37.856 -24.140 -15.082  0.00  0.00    +0.181 C 
BRANCH  20  21
ATOM     21  O   UNL     1      39.110 -24.399 -14.473  0.00  0.00    -0.271 OA
BRANCH  21  22
ATOM     22  P   UNL     1      39.805 -25.839 -14.720  0.00  0.00    +0.473 P 
ATOM     23  O   UNL     1      40.871 -26.207 -13.729  0.00  0.00    -0.227 OA
BRANCH  22  24
ATOM     24  O   UNL     1      40.288 -25.773 -16.262  0.00  0.00    -0.303 OA
ATOM     25  H   UNL     1      40.055 -24.910 -16.637  0.00  0.00    +0.222 HD
ENDBRANCH  22  24
BRANCH  22  26
ATOM     26  O   UNL     1      38.541 -26.845 -14.768  0.00  0.00    -0.303 OA
ATOM     27  H   UNL     1      38.697 -27.590 -14.166  0.00  0.00    +0.222 HD
ENDBRANCH  22  26
ENDBRANCH  21  22
ENDBRANCH  20  21
ENDBRANCH   3  20
TORSDOF 7
ENDMDL
MODEL 2
REMARK VINA RESULT:      -9.0      2.775      4.120
REMARK  Name = 162501
REMARK  7 active torsions:
REMARK  status: ('A' for Active; 'I' for Inactive)
REMARK    1  A    between atoms: C_2  and  N_16
REMARK    2  A    between atoms: C_3  and  C_20
REMARK    3  A    between atoms: C_5  and  N_8
REMARK    4  A    between atoms: C_20  and  O_21
REMARK    5  A    between atoms: O_21  and  P_22
REMARK    6  A    between atoms: P_22  and  O_24
REMARK    7  A    between atoms: P_22  and  O_26
REMARK                            x       y       z     vdW  Elec       q    Type
REMARK                         _______ _______ _______ _____ _____    ______ ____
ROOT
ATOM      1  O   UNL     1      35.564 -24.932 -15.931  0.00  0.00    -0.339 OA
ATOM      2  C   UNL     1      37.163 -23.530 -14.861  0.00  0.00    -0.031 C 
ATOM      3  C   UNL     1      36.553 -24.932 -14.884  0.00  0.00    +0.128 C 
ATOM      4  C   UNL     1      36.004 -22.674 -15.333  0.00  0.00    +0.032 C 
ATOM      5  C   UNL     1      35.292 -23.580 -16.324  0.00  0.00    +0.197 C 
ENDROOT
BRANCH   5   8
ATOM      6  O   UNL     1      33.739 -23.184 -18.680  0.00  0.00    -0.252 OA
ATOM      7  O   UNL     1      29.852 -22.788 -16.254  0.00  0.00    -0.270 OA
ATOM      8  N   UNL     1      33.873 -23.369 -16.356  0.00  0.00    -0.219 N 
ATOM      9  N   UNL     1      31.808 -22.988 -17.457  0.00  0.00    -0.236 N 
ATOM     10  C   UNL     1      33.179 -23.353 -15.152  0.00  0.00    +0.071 C 
ATOM     11  C   UNL     1      33.189 -23.182 -17.576  0.00  0.00    +0.315 C 
ATOM     12  C   UNL     1      31.858 -23.167 -15.042  0.00  0.00    +0.047 C 
ATOM     13  C   UNL     1      31.067 -22.963 -16.285  0.00  0.00    +0.250 C 
ATOM     14  C   UNL     1      31.131 -23.153 -13.737  0.00  0.00    +0.037 C 
ATOM     15  H   UNL     1      31.309 -22.855 -18.295  0.00  0.00    +0.159 HD
ENDBRANCH   5   8
BRANCH   2  16
ATOM     16  N   UNL     1      38.286 -23.455 -15.798  0.00  0.00    +0.384 N 
ATOM     17  H   UNL     1      37.977 -23.014 -16.664  0.00  0.00    -0.089 HD
ATOM     18  H   UNL     1      38.627 -24.394 -15.996  0.00  0.00    -0.089 HD
ATOM     19  H   UNL     1      39.037 -22.901 -15.384  0.00  0.00    -0.089 HD
ENDBRANCH   2  16
BRANCH   3  20
ATOM     20  C   UNL     1      35.850 -25.289 -13.578  0.00  0.00    +0.181 C 
BRANCH  20  21
ATOM     21  O   UNL     1      36.678 -24.905 -12.492  0.00  0.00    -0.271 OA
BRANCH  21  22
ATOM     22  P   UNL     1      36.022 -24.043 -11.290  0.00  0.00    +0.473 P 
ATOM     23  O   UNL     1      36.953 -23.069 -10.627  0.00  0.00    -0.227 OA
BRANCH  22  24
ATOM     24  O   UNL     1      35.387 -25.166 -10.313  0.00  0.00    -0.303 OA
ATOM     25  H   UNL     1      35.482 -26.040 -10.723  0.00  0.00    +0.222 HD
ENDBRANCH  22  24
BRANCH  22  26
ATOM     26  O   UNL     1      34.724 -23.381 -11.988  0.00  0.00    -0.303 OA
ATOM     27  H   UNL     1      34.518 -23.857 -12.808  0.00  0.00    +0.222 HD
ENDBRANCH  22  26
ENDBRANCH  21  22
ENDBRANCH  20  21
ENDBRANCH   3  20
TORSDOF 7
ENDMDL
MODEL 3
REMARK VINA RESULT:      -8.6      2.704      3.952
REMARK  Name = 162501
REMARK  7 active torsions:
REMARK  status: ('A' for Active; 'I' for Inactive)
REMARK    1  A    between atoms: C_2  and  N_16
REMARK    2  A    between atoms: C_3  and  C_20
REMARK    3  A    between atoms: C_5  and  N_8
REMARK    4  A    between atoms: C_20  and  O_21
REMARK    5  A    between atoms: O_21  and  P_22
REMARK    6  A    between atoms: P_22  and  O_24
REMARK    7  A    between atoms: P_22  and  O_26
REMARK                            x       y       z     vdW  Elec       q    Type
REMARK                         _______ _______ _______ _____ _____    ______ ____
ROOT
ATOM      1  O   UNL     1      35.263 -24.693 -15.791  0.00  0.00    -0.339 OA
ATOM      2  C   UNL     1      36.888 -23.108 -15.072  0.00  0.00    -0.031 C 
ATOM      3  C   UNL     1      36.338 -24.517 -14.848  0.00  0.00    +0.128 C 
ATOM      4  C   UNL     1      35.657 -22.361 -15.549  0.00  0.00    +0.032 C 
ATOM      5  C   UNL     1      34.902 -23.417 -16.339  0.00  0.00    +0.197 C 
ENDROOT
BRANCH   5   8
ATOM      6  O   UNL     1      33.216 -22.737 -18.532  0.00  0.00    -0.252 OA
ATOM      7  O   UNL     1      29.453 -22.842 -15.890  0.00  0.00    -0.270 OA
ATOM      8  N   UNL     1      33.478 -23.255 -16.271  0.00  0.00    -0.219 N 
ATOM      9  N   UNL     1      31.348 -22.793 -17.202  0.00  0.00    -0.236 N 
ATOM     10  C   UNL     1      32.849 -23.441 -15.046  0.00  0.00    +0.071 C 
ATOM     11  C   UNL     1      32.725 -22.917 -17.415  0.00  0.00    +0.315 C 
ATOM     12  C   UNL     1      31.531 -23.321 -14.846  0.00  0.00    +0.047 C 
ATOM     13  C   UNL     1      30.670 -22.967 -16.005  0.00  0.00    +0.250 C 
ATOM     14  C   UNL     1      30.873 -23.525 -13.519  0.00  0.00    +0.037 C 
ATOM     15  H   UNL     1      30.801 -22.557 -17.986  0.00  0.00    +0.159 HD
ENDBRANCH   5   8
BRANCH   2  16
ATOM     16  N   UNL     1      37.923 -23.130 -16.108  0.00  0.00    +0.384 N 
ATOM     17  H   UNL     1      38.753 -23.600 -15.748  0.00  0.00    -0.089 HD
ATOM     18  H   UNL     1      38.160 -22.175 -16.373  0.00  0.00    -0.089 HD
ATOM     19  H   UNL     1      37.575 -23.633 -16.924  0.00  0.00    -0.089 HD
ENDBRANCH   2  16
BRANCH   3  20
ATOM     20  C   UNL     1      35.765 -24.709 -13.447  0.00  0.00    +0.181 C 
BRANCH  20  21
ATOM     21  O   UNL     1      36.139 -23.602 -12.643  0.00  0.00    -0.271 OA
BRANCH  21  22
ATOM     22  P   UNL     1      37.296 -23.812 -11.532  0.00  0.00    +0.473 P 
ATOM     23  O   UNL     1      38.407 -22.803 -11.575  0.00  0.00    -0.227 OA
BRANCH  22  24
ATOM     24  O   UNL     1      37.752 -25.350 -11.739  0.00  0.00    -0.303 OA
ATOM     25  H   UNL     1      37.015 -25.938 -11.513  0.00  0.00    +0.222 HD
ENDBRANCH  22  24
BRANCH  22  26
ATOM     26  O   UNL     1      36.463 -23.853 -10.148  0.00  0.00    -0.303 OA
ATOM     27  H   UNL     1      35.515 -23.772 -10.338  0.00  0.00    +0.222 HD
ENDBRANCH  22  26
ENDBRANCH  21  22
ENDBRANCH  20  21
ENDBRANCH   3  20
TORSDOF 7
ENDMDL
MODEL 4
REMARK VINA RESULT:      -8.4      1.662      2.499
REMARK  Name = 162501
REMARK  7 active torsions:
REMARK  status: ('A' for Active; 'I' for Inactive)
REMARK    1  A    between atoms: C_2  and  N_16
REMARK    2  A    between atoms: C_3  and  C_20
REMARK    3  A    between atoms: C_5  and  N_8
REMARK    4  A    between atoms: C_20  and  O_21
REMARK    5  A    between atoms: O_21  and  P_22
REMARK    6  A    between atoms: P_22  and  O_24
REMARK    7  A    between atoms: P_22  and  O_26
REMARK                            x       y       z     vdW  Elec       q    Type
REMARK                         _______ _______ _______ _____ _____    ______ ____
ROOT
ATOM      1  O   UNL     1      36.936 -23.548 -14.002  0.00  0.00    -0.339 OA
ATOM      2  C   UNL     1      36.280 -24.915 -12.167  0.00  0.00    -0.031 C 
ATOM      3  C   UNL     1      37.368 -24.673 -13.212  0.00  0.00    +0.128 C 
ATOM      4  C   UNL     1      35.034 -24.444 -12.893  0.00  0.00    +0.032 C 
ATOM      5  C   UNL     1      35.549 -23.293 -13.741  0.00  0.00    +0.197 C 
ENDROOT
BRANCH   5   8
ATOM      6  O   UNL     1      36.740 -22.610 -16.238  0.00  0.00    -0.252 OA
ATOM      7  O   UNL     1      32.696 -22.823 -18.418  0.00  0.00    -0.270 OA
ATOM      8  N   UNL     1      34.847 -23.158 -14.985  0.00  0.00    -0.219 N 
ATOM      9  N   UNL     1      34.716 -22.719 -17.312  0.00  0.00    -0.236 N 
ATOM     10  C   UNL     1      33.475 -23.374 -14.998  0.00  0.00    +0.071 C 
ATOM     11  C   UNL     1      35.526 -22.815 -16.175  0.00  0.00    +0.315 C 
ATOM     12  C   UNL     1      32.703 -23.281 -16.089  0.00  0.00    +0.047 C 
ATOM     13  C   UNL     1      33.346 -22.924 -17.380  0.00  0.00    +0.250 C 
ATOM     14  C   UNL     1      31.227 -23.517 -16.080  0.00  0.00    +0.037 C 
ATOM     15  H   UNL     1      35.167 -22.481 -18.154  0.00  0.00    +0.159 HD
ENDBRANCH   5   8
BRANCH   2  16
ATOM     16  N   UNL     1      36.534 -24.099 -10.978  0.00  0.00    +0.384 N 
ATOM     17  H   UNL     1      37.285 -23.438 -11.174  0.00  0.00    -0.089 HD
ATOM     18  H   UNL     1      36.806 -24.702 -10.203  0.00  0.00    -0.089 HD
ATOM     19  H   UNL     1      35.687 -23.587 -10.729  0.00  0.00    -0.089 HD
ENDBRANCH   2  16
BRANCH   3  20
ATOM     20  C   UNL     1      37.554 -25.859 -14.154  0.00  0.00    +0.181 C 
BRANCH  20  21
ATOM     21  O   UNL     1      38.923 -26.229 -14.160  0.00  0.00    -0.271 OA
BRANCH  21  22
ATOM     22  P   UNL     1      39.990 -25.225 -14.847  0.00  0.00    +0.473 P 
ATOM     23  O   UNL     1      40.972 -24.599 -13.900  0.00  0.00    -0.227 OA
BRANCH  22  24
ATOM     24  O   UNL     1      39.064 -24.185 -15.670  0.00  0.00    -0.303 OA
ATOM     25  H   UNL     1      38.203 -24.593 -15.851  0.00  0.00    +0.222 HD
ENDBRANCH  22  24
BRANCH  22  26
ATOM     26  O   UNL     1      40.647 -26.138 -16.008  0.00  0.00    -0.303 OA
ATOM     27  H   UNL     1      41.546 -26.394 -15.749  0.00  0.00    +0.222 HD
ENDBRANCH  22  26
ENDBRANCH  21  22
ENDBRANCH  20  21
ENDBRANCH   3  20
TORSDOF 7
ENDMDL
MODEL 5
REMARK VINA RESULT:      -8.4      4.010      6.891
REMARK  Name = 162501
REMARK  7 active torsions:
REMARK  status: ('A' for Active; 'I' for Inactive)
REMARK    1  A    between atoms: C_2  and  N_16
REMARK    2  A    between atoms: C_3  and  C_20
REMARK    3  A    between atoms: C_5  and  N_8
REMARK    4  A    between atoms: C_20  and  O_21
REMARK    5  A    between atoms: O_21  and  P_22
REMARK    6  A    between atoms: P_22  and  O_24
REMARK    7  A    between atoms: P_22  and  O_26
REMARK                            x       y       z     vdW  Elec       q    Type
REMARK                         _______ _______ _______ _____ _____    ______ ____
ROOT
ATOM      1  O   UNL     1      32.183 -23.939 -16.974  0.00  0.00    -0.339 OA
ATOM      2  C   UNL     1      32.217 -23.681 -14.607  0.00  0.00    -0.031 C 
ATOM      3  C   UNL     1      31.315 -23.752 -15.840  0.00  0.00    +0.128 C 
ATOM      4  C   UNL     1      33.488 -23.084 -15.181  0.00  0.00    +0.032 C 
ATOM      5  C   UNL     1      33.536 -23.666 -16.583  0.00  0.00    +0.197 C 
ENDROOT
BRANCH   5   8
ATOM      6  O   UNL     1      36.304 -23.001 -16.697  0.00  0.00    -0.252 OA
ATOM      7  O   UNL     1      35.666 -20.241 -20.320  0.00  0.00    -0.270 OA
ATOM      8  N   UNL     1      34.137 -22.779 -17.537  0.00  0.00    -0.219 N 
ATOM      9  N   UNL     1      35.971 -21.627 -18.503  0.00  0.00    -0.236 N 
ATOM     10  C   UNL     1      33.323 -22.184 -18.493  0.00  0.00    +0.071 C 
ATOM     11  C   UNL     1      35.522 -22.510 -17.515  0.00  0.00    +0.315 C 
ATOM     12  C   UNL     1      33.755 -21.340 -19.438  0.00  0.00    +0.047 C 
ATOM     13  C   UNL     1      35.204 -21.008 -19.479  0.00  0.00    +0.250 C 
ATOM     14  C   UNL     1      32.861 -20.711 -20.457  0.00  0.00    +0.037 C 
ATOM     15  H   UNL     1      36.934 -21.424 -18.507  0.00  0.00    +0.159 HD
ENDBRANCH   5   8
BRANCH   2  16
ATOM     16  N   UNL     1      32.460 -25.028 -14.084  0.00  0.00    +0.384 N 
ATOM     17  H   UNL     1      32.539 -24.988 -13.068  0.00  0.00    -0.089 HD
ATOM     18  H   UNL     1      33.325 -25.395 -14.479  0.00  0.00    -0.089 HD
ATOM     19  H   UNL     1      31.683 -25.637 -14.341  0.00  0.00    -0.089 HD
ENDBRANCH   2  16
BRANCH   3  20
ATOM     20  C   UNL     1      30.525 -22.467 -16.065  0.00  0.00    +0.181 C 
BRANCH  20  21
ATOM     21  O   UNL     1      29.637 -22.658 -17.154  0.00  0.00    -0.271 OA
BRANCH  21  22
ATOM     22  P   UNL     1      28.053 -22.776 -16.846  0.00  0.00    +0.473 P 
ATOM     23  O   UNL     1      27.257 -21.537 -17.137  0.00  0.00    -0.227 OA
BRANCH  22  24
ATOM     24  O   UNL     1      27.997 -23.290 -15.314  0.00  0.00    -0.303 OA
ATOM     25  H   UNL     1      27.093 -23.569 -15.100  0.00  0.00    +0.222 HD
ENDBRANCH  22  24
BRANCH  22  26
ATOM     26  O   UNL     1      27.618 -24.082 -17.693  0.00  0.00    -0.303 OA
ATOM     27  H   UNL     1      28.033 -24.052 -18.570  0.00  0.00    +0.222 HD
ENDBRANCH  22  26
ENDBRANCH  21  22
ENDBRANCH  20  21
ENDBRANCH   3  20
TORSDOF 7
ENDMDL
MODEL 6
REMARK VINA RESULT:      -8.2      4.042      7.121
REMARK  Name = 162501
REMARK  7 active torsions:
REMARK  status: ('A' for Active; 'I' for Inactive)
REMARK    1  A    between atoms: C_2  and  N_16
REMARK    2  A    between atoms: C_3  and  C_20
REMARK    3  A    between atoms: C_5  and  N_8
REMARK    4  A    between atoms: C_20  and  O_21
REMARK    5  A    between atoms: O_21  and  P_22
REMARK    6  A    between atoms: P_22  and  O_24
REMARK    7  A    between atoms: P_22  and  O_26
REMARK                            x       y       z     vdW  Elec       q    Type
REMARK                         _______ _______ _______ _____ _____    ______ ____
ROOT
ATOM      1  O   UNL     1      31.441 -24.170 -15.972  0.00  0.00    -0.339 OA
ATOM      2  C   UNL     1      30.778 -23.523 -13.779  0.00  0.00    -0.031 C 
ATOM      3  C   UNL     1      30.318 -23.657 -15.230  0.00  0.00    +0.128 C 
ATOM      4  C   UNL     1      32.260 -23.242 -13.942  0.00  0.00    +0.032 C 
ATOM      5  C   UNL     1      32.627 -24.054 -15.173  0.00  0.00    +0.197 C 
ENDROOT
BRANCH   5   8
ATOM      6  O   UNL     1      35.272 -23.525 -14.258  0.00  0.00    -0.252 OA
ATOM      7  O   UNL     1      36.496 -21.727 -18.310  0.00  0.00    -0.270 OA
ATOM      8  N   UNL     1      33.668 -23.449 -15.953  0.00  0.00    -0.219 N 
ATOM      9  N   UNL     1      35.868 -22.630 -16.284  0.00  0.00    -0.236 N 
ATOM     10  C   UNL     1      33.387 -23.084 -17.264  0.00  0.00    +0.071 C 
ATOM     11  C   UNL     1      34.952 -23.226 -15.411  0.00  0.00    +0.315 C 
ATOM     12  C   UNL     1      34.267 -22.514 -18.096  0.00  0.00    +0.047 C 
ATOM     13  C   UNL     1      35.641 -22.247 -17.597  0.00  0.00    +0.250 C 
ATOM     14  C   UNL     1      33.943 -22.128 -19.504  0.00  0.00    +0.037 C 
ATOM     15  H   UNL     1      36.771 -22.465 -15.928  0.00  0.00    +0.159 HD
ENDBRANCH   5   8
BRANCH   2  16
ATOM     16  N   UNL     1      30.559 -24.782 -13.063  0.00  0.00    +0.384 N 
ATOM     17  H   UNL     1      31.356 -24.970 -12.455  0.00  0.00    -0.089 HD
ATOM     18  H   UNL     1      30.456 -25.541 -13.735  0.00  0.00    -0.089 HD
ATOM     19  H   UNL     1      29.712 -24.709 -12.500  0.00  0.00    -0.089 HD
ENDBRANCH   2  16
BRANCH   3  20
ATOM     20  C   UNL     1      29.923 -22.319 -15.848  0.00  0.00    +0.181 C 
BRANCH  20  21
ATOM     21  O   UNL     1      29.265 -22.559 -17.081  0.00  0.00    -0.271 OA
BRANCH  21  22
ATOM     22  P   UNL     1      27.708 -23.000 -17.050  0.00  0.00    +0.473 P 
ATOM     23  O   UNL     1      26.978 -22.662 -15.783  0.00  0.00    -0.227 OA
BRANCH  22  24
ATOM     24  O   UNL     1      27.747 -24.573 -17.426  0.00  0.00    -0.303 OA
ATOM     25  H   UNL     1      28.195 -25.063 -16.720  0.00  0.00    +0.222 HD
ENDBRANCH  22  24
BRANCH  22  26
ATOM     26  O   UNL     1      27.113 -22.313 -18.386  0.00  0.00    -0.303 OA
ATOM     27  H   UNL     1      27.066 -22.972 -19.097  0.00  0.00    +0.222 HD
ENDBRANCH  22  26
ENDBRANCH  21  22
ENDBRANCH  20  21
ENDBRANCH   3  20
TORSDOF 7
ENDMDL
MODEL 7
REMARK VINA RESULT:      -7.8      7.304     11.314
REMARK  Name = 162501
REMARK  7 active torsions:
REMARK  status: ('A' for Active; 'I' for Inactive)
REMARK    1  A    between atoms: C_2  and  N_16
REMARK    2  A    between atoms: C_3  and  C_20
REMARK    3  A    between atoms: C_5  and  N_8
REMARK    4  A    between atoms: C_20  and  O_21
REMARK    5  A    between atoms: O_21  and  P_22
REMARK    6  A    between atoms: P_22  and  O_24
REMARK    7  A    between atoms: P_22  and  O_26
REMARK                            x       y       z     vdW  Elec       q    Type
REMARK                         _______ _______ _______ _____ _____    ______ ____
ROOT
ATOM      1  O   UNL     1      35.688 -16.789 -22.403  0.00  0.00    -0.339 OA
ATOM      2  C   UNL     1      34.365 -16.898 -24.380  0.00  0.00    -0.031 C 
ATOM      3  C   UNL     1      34.702 -16.052 -23.152  0.00  0.00    +0.128 C 
ATOM      4  C   UNL     1      34.585 -18.307 -23.863  0.00  0.00    +0.032 C 
ATOM      5  C   UNL     1      35.740 -18.137 -22.891  0.00  0.00    +0.197 C 
ENDROOT
BRANCH   5   8
ATOM      6  O   UNL     1      37.970 -19.004 -21.344  0.00  0.00    -0.252 OA
ATOM      7  O   UNL     1      35.308 -21.635 -18.671  0.00  0.00    -0.270 OA
ATOM      8  N   UNL     1      35.678 -19.047 -21.784  0.00  0.00    -0.219 N 
ATOM      9  N   UNL     1      36.630 -20.312 -20.019  0.00  0.00    -0.236 N 
ATOM     10  C   UNL     1      34.439 -19.560 -21.417  0.00  0.00    +0.071 C 
ATOM     11  C   UNL     1      36.840 -19.419 -21.075  0.00  0.00    +0.315 C 
ATOM     12  C   UNL     1      34.242 -20.414 -20.406  0.00  0.00    +0.047 C 
ATOM     13  C   UNL     1      35.420 -20.853 -19.612  0.00  0.00    +0.250 C 
ATOM     14  C   UNL     1      32.900 -20.954 -20.029  0.00  0.00    +0.037 C 
ATOM     15  H   UNL     1      37.427 -20.586 -19.511  0.00  0.00    +0.159 HD
ENDBRANCH   5   8
BRANCH   2  16
ATOM     16  N   UNL     1      35.291 -16.589 -25.472  0.00  0.00    +0.384 N 
ATOM     17  H   UNL     1      35.325 -17.375 -26.121  0.00  0.00    -0.089 HD
ATOM     18  H   UNL     1      36.222 -16.421 -25.091  0.00  0.00    -0.089 HD
ATOM     19  H   UNL     1      34.970 -15.756 -25.965  0.00  0.00    -0.089 HD
ENDBRANCH   2  16
BRANCH   3  20
ATOM     20  C   UNL     1      33.497 -15.831 -22.242  0.00  0.00    +0.181 C 
BRANCH  20  21
ATOM     21  O   UNL     1      33.364 -14.442 -21.988  0.00  0.00    -0.271 OA
BRANCH  21  22
ATOM     22  P   UNL     1      32.874 -13.481 -23.194  0.00  0.00    +0.473 P 
ATOM     23  O   UNL     1      32.374 -14.198 -24.414  0.00  0.00    -0.227 OA
BRANCH  22  24
ATOM     24  O   UNL     1      34.136 -12.498 -23.438  0.00  0.00    -0.303 OA
ATOM     25  H   UNL     1      33.853 -11.735 -23.966  0.00  0.00    +0.222 HD
ENDBRANCH  22  24
BRANCH  22  26
ATOM     26  O   UNL     1      31.790 -12.522 -22.473  0.00  0.00    -0.303 OA
ATOM     27  H   UNL     1      30.978 -13.024 -22.302  0.00  0.00    +0.222 HD
ENDBRANCH  22  26
ENDBRANCH  21  22
ENDBRANCH  20  21
ENDBRANCH   3  20
TORSDOF 7
ENDMDL
MODEL 8
REMARK VINA RESULT:      -7.6     10.437     13.284
REMARK  Name = 162501
REMARK  7 active torsions:
REMARK  status: ('A' for Active; 'I' for Inactive)
REMARK    1  A    between atoms: C_2  and  N_16
REMARK    2  A    between atoms: C_3  and  C_20
REMARK    3  A    between atoms: C_5  and  N_8
REMARK    4  A    between atoms: C_20  and  O_21
REMARK    5  A    between atoms: O_21  and  P_22
REMARK    6  A    between atoms: P_22  and  O_24
REMARK    7  A    between atoms: P_22  and  O_26
REMARK                            x       y       z     vdW  Elec       q    Type
REMARK                         _______ _______ _______ _____ _____    ______ ____
ROOT
ATOM      1  O   UNL     1      32.033 -13.928 -22.358  0.00  0.00    -0.339 OA
ATOM      2  C   UNL     1      33.910 -14.495 -23.708  0.00  0.00    -0.031 C 
ATOM      3  C   UNL     1      33.057 -14.928 -22.515  0.00  0.00    +0.128 C 
ATOM      4  C   UNL     1      33.792 -12.984 -23.648  0.00  0.00    +0.032 C 
ATOM      5  C   UNL     1      32.378 -12.772 -23.135  0.00  0.00    +0.197 C 
ENDROOT
BRANCH   5   8
ATOM      6  O   UNL     1      32.863 -10.105 -24.011  0.00  0.00    -0.252 OA
ATOM      7  O   UNL     1      31.822  -8.378 -19.878  0.00  0.00    -0.270 OA
ATOM      8  N   UNL     1      32.247 -11.596 -22.324  0.00  0.00    -0.219 N 
ATOM      9  N   UNL     1      32.342  -9.258 -21.944  0.00  0.00    -0.236 N 
ATOM     10  C   UNL     1      31.852 -11.746 -21.000  0.00  0.00    +0.071 C 
ATOM     11  C   UNL     1      32.510 -10.312 -22.848  0.00  0.00    +0.315 C 
ATOM     12  C   UNL     1      31.692 -10.734 -20.138  0.00  0.00    +0.047 C 
ATOM     13  C   UNL     1      31.950  -9.351 -20.617  0.00  0.00    +0.250 C 
ATOM     14  C   UNL     1      31.267 -10.918 -18.717  0.00  0.00    +0.037 C 
ATOM     15  H   UNL     1      32.520  -8.352 -22.287  0.00  0.00    +0.159 HD
ENDBRANCH   5   8
BRANCH   2  16
ATOM     16  N   UNL     1      33.338 -15.017 -24.951  0.00  0.00    +0.384 N 
ATOM     17  H   UNL     1      32.343 -15.196 -24.818  0.00  0.00    -0.089 HD
ATOM     18  H   UNL     1      33.809 -15.884 -25.205  0.00  0.00    -0.089 HD
ATOM     19  H   UNL     1      33.462 -14.331 -25.697  0.00  0.00    -0.089 HD
ENDBRANCH   2  16
BRANCH   3  20
ATOM     20  C   UNL     1      33.853 -14.988 -21.215  0.00  0.00    +0.181 C 
BRANCH  20  21
ATOM     21  O   UNL     1      34.941 -15.882 -21.384  0.00  0.00    -0.271 OA
BRANCH  21  22
ATOM     22  P   UNL     1      34.634 -17.469 -21.437  0.00  0.00    +0.473 P 
ATOM     23  O   UNL     1      33.277 -17.870 -20.936  0.00  0.00    -0.227 OA
BRANCH  22  24
ATOM     24  O   UNL     1      35.884 -18.129 -20.650  0.00  0.00    -0.303 OA
ATOM     25  H   UNL     1      35.758 -18.018 -19.695  0.00  0.00    +0.222 HD
ENDBRANCH  22  24
BRANCH  22  26
ATOM     26  O   UNL     1      34.930 -17.842 -22.982  0.00  0.00    -0.303 OA
ATOM     27  H   UNL     1      35.881 -17.986 -23.105  0.00  0.00    +0.222 HD
ENDBRANCH  22  26
ENDBRANCH  21  22
ENDBRANCH  20  21
ENDBRANCH   3  20
TORSDOF 7
ENDMDL
MODEL 9
REMARK VINA RESULT:      -7.4      3.205      5.569
REMARK  Name = 162501
REMARK  7 active torsions:
REMARK  status: ('A' for Active; 'I' for Inactive)
REMARK    1  A    between atoms: C_2  and  N_16
REMARK    2  A    between atoms: C_3  and  C_20
REMARK    3  A    between atoms: C_5  and  N_8
REMARK    4  A    between atoms: C_20  and  O_21
REMARK    5  A    between atoms: O_21  and  P_22
REMARK    6  A    between atoms: P_22  and  O_24
REMARK    7  A    between atoms: P_22  and  O_26
REMARK                            x       y       z     vdW  Elec       q    Type
REMARK                         _______ _______ _______ _____ _____    ______ ____
ROOT
ATOM      1  O   UNL     1      34.426 -24.621 -15.309  0.00  0.00    -0.339 OA
ATOM      2  C   UNL     1      34.689 -23.938 -13.043  0.00  0.00    -0.031 C 
ATOM      3  C   UNL     1      33.703 -24.496 -14.069  0.00  0.00    +0.128 C 
ATOM      4  C   UNL     1      35.612 -23.106 -13.913  0.00  0.00    +0.032 C 
ATOM      5  C   UNL     1      35.658 -23.893 -15.212  0.00  0.00    +0.197 C 
ENDROOT
BRANCH   5   8
ATOM      6  O   UNL     1      38.038 -22.507 -15.942  0.00  0.00    -0.252 OA
ATOM      7  O   UNL     1      36.054 -20.730 -19.691  0.00  0.00    -0.270 OA
ATOM      8  N   UNL     1      35.809 -23.057 -16.368  0.00  0.00    -0.219 N 
ATOM      9  N   UNL     1      37.035 -21.627 -17.808  0.00  0.00    -0.236 N 
ATOM     10  C   UNL     1      34.720 -22.896 -17.215  0.00  0.00    +0.071 C 
ATOM     11  C   UNL     1      37.032 -22.410 -16.648  0.00  0.00    +0.315 C 
ATOM     12  C   UNL     1      34.727 -22.147 -18.324  0.00  0.00    +0.047 C 
ATOM     13  C   UNL     1      35.980 -21.433 -18.687  0.00  0.00    +0.250 C 
ATOM     14  C   UNL     1      33.543 -21.986 -19.222  0.00  0.00    +0.037 C 
ATOM     15  H   UNL     1      37.877 -21.166 -18.024  0.00  0.00    +0.159 HD
ENDBRANCH   5   8
BRANCH   2  16
ATOM     16  N   UNL     1      35.420 -25.032 -12.400  0.00  0.00    +0.384 N 
ATOM     17  H   UNL     1      36.113 -25.404 -13.049  0.00  0.00    -0.089 HD
ATOM     18  H   UNL     1      34.767 -25.770 -12.140  0.00  0.00    -0.089 HD
ATOM     19  H   UNL     1      35.889 -24.683 -11.565  0.00  0.00    -0.089 HD
ENDBRANCH   2  16
BRANCH   3  20
ATOM     20  C   UNL     1      32.518 -23.566 -14.313  0.00  0.00    +0.181 C 
BRANCH  20  21
ATOM     21  O   UNL     1      31.557 -24.244 -15.104  0.00  0.00    -0.271 OA
BRANCH  21  22
ATOM     22  P   UNL     1      30.429 -23.370 -15.865  0.00  0.00    +0.473 P 
ATOM     23  O   UNL     1      30.924 -22.581 -17.042  0.00  0.00    -0.227 OA
BRANCH  22  24
ATOM     24  O   UNL     1      29.757 -22.496 -14.681  0.00  0.00    -0.303 OA
ATOM     25  H   UNL     1      28.791 -22.551 -14.748  0.00  0.00    +0.222 HD
ENDBRANCH  22  24
BRANCH  22  26
ATOM     26  O   UNL     1      29.293 -24.468 -16.208  0.00  0.00    -0.303 OA
ATOM     27  H   UNL     1      28.513 -24.312 -15.652  0.00  0.00    +0.222 HD
ENDBRANCH  22  26
ENDBRANCH  21  22
ENDBRANCH  20  21
ENDBRANCH   3  20
TORSDOF 7
ENDMDL
