MODEL 1
REMARK VINA RESULT:      -6.0      0.000      0.000
REMARK  Name = 5282494
REMARK  9 active torsions:
REMARK  status: ('A' for Active; 'I' for Inactive)
REMARK    1  A    between atoms: C_6  and  C_24
REMARK    2  A    between atoms: C_6  and  O_28
REMARK    3  A    between atoms: C_9  and  O_21
REMARK    4  A    between atoms: C_24  and  C_25
REMARK    5  A    between atoms: C_25  and  O_26
REMARK    6  A    between atoms: O_28  and  C_30
REMARK    7  A    between atoms: C_30  and  C_31
REMARK    8  A    between atoms: C_31  and  C_32
REMARK    9  A    between atoms: C_32  and  C_33
REMARK                            x       y       z     vdW  Elec       q    Type
REMARK                         _______ _______ _______ _____ _____    ______ ____
ROOT
ATOM      1  O   UNL     1      40.700 -26.389 -14.756  0.00  0.00    -0.291 OA
ATOM      2  C   UNL     1      32.772 -23.525 -14.176  0.00  0.00    +0.043 C 
ATOM      3  C   UNL     1      33.704 -23.489 -15.406  0.00  0.00    +0.004 C 
ATOM      4  C   UNL     1      35.177 -23.229 -15.055  0.00  0.00    +0.003 C 
ATOM      5  C   UNL     1      35.678 -24.367 -14.106  0.00  0.00    +0.030 C 
ATOM      6  C   UNL     1      31.410 -23.731 -14.893  0.00  0.00    +0.188 C 
ATOM      7  C   UNL     1      33.244 -24.683 -13.272  0.00  0.00    +0.033 C 
ATOM      8  C   UNL     1      37.221 -24.252 -13.769  0.00  0.00    +0.018 C 
ATOM      9  C   UNL     1      34.734 -24.579 -12.882  0.00  0.00    +0.111 C 
ATOM     10  C   UNL     1      32.994 -22.534 -16.362  0.00  0.00    +0.004 C 
ATOM     11  C   UNL     1      31.494 -22.821 -16.140  0.00  0.00    +0.047 C 
ATOM     12  C   UNL     1      36.032 -23.184 -16.332  0.00  0.00    +0.004 C 
ATOM     13  C   UNL     1      32.747 -22.186 -13.388  0.00  0.00    +0.004 C 
ATOM     14  C   UNL     1      38.011 -24.075 -15.072  0.00  0.00    -0.042 C 
ATOM     15  C   UNL     1      37.509 -23.011 -16.018  0.00  0.00    +0.022 C 
ATOM     16  C   UNL     1      37.657 -25.566 -13.057  0.00  0.00    +0.012 C 
ATOM     17  C   UNL     1      37.567 -23.052 -12.860  0.00  0.00    +0.004 C 
ATOM     18  C   UNL     1      39.163 -25.772 -13.027  0.00  0.00    +0.069 C 
ATOM     19  C   UNL     1      39.115 -24.774 -15.385  0.00  0.00    +0.029 C 
ATOM     20  C   UNL     1      39.721 -25.723 -14.424  0.00  0.00    +0.173 C 
ENDROOT
BRANCH   9  21
ATOM     21  O   UNL     1      34.898 -23.549 -11.916  0.00  0.00    -0.384 OA
ATOM     22  H   UNL     1      34.654 -22.696 -12.309  0.00  0.00    +0.210 HD
ENDBRANCH   9  21
BRANCH   6  24
ATOM     23  O   UNL     1      29.419 -22.560 -14.309  0.00  0.00    -0.290 OA
ATOM     24  C   UNL     1      30.220 -23.449 -14.025  0.00  0.00    +0.216 C 
BRANCH  24  25
ATOM     25  C   UNL     1      30.069 -24.314 -12.792  0.00  0.00    +0.206 C 
BRANCH  25  26
ATOM     26  O   UNL     1      30.074 -23.522 -11.623  0.00  0.00    -0.375 OA
ATOM     27  H   UNL     1      29.808 -22.616 -11.846  0.00  0.00    +0.211 HD
ENDBRANCH  25  26
ENDBRANCH  24  25
ENDBRANCH   6  24
BRANCH   6  28
ATOM     28  O   UNL     1      31.246 -25.084 -15.310  0.00  0.00    -0.449 OA
BRANCH  28  30
ATOM     29  O   UNL     1      29.275 -26.247 -15.026  0.00  0.00    -0.250 OA
ATOM     30  C   UNL     1      29.971 -25.454 -15.643  0.00  0.00    +0.317 C 
BRANCH  30  31
ATOM     31  C   UNL     1      29.556 -24.722 -16.901  0.00  0.00    +0.110 C 
BRANCH  31  32
ATOM     32  C   UNL     1      28.089 -24.299 -16.858  0.00  0.00    +0.012 C 
BRANCH  32  33
ATOM     33  C   UNL     1      27.921 -22.835 -17.266  0.00  0.00    +0.001 C 
ATOM     34  C   UNL     1      26.843 -22.148 -16.443  0.00  0.00    +0.000 C 
ENDBRANCH  32  33
ENDBRANCH  31  32
ENDBRANCH  30  31
ENDBRANCH  28  30
ENDBRANCH   6  28
TORSDOF 9
ENDMDL
MODEL 2
REMARK VINA RESULT:      -5.8      7.714      9.601
REMARK  Name = 5282494
REMARK  9 active torsions:
REMARK  status: ('A' for Active; 'I' for Inactive)
REMARK    1  A    between atoms: C_6  and  C_24
REMARK    2  A    between atoms: C_6  and  O_28
REMARK    3  A    between atoms: C_9  and  O_21
REMARK    4  A    between atoms: C_24  and  C_25
REMARK    5  A    between atoms: C_25  and  O_26
REMARK    6  A    between atoms: O_28  and  C_30
REMARK    7  A    between atoms: C_30  and  C_31
REMARK    8  A    between atoms: C_31  and  C_32
REMARK    9  A    between atoms: C_32  and  C_33
REMARK                            x       y       z     vdW  Elec       q    Type
REMARK                         _______ _______ _______ _____ _____    ______ ____
ROOT
ATOM      1  O   UNL     1      36.169 -23.096 -14.934  0.00  0.00    -0.291 OA
ATOM      2  C   UNL     1      34.967 -18.330 -21.806  0.00  0.00    +0.043 C 
ATOM      3  C   UNL     1      33.915 -19.144 -21.023  0.00  0.00    +0.004 C 
ATOM      4  C   UNL     1      34.449 -20.479 -20.481  0.00  0.00    +0.003 C 
ATOM      5  C   UNL     1      35.646 -20.189 -19.518  0.00  0.00    +0.030 C 
ATOM      6  C   UNL     1      34.086 -17.127 -22.243  0.00  0.00    +0.188 C 
ATOM      7  C   UNL     1      36.120 -18.006 -20.833  0.00  0.00    +0.033 C 
ATOM      8  C   UNL     1      36.204 -21.496 -18.818  0.00  0.00    +0.018 C 
ATOM      9  C   UNL     1      36.721 -19.262 -20.166  0.00  0.00    +0.111 C 
ATOM     10  C   UNL     1      32.709 -19.158 -21.958  0.00  0.00    +0.004 C 
ATOM     11  C   UNL     1      32.732 -17.767 -22.627  0.00  0.00    +0.047 C 
ATOM     12  C   UNL     1      33.338 -21.238 -19.738  0.00  0.00    +0.004 C 
ATOM     13  C   UNL     1      35.501 -19.067 -23.064  0.00  0.00    +0.004 C 
ATOM     14  C   UNL     1      35.034 -22.281 -18.210  0.00  0.00    -0.042 C 
ATOM     15  C   UNL     1      33.851 -22.527 -19.116  0.00  0.00    +0.022 C 
ATOM     16  C   UNL     1      37.190 -21.058 -17.696  0.00  0.00    +0.012 C 
ATOM     17  C   UNL     1      36.938 -22.451 -19.786  0.00  0.00    +0.004 C 
ATOM     18  C   UNL     1      37.497 -22.157 -16.692  0.00  0.00    +0.069 C 
ATOM     19  C   UNL     1      35.026 -22.777 -16.961  0.00  0.00    +0.029 C 
ATOM     20  C   UNL     1      36.220 -22.682 -16.090  0.00  0.00    +0.173 C 
ENDROOT
BRANCH   9  21
ATOM     21  O   UNL     1      37.510 -19.967 -21.114  0.00  0.00    -0.384 OA
ATOM     22  H   UNL     1      36.966 -20.189 -21.886  0.00  0.00    +0.210 HD
ENDBRANCH   9  21
BRANCH   6  24
ATOM     23  O   UNL     1      35.693 -15.615 -23.143  0.00  0.00    -0.290 OA
ATOM     24  C   UNL     1      34.690 -16.301 -23.339  0.00  0.00    +0.216 C 
BRANCH  24  25
ATOM     25  C   UNL     1      33.997 -16.360 -24.683  0.00  0.00    +0.206 C 
BRANCH  25  26
ATOM     26  O   UNL     1      34.897 -16.774 -25.690  0.00  0.00    -0.375 OA
ATOM     27  H   UNL     1      35.539 -17.396 -25.313  0.00  0.00    +0.211 HD
ENDBRANCH  25  26
ENDBRANCH  24  25
ENDBRANCH   6  24
BRANCH   6  28
ATOM     28  O   UNL     1      33.885 -16.216 -21.166  0.00  0.00    -0.449 OA
BRANCH  28  30
ATOM     29  O   UNL     1      31.650 -16.215 -20.595  0.00  0.00    -0.250 OA
ATOM     30  C   UNL     1      32.634 -15.669 -21.074  0.00  0.00    +0.317 C 
BRANCH  30  31
ATOM     31  C   UNL     1      32.660 -14.274 -21.659  0.00  0.00    +0.110 C 
BRANCH  31  32
ATOM     32  C   UNL     1      32.301 -13.212 -20.622  0.00  0.00    +0.012 C 
BRANCH  32  33
ATOM     33  C   UNL     1      31.532 -12.053 -21.256  0.00  0.00    +0.001 C 
ATOM     34  C   UNL     1      31.095 -11.038 -20.212  0.00  0.00    +0.000 C 
ENDBRANCH  32  33
ENDBRANCH  31  32
ENDBRANCH  30  31
ENDBRANCH  28  30
ENDBRANCH   6  28
TORSDOF 9
ENDMDL
MODEL 3
REMARK VINA RESULT:      -5.7      6.784      8.987
REMARK  Name = 5282494
REMARK  9 active torsions:
REMARK  status: ('A' for Active; 'I' for Inactive)
REMARK    1  A    between atoms: C_6  and  C_24
REMARK    2  A    between atoms: C_6  and  O_28
REMARK    3  A    between atoms: C_9  and  O_21
REMARK    4  A    between atoms: C_24  and  C_25
REMARK    5  A    between atoms: C_25  and  O_26
REMARK    6  A    between atoms: O_28  and  C_30
REMARK    7  A    between atoms: C_30  and  C_31
REMARK    8  A    between atoms: C_31  and  C_32
REMARK    9  A    between atoms: C_32  and  C_33
REMARK                            x       y       z     vdW  Elec       q    Type
REMARK                         _______ _______ _______ _____ _____    ______ ____
ROOT
ATOM      1  O   UNL     1      33.577 -23.712 -13.590  0.00  0.00    -0.291 OA
ATOM      2  C   UNL     1      35.074 -19.929 -20.995  0.00  0.00    +0.043 C 
ATOM      3  C   UNL     1      33.747 -19.975 -20.206  0.00  0.00    +0.004 C 
ATOM      4  C   UNL     1      33.503 -21.312 -19.491  0.00  0.00    +0.003 C 
ATOM      5  C   UNL     1      34.671 -21.563 -18.481  0.00  0.00    +0.030 C 
ATOM      6  C   UNL     1      34.951 -18.511 -21.618  0.00  0.00    +0.188 C 
ATOM      7  C   UNL     1      36.221 -20.126 -19.983  0.00  0.00    +0.033 C 
ATOM      8  C   UNL     1      34.461 -22.868 -17.609  0.00  0.00    +0.018 C 
ATOM      9  C   UNL     1      36.075 -21.416 -19.146  0.00  0.00    +0.111 C 
ATOM     10  C   UNL     1      32.716 -19.482 -21.218  0.00  0.00    +0.004 C 
ATOM     11  C   UNL     1      33.464 -18.402 -22.027  0.00  0.00    +0.047 C 
ATOM     12  C   UNL     1      32.155 -21.285 -18.751  0.00  0.00    +0.004 C 
ATOM     13  C   UNL     1      35.150 -20.989 -22.128  0.00  0.00    +0.004 C 
ATOM     14  C   UNL     1      33.051 -22.851 -17.006  0.00  0.00    -0.042 C 
ATOM     15  C   UNL     1      31.918 -22.563 -17.961  0.00  0.00    +0.022 C 
ATOM     16  C   UNL     1      35.525 -22.865 -16.473  0.00  0.00    +0.012 C 
ATOM     17  C   UNL     1      34.595 -24.179 -18.416  0.00  0.00    +0.004 C 
ATOM     18  C   UNL     1      35.209 -23.827 -15.339  0.00  0.00    +0.069 C 
ATOM     19  C   UNL     1      32.779 -23.108 -15.715  0.00  0.00    +0.029 C 
ATOM     20  C   UNL     1      33.842 -23.535 -14.777  0.00  0.00    +0.173 C 
ENDROOT
BRANCH   9  21
ATOM     21  O   UNL     1      36.385 -22.541 -19.957  0.00  0.00    -0.384 OA
ATOM     22  H   UNL     1      35.902 -22.478 -20.796  0.00  0.00    +0.210 HD
ENDBRANCH   9  21
BRANCH   6  24
ATOM     23  O   UNL     1      37.119 -18.234 -22.567  0.00  0.00    -0.290 OA
ATOM     24  C   UNL     1      35.903 -18.263 -22.750  0.00  0.00    +0.216 C 
BRANCH  24  25
ATOM     25  C   UNL     1      35.283 -18.050 -24.114  0.00  0.00    +0.206 C 
BRANCH  25  26
ATOM     26  O   UNL     1      35.311 -16.684 -24.467  0.00  0.00    -0.375 OA
ATOM     27  H   UNL     1      35.576 -16.156 -23.697  0.00  0.00    +0.211 HD
ENDBRANCH  25  26
ENDBRANCH  24  25
ENDBRANCH   6  24
BRANCH   6  28
ATOM     28  O   UNL     1      35.250 -17.499 -20.660  0.00  0.00    -0.449 OA
BRANCH  28  30
ATOM     29  O   UNL     1      35.267 -15.522 -21.848  0.00  0.00    -0.250 OA
ATOM     30  C   UNL     1      34.812 -16.239 -20.968  0.00  0.00    +0.317 C 
BRANCH  30  31
ATOM     31  C   UNL     1      33.670 -15.872 -20.046  0.00  0.00    +0.110 C 
BRANCH  31  32
ATOM     32  C   UNL     1      32.502 -15.244 -20.804  0.00  0.00    +0.012 C 
BRANCH  32  33
ATOM     33  C   UNL     1      32.512 -13.721 -20.676  0.00  0.00    +0.001 C 
ATOM     34  C   UNL     1      32.207 -13.049 -22.006  0.00  0.00    +0.000 C 
ENDBRANCH  32  33
ENDBRANCH  31  32
ENDBRANCH  30  31
ENDBRANCH  28  30
ENDBRANCH   6  28
TORSDOF 9
ENDMDL
MODEL 4
REMARK VINA RESULT:      -5.7     16.612     18.744
REMARK  Name = 5282494
REMARK  9 active torsions:
REMARK  status: ('A' for Active; 'I' for Inactive)
REMARK    1  A    between atoms: C_6  and  C_24
REMARK    2  A    between atoms: C_6  and  O_28
REMARK    3  A    between atoms: C_9  and  O_21
REMARK    4  A    between atoms: C_24  and  C_25
REMARK    5  A    between atoms: C_25  and  O_26
REMARK    6  A    between atoms: O_28  and  C_30
REMARK    7  A    between atoms: C_30  and  C_31
REMARK    8  A    between atoms: C_31  and  C_32
REMARK    9  A    between atoms: C_32  and  C_33
REMARK                            x       y       z     vdW  Elec       q    Type
REMARK                         _______ _______ _______ _____ _____    ______ ____
ROOT
ATOM      1  O   UNL     1      33.183 -14.897 -27.379  0.00  0.00    -0.291 OA
ATOM      2  C   UNL     1      32.442  -7.951 -22.625  0.00  0.00    +0.043 C 
ATOM      3  C   UNL     1      33.270  -8.132 -23.915  0.00  0.00    +0.004 C 
ATOM      4  C   UNL     1      33.916  -9.520 -24.042  0.00  0.00    +0.003 C 
ATOM      5  C   UNL     1      32.788 -10.603 -24.041  0.00  0.00    +0.030 C 
ATOM      6  C   UNL     1      32.017  -6.467 -22.799  0.00  0.00    +0.188 C 
ATOM      7  C   UNL     1      31.301  -8.990 -22.658  0.00  0.00    +0.033 C 
ATOM      8  C   UNL     1      33.340 -12.068 -24.278  0.00  0.00    +0.018 C 
ATOM      9  C   UNL     1      31.806 -10.438 -22.840  0.00  0.00    +0.111 C 
ATOM     10  C   UNL     1      34.167  -6.897 -23.936  0.00  0.00    +0.004 C 
ATOM     11  C   UNL     1      33.279  -5.773 -23.360  0.00  0.00    +0.047 C 
ATOM     12  C   UNL     1      34.740  -9.609 -25.337  0.00  0.00    +0.004 C 
ATOM     13  C   UNL     1      33.285  -8.101 -21.329  0.00  0.00    +0.004 C 
ATOM     14  C   UNL     1      34.263 -12.068 -25.503  0.00  0.00    -0.042 C 
ATOM     15  C   UNL     1      35.327 -10.998 -25.539  0.00  0.00    +0.022 C 
ATOM     16  C   UNL     1      32.124 -13.007 -24.527  0.00  0.00    +0.012 C 
ATOM     17  C   UNL     1      34.161 -12.618 -23.090  0.00  0.00    +0.004 C 
ATOM     18  C   UNL     1      32.502 -14.340 -25.152  0.00  0.00    +0.069 C 
ATOM     19  C   UNL     1      34.196 -12.969 -26.498  0.00  0.00    +0.029 C 
ATOM     20  C   UNL     1      33.263 -14.117 -26.432  0.00  0.00    +0.173 C 
ENDROOT
BRANCH   9  21
ATOM     21  O   UNL     1      32.393 -10.888 -21.626  0.00  0.00    -0.384 OA
ATOM     22  H   UNL     1      33.155 -10.328 -21.408  0.00  0.00    +0.210 HD
ENDBRANCH   9  21
BRANCH   6  24
ATOM     23  O   UNL     1      32.194  -5.744 -20.536  0.00  0.00    -0.290 OA
ATOM     24  C   UNL     1      31.494  -5.836 -21.544  0.00  0.00    +0.216 C 
BRANCH  24  25
ATOM     25  C   UNL     1      30.070  -5.325 -21.591  0.00  0.00    +0.206 C 
BRANCH  25  26
ATOM     26  O   UNL     1      30.049  -3.920 -21.726  0.00  0.00    -0.375 OA
ATOM     27  H   UNL     1      29.444  -3.541 -21.068  0.00  0.00    +0.211 HD
ENDBRANCH  25  26
ENDBRANCH  24  25
ENDBRANCH   6  24
BRANCH   6  28
ATOM     28  O   UNL     1      30.955  -6.342 -23.741  0.00  0.00    -0.449 OA
BRANCH  28  30
ATOM     29  O   UNL     1      30.451  -4.186 -24.386  0.00  0.00    -0.250 OA
ATOM     30  C   UNL     1      31.018  -5.254 -24.569  0.00  0.00    +0.317 C 
BRANCH  30  31
ATOM     31  C   UNL     1      31.905  -5.581 -25.750  0.00  0.00    +0.110 C 
BRANCH  31  32
ATOM     32  C   UNL     1      32.452  -4.322 -26.420  0.00  0.00    +0.012 C 
BRANCH  32  33
ATOM     33  C   UNL     1      33.436  -4.669 -27.536  0.00  0.00    +0.001 C 
ATOM     34  C   UNL     1      34.822  -4.965 -26.985  0.00  0.00    +0.000 C 
ENDBRANCH  32  33
ENDBRANCH  31  32
ENDBRANCH  30  31
ENDBRANCH  28  30
ENDBRANCH   6  28
TORSDOF 9
ENDMDL
MODEL 5
REMARK VINA RESULT:      -5.3     12.940     15.054
REMARK  Name = 5282494
REMARK  9 active torsions:
REMARK  status: ('A' for Active; 'I' for Inactive)
REMARK    1  A    between atoms: C_6  and  C_24
REMARK    2  A    between atoms: C_6  and  O_28
REMARK    3  A    between atoms: C_9  and  O_21
REMARK    4  A    between atoms: C_24  and  C_25
REMARK    5  A    between atoms: C_25  and  O_26
REMARK    6  A    between atoms: O_28  and  C_30
REMARK    7  A    between atoms: C_30  and  C_31
REMARK    8  A    between atoms: C_31  and  C_32
REMARK    9  A    between atoms: C_32  and  C_33
REMARK                            x       y       z     vdW  Elec       q    Type
REMARK                         _______ _______ _______ _____ _____    ______ ____
ROOT
ATOM      1  O   UNL     1      36.398 -18.639 -20.825  0.00  0.00    -0.291 OA
ATOM      2  C   UNL     1      32.305 -11.506 -22.765  0.00  0.00    +0.043 C 
ATOM      3  C   UNL     1      32.095 -12.413 -21.533  0.00  0.00    +0.004 C 
ATOM      4  C   UNL     1      32.250 -13.911 -21.839  0.00  0.00    +0.003 C 
ATOM      5  C   UNL     1      33.694 -14.167 -22.383  0.00  0.00    +0.030 C 
ATOM      6  C   UNL     1      32.013 -10.124 -22.118  0.00  0.00    +0.188 C 
ATOM      7  C   UNL     1      33.748 -11.729 -23.263  0.00  0.00    +0.033 C 
ATOM      8  C   UNL     1      33.996 -15.702 -22.629  0.00  0.00    +0.018 C 
ATOM      9  C   UNL     1      34.064 -13.211 -23.559  0.00  0.00    +0.111 C 
ATOM     10  C   UNL     1      30.778 -11.913 -20.945  0.00  0.00    +0.004 C 
ATOM     11  C   UNL     1      30.811 -10.389 -21.182  0.00  0.00    +0.047 C 
ATOM     12  C   UNL     1      32.003 -14.743 -20.570  0.00  0.00    +0.004 C 
ATOM     13  C   UNL     1      31.282 -11.773 -23.903  0.00  0.00    +0.004 C 
ATOM     14  C   UNL     1      33.604 -16.500 -21.378  0.00  0.00    -0.042 C 
ATOM     15  C   UNL     1      32.230 -16.227 -20.814  0.00  0.00    +0.022 C 
ATOM     16  C   UNL     1      35.521 -15.855 -22.901  0.00  0.00    +0.012 C 
ATOM     17  C   UNL     1      33.212 -16.304 -23.817  0.00  0.00    +0.004 C 
ATOM     18  C   UNL     1      36.023 -17.283 -22.763  0.00  0.00    +0.069 C 
ATOM     19  C   UNL     1      34.385 -17.427 -20.800  0.00  0.00    +0.029 C 
ATOM     20  C   UNL     1      35.677 -17.827 -21.402  0.00  0.00    +0.173 C 
ENDROOT
BRANCH   9  21
ATOM     21  O   UNL     1      33.420 -13.599 -24.765  0.00  0.00    -0.384 OA
ATOM     22  H   UNL     1      34.080 -13.681 -25.472  0.00  0.00    +0.210 HD
ENDBRANCH   9  21
BRANCH   6  24
ATOM     23  O   UNL     1      30.649  -8.539 -23.260  0.00  0.00    -0.290 OA
ATOM     24  C   UNL     1      31.767  -9.029 -23.113  0.00  0.00    +0.216 C 
BRANCH  24  25
ATOM     25  C   UNL     1      32.966  -8.572 -23.916  0.00  0.00    +0.206 C 
BRANCH  25  26
ATOM     26  O   UNL     1      32.851  -7.204 -24.247  0.00  0.00    -0.375 OA
ATOM     27  H   UNL     1      33.532  -6.971 -24.898  0.00  0.00    +0.211 HD
ENDBRANCH  25  26
ENDBRANCH  24  25
ENDBRANCH   6  24
BRANCH   6  28
ATOM     28  O   UNL     1      33.121  -9.673 -21.344  0.00  0.00    -0.449 OA
BRANCH  28  30
ATOM     29  O   UNL     1      32.362  -9.273 -19.202  0.00  0.00    -0.250 OA
ATOM     30  C   UNL     1      32.814  -8.882 -20.270  0.00  0.00    +0.317 C 
BRANCH  30  31
ATOM     31  C   UNL     1      33.124  -7.441 -20.611  0.00  0.00    +0.110 C 
BRANCH  31  32
ATOM     32  C   UNL     1      31.900  -6.541 -20.458  0.00  0.00    +0.012 C 
BRANCH  32  33
ATOM     33  C   UNL     1      31.792  -5.549 -21.616  0.00  0.00    +0.001 C 
ATOM     34  C   UNL     1      30.341  -5.246 -21.956  0.00  0.00    +0.000 C 
ENDBRANCH  32  33
ENDBRANCH  31  32
ENDBRANCH  30  31
ENDBRANCH  28  30
ENDBRANCH   6  28
TORSDOF 9
ENDMDL
MODEL 6
REMARK VINA RESULT:      -5.2     14.777     17.065
REMARK  Name = 5282494
REMARK  9 active torsions:
REMARK  status: ('A' for Active; 'I' for Inactive)
REMARK    1  A    between atoms: C_6  and  C_24
REMARK    2  A    between atoms: C_6  and  O_28
REMARK    3  A    between atoms: C_9  and  O_21
REMARK    4  A    between atoms: C_24  and  C_25
REMARK    5  A    between atoms: C_25  and  O_26
REMARK    6  A    between atoms: O_28  and  C_30
REMARK    7  A    between atoms: C_30  and  C_31
REMARK    8  A    between atoms: C_31  and  C_32
REMARK    9  A    between atoms: C_32  and  C_33
REMARK                            x       y       z     vdW  Elec       q    Type
REMARK                         _______ _______ _______ _____ _____    ______ ____
ROOT
ATOM      1  O   UNL     1      34.270 -16.402 -20.621  0.00  0.00    -0.291 OA
ATOM      2  C   UNL     1      32.764  -8.782 -23.948  0.00  0.00    +0.043 C 
ATOM      3  C   UNL     1      31.953  -9.517 -22.859  0.00  0.00    +0.004 C 
ATOM      4  C   UNL     1      31.868 -11.036 -23.075  0.00  0.00    +0.003 C 
ATOM      5  C   UNL     1      33.316 -11.626 -23.075  0.00  0.00    +0.030 C 
ATOM      6  C   UNL     1      32.582  -7.319 -23.458  0.00  0.00    +0.188 C 
ATOM      7  C   UNL     1      34.203  -9.336 -23.905  0.00  0.00    +0.033 C 
ATOM      8  C   UNL     1      33.337 -13.206 -23.183  0.00  0.00    +0.018 C 
ATOM      9  C   UNL     1      34.266 -10.871 -24.056  0.00  0.00    +0.111 C 
ATOM     10  C   UNL     1      30.659  -8.711 -22.776  0.00  0.00    +0.004 C 
ATOM     11  C   UNL     1      31.107  -7.251 -23.001  0.00  0.00    +0.047 C 
ATOM     12  C   UNL     1      31.026 -11.687 -21.966  0.00  0.00    +0.004 C 
ATOM     13  C   UNL     1      32.158  -8.933 -25.370  0.00  0.00    +0.004 C 
ATOM     14  C   UNL     1      32.377 -13.796 -22.142  0.00  0.00    -0.042 C 
ATOM     15  C   UNL     1      30.989 -13.202 -22.100  0.00  0.00    +0.022 C 
ATOM     16  C   UNL     1      34.789 -13.689 -22.901  0.00  0.00    +0.012 C 
ATOM     17  C   UNL     1      32.892 -13.737 -24.565  0.00  0.00    +0.004 C 
ATOM     18  C   UNL     1      34.887 -15.172 -22.581  0.00  0.00    +0.069 C 
ATOM     19  C   UNL     1      32.689 -14.809 -21.317  0.00  0.00    +0.029 C 
ATOM     20  C   UNL     1      33.987 -15.514 -21.423  0.00  0.00    +0.173 C 
ENDROOT
BRANCH   9  21
ATOM     21  O   UNL     1      34.003 -11.224 -25.407  0.00  0.00    -0.384 OA
ATOM     22  H   UNL     1      33.797 -10.423 -25.915  0.00  0.00    +0.210 HD
ENDBRANCH   9  21
BRANCH   6  24
ATOM     23  O   UNL     1      34.051  -6.265 -25.010  0.00  0.00    -0.290 OA
ATOM     24  C   UNL     1      32.938  -6.288 -24.487  0.00  0.00    +0.216 C 
BRANCH  24  25
ATOM     25  C   UNL     1      31.857  -5.288 -24.837  0.00  0.00    +0.206 C 
BRANCH  25  26
ATOM     26  O   UNL     1      31.905  -4.177 -23.967  0.00  0.00    -0.375 OA
ATOM     27  H   UNL     1      31.562  -3.393 -24.425  0.00  0.00    +0.211 HD
ENDBRANCH  25  26
ENDBRANCH  24  25
ENDBRANCH   6  24
BRANCH   6  28
ATOM     28  O   UNL     1      33.430  -7.037 -22.349  0.00  0.00    -0.449 OA
BRANCH  28  30
ATOM     29  O   UNL     1      32.093  -5.548 -21.202  0.00  0.00    -0.250 OA
ATOM     30  C   UNL     1      32.809  -6.539 -21.236  0.00  0.00    +0.317 C 
BRANCH  30  31
ATOM     31  C   UNL     1      33.147  -7.413 -20.047  0.00  0.00    +0.110 C 
BRANCH  31  32
ATOM     32  C   UNL     1      31.953  -8.252 -19.597  0.00  0.00    +0.012 C 
BRANCH  32  33
ATOM     33  C   UNL     1      32.351  -9.711 -19.376  0.00  0.00    +0.001 C 
ATOM     34  C   UNL     1      31.204 -10.518 -18.789  0.00  0.00    +0.000 C 
ENDBRANCH  32  33
ENDBRANCH  31  32
ENDBRANCH  30  31
ENDBRANCH  28  30
ENDBRANCH   6  28
TORSDOF 9
ENDMDL
MODEL 7
REMARK VINA RESULT:      -5.1      3.490      5.580
REMARK  Name = 5282494
REMARK  9 active torsions:
REMARK  status: ('A' for Active; 'I' for Inactive)
REMARK    1  A    between atoms: C_6  and  C_24
REMARK    2  A    between atoms: C_6  and  O_28
REMARK    3  A    between atoms: C_9  and  O_21
REMARK    4  A    between atoms: C_24  and  C_25
REMARK    5  A    between atoms: C_25  and  O_26
REMARK    6  A    between atoms: O_28  and  C_30
REMARK    7  A    between atoms: C_30  and  C_31
REMARK    8  A    between atoms: C_31  and  C_32
REMARK    9  A    between atoms: C_32  and  C_33
REMARK                            x       y       z     vdW  Elec       q    Type
REMARK                         _______ _______ _______ _____ _____    ______ ____
ROOT
ATOM      1  O   UNL     1      36.051 -17.915 -21.832  0.00  0.00    -0.291 OA
ATOM      2  C   UNL     1      33.765 -23.615 -16.028  0.00  0.00    +0.043 C 
ATOM      3  C   UNL     1      34.929 -22.603 -15.955  0.00  0.00    +0.004 C 
ATOM      4  C   UNL     1      35.632 -22.375 -17.303  0.00  0.00    +0.003 C 
ATOM      5  C   UNL     1      34.586 -21.829 -18.329  0.00  0.00    +0.030 C 
ATOM      6  C   UNL     1      33.357 -23.643 -14.530  0.00  0.00    +0.188 C 
ATOM      7  C   UNL     1      32.717 -23.043 -17.005  0.00  0.00    +0.033 C 
ATOM      8  C   UNL     1      35.232 -21.457 -19.727  0.00  0.00    +0.018 C 
ATOM      9  C   UNL     1      33.301 -22.712 -18.395  0.00  0.00    +0.111 C 
ATOM     10  C   UNL     1      35.754 -23.097 -14.769  0.00  0.00    +0.004 C 
ATOM     11  C   UNL     1      34.702 -23.620 -13.768  0.00  0.00    +0.047 C 
ATOM     12  C   UNL     1      36.790 -21.377 -17.140  0.00  0.00    +0.004 C 
ATOM     13  C   UNL     1      34.214 -25.034 -16.472  0.00  0.00    +0.004 C 
ATOM     14  C   UNL     1      36.462 -20.570 -19.494  0.00  0.00    -0.042 C 
ATOM     15  C   UNL     1      37.456 -21.062 -18.470  0.00  0.00    +0.022 C 
ATOM     16  C   UNL     1      34.168 -20.682 -20.558  0.00  0.00    +0.012 C 
ATOM     17  C   UNL     1      35.703 -22.685 -20.537  0.00  0.00    +0.004 C 
ATOM     18  C   UNL     1      34.752 -19.925 -21.739  0.00  0.00    +0.069 C 
ATOM     19  C   UNL     1      36.709 -19.431 -20.162  0.00  0.00    +0.029 C 
ATOM     20  C   UNL     1      35.835 -18.988 -21.272  0.00  0.00    +0.173 C 
ENDROOT
BRANCH   9  21
ATOM     21  O   UNL     1      33.536 -23.919 -19.107  0.00  0.00    -0.384 OA
ATOM     22  H   UNL     1      34.126 -23.742 -19.857  0.00  0.00    +0.210 HD
ENDBRANCH   9  21
BRANCH   6  24
ATOM     23  O   UNL     1      32.601 -25.378 -13.082  0.00  0.00    -0.290 OA
ATOM     24  C   UNL     1      32.481 -24.803 -14.163  0.00  0.00    +0.216 C 
BRANCH  24  25
ATOM     25  C   UNL     1      31.453 -25.220 -15.193  0.00  0.00    +0.206 C 
BRANCH  25  26
ATOM     26  O   UNL     1      30.333 -25.813 -14.569  0.00  0.00    -0.375 OA
ATOM     27  H   UNL     1      29.856 -25.141 -14.056  0.00  0.00    +0.211 HD
ENDBRANCH  25  26
ENDBRANCH  24  25
ENDBRANCH   6  24
BRANCH   6  28
ATOM     28  O   UNL     1      32.600 -22.488 -14.179  0.00  0.00    -0.449 OA
BRANCH  28  30
ATOM     29  O   UNL     1      30.839 -23.151 -12.844  0.00  0.00    -0.250 OA
ATOM     30  C   UNL     1      31.279 -22.706 -13.896  0.00  0.00    +0.317 C 
BRANCH  30  31
ATOM     31  C   UNL     1      30.443 -22.306 -15.091  0.00  0.00    +0.110 C 
BRANCH  31  32
ATOM     32  C   UNL     1      28.951 -22.518 -14.842  0.00  0.00    +0.012 C 
BRANCH  32  33
ATOM     33  C   UNL     1      28.160 -22.497 -16.150  0.00  0.00    +0.001 C 
ATOM     34  C   UNL     1      28.269 -23.821 -16.888  0.00  0.00    +0.000 C 
ENDBRANCH  32  33
ENDBRANCH  31  32
ENDBRANCH  30  31
ENDBRANCH  28  30
ENDBRANCH   6  28
TORSDOF 9
ENDMDL
MODEL 8
REMARK VINA RESULT:      -4.8      5.812      8.021
REMARK  Name = 5282494
REMARK  9 active torsions:
REMARK  status: ('A' for Active; 'I' for Inactive)
REMARK    1  A    between atoms: C_6  and  C_24
REMARK    2  A    between atoms: C_6  and  O_28
REMARK    3  A    between atoms: C_9  and  O_21
REMARK    4  A    between atoms: C_24  and  C_25
REMARK    5  A    between atoms: C_25  and  O_26
REMARK    6  A    between atoms: O_28  and  C_30
REMARK    7  A    between atoms: C_30  and  C_31
REMARK    8  A    between atoms: C_31  and  C_32
REMARK    9  A    between atoms: C_32  and  C_33
REMARK                            x       y       z     vdW  Elec       q    Type
REMARK                         _______ _______ _______ _____ _____    ______ ____
ROOT
ATOM      1  O   UNL     1      34.340 -23.530 -11.911  0.00  0.00    -0.291 OA
ATOM      2  C   UNL     1      35.318 -20.923 -19.888  0.00  0.00    +0.043 C 
ATOM      3  C   UNL     1      34.001 -21.259 -19.157  0.00  0.00    +0.004 C 
ATOM      4  C   UNL     1      34.122 -22.442 -18.184  0.00  0.00    +0.003 C 
ATOM      5  C   UNL     1      35.197 -22.097 -17.102  0.00  0.00    +0.030 C 
ATOM      6  C   UNL     1      34.816 -19.770 -20.800  0.00  0.00    +0.188 C 
ATOM      7  C   UNL     1      36.356 -20.534 -18.815  0.00  0.00    +0.033 C 
ATOM      8  C   UNL     1      35.324 -23.209 -15.983  0.00  0.00    +0.018 C 
ATOM      9  C   UNL     1      36.542 -21.618 -17.731  0.00  0.00    +0.111 C 
ATOM     10  C   UNL     1      32.977 -21.336 -20.287  0.00  0.00    +0.004 C 
ATOM     11  C   UNL     1      33.423 -20.240 -21.277  0.00  0.00    +0.047 C 
ATOM     12  C   UNL     1      32.766 -22.727 -17.517  0.00  0.00    +0.004 C 
ATOM     13  C   UNL     1      35.845 -22.089 -20.768  0.00  0.00    +0.004 C 
ATOM     14  C   UNL     1      33.926 -23.550 -15.449  0.00  0.00    -0.042 C 
ATOM     15  C   UNL     1      32.867 -23.839 -16.485  0.00  0.00    +0.022 C 
ATOM     16  C   UNL     1      36.207 -22.640 -14.835  0.00  0.00    +0.012 C 
ATOM     17  C   UNL     1      35.950 -24.528 -16.490  0.00  0.00    +0.004 C 
ATOM     18  C   UNL     1      36.096 -23.421 -13.536  0.00  0.00    +0.069 C 
ATOM     19  C   UNL     1      33.617 -23.636 -14.144  0.00  0.00    +0.029 C 
ATOM     20  C   UNL     1      34.657 -23.501 -13.099  0.00  0.00    +0.173 C 
ENDROOT
BRANCH   9  21
ATOM     21  O   UNL     1      37.277 -22.707 -18.274  0.00  0.00    -0.384 OA
ATOM     22  H   UNL     1      36.923 -23.540 -17.926  0.00  0.00    +0.210 HD
ENDBRANCH   9  21
BRANCH   6  24
ATOM     23  O   UNL     1      35.417 -19.576 -23.098  0.00  0.00    -0.290 OA
ATOM     24  C   UNL     1      35.752 -19.435 -21.923  0.00  0.00    +0.216 C 
BRANCH  24  25
ATOM     25  C   UNL     1      37.120 -18.921 -21.527  0.00  0.00    +0.206 C 
BRANCH  25  26
ATOM     26  O   UNL     1      37.863 -18.550 -22.668  0.00  0.00    -0.375 OA
ATOM     27  H   UNL     1      38.095 -17.609 -22.611  0.00  0.00    +0.211 HD
ENDBRANCH  25  26
ENDBRANCH  24  25
ENDBRANCH   6  24
BRANCH   6  28
ATOM     28  O   UNL     1      34.676 -18.556 -20.067  0.00  0.00    -0.449 OA
BRANCH  28  30
ATOM     29  O   UNL     1      32.720 -17.689 -20.929  0.00  0.00    -0.250 OA
ATOM     30  C   UNL     1      33.909 -17.589 -20.658  0.00  0.00    +0.317 C 
BRANCH  30  31
ATOM     31  C   UNL     1      34.765 -16.370 -20.923  0.00  0.00    +0.110 C 
BRANCH  31  32
ATOM     32  C   UNL     1      34.702 -15.934 -22.386  0.00  0.00    +0.012 C 
BRANCH  32  33
ATOM     33  C   UNL     1      34.275 -14.472 -22.512  0.00  0.00    +0.001 C 
ATOM     34  C   UNL     1      32.859 -14.260 -22.001  0.00  0.00    +0.000 C 
ENDBRANCH  32  33
ENDBRANCH  31  32
ENDBRANCH  30  31
ENDBRANCH  28  30
ENDBRANCH   6  28
TORSDOF 9
ENDMDL
MODEL 9
REMARK VINA RESULT:      -4.5     13.236     15.415
REMARK  Name = 5282494
REMARK  9 active torsions:
REMARK  status: ('A' for Active; 'I' for Inactive)
REMARK    1  A    between atoms: C_6  and  C_24
REMARK    2  A    between atoms: C_6  and  O_28
REMARK    3  A    between atoms: C_9  and  O_21
REMARK    4  A    between atoms: C_24  and  C_25
REMARK    5  A    between atoms: C_25  and  O_26
REMARK    6  A    between atoms: O_28  and  C_30
REMARK    7  A    between atoms: C_30  and  C_31
REMARK    8  A    between atoms: C_31  and  C_32
REMARK    9  A    between atoms: C_32  and  C_33
REMARK                            x       y       z     vdW  Elec       q    Type
REMARK                         _______ _______ _______ _____ _____    ______ ____
ROOT
ATOM      1  O   UNL     1      36.741 -18.307 -21.522  0.00  0.00    -0.291 OA
ATOM      2  C   UNL     1      32.158 -11.326 -22.807  0.00  0.00    +0.043 C 
ATOM      3  C   UNL     1      32.390 -12.075 -21.477  0.00  0.00    +0.004 C 
ATOM      4  C   UNL     1      32.447 -13.602 -21.633  0.00  0.00    +0.003 C 
ATOM      5  C   UNL     1      33.622 -13.966 -22.600  0.00  0.00    +0.030 C 
ATOM      6  C   UNL     1      32.090  -9.869 -22.271  0.00  0.00    +0.188 C 
ATOM      7  C   UNL     1      33.347 -11.651 -23.734  0.00  0.00    +0.033 C 
ATOM      8  C   UNL     1      33.838 -15.528 -22.746  0.00  0.00    +0.018 C 
ATOM      9  C   UNL     1      33.560 -13.167 -23.938  0.00  0.00    +0.111 C 
ATOM     10  C   UNL     1      31.347 -11.468 -20.542  0.00  0.00    +0.004 C 
ATOM     11  C   UNL     1      31.282  -9.984 -20.958  0.00  0.00    +0.047 C 
ATOM     12  C   UNL     1      32.656 -14.272 -20.265  0.00  0.00    +0.004 C 
ATOM     13  C   UNL     1      30.812 -11.692 -23.489  0.00  0.00    +0.004 C 
ATOM     14  C   UNL     1      33.904 -16.161 -21.349  0.00  0.00    -0.042 C 
ATOM     15  C   UNL     1      32.802 -15.781 -20.390  0.00  0.00    +0.022 C 
ATOM     16  C   UNL     1      35.181 -15.760 -23.498  0.00  0.00    +0.012 C 
ATOM     17  C   UNL     1      32.703 -16.240 -23.515  0.00  0.00    +0.004 C 
ATOM     18  C   UNL     1      35.715 -17.177 -23.368  0.00  0.00    +0.069 C 
ATOM     19  C   UNL     1      34.845 -17.038 -20.962  0.00  0.00    +0.029 C 
ATOM     20  C   UNL     1      35.859 -17.546 -21.915  0.00  0.00    +0.173 C 
ENDROOT
BRANCH   9  21
ATOM     21  O   UNL     1      32.547 -13.673 -24.798  0.00  0.00    -0.384 OA
ATOM     22  H   UNL     1      31.699 -13.258 -24.577  0.00  0.00    +0.210 HD
ENDBRANCH   9  21
BRANCH   6  24
ATOM     23  O   UNL     1      31.912  -8.833 -24.410  0.00  0.00    -0.290 OA
ATOM     24  C   UNL     1      31.509  -8.892 -23.249  0.00  0.00    +0.216 C 
BRANCH  24  25
ATOM     25  C   UNL     1      30.410  -7.991 -22.725  0.00  0.00    +0.206 C 
BRANCH  25  26
ATOM     26  O   UNL     1      30.734  -6.634 -22.939  0.00  0.00    -0.375 OA
ATOM     27  H   UNL     1      31.696  -6.540 -23.018  0.00  0.00    +0.211 HD
ENDBRANCH  25  26
ENDBRANCH  24  25
ENDBRANCH   6  24
BRANCH   6  28
ATOM     28  O   UNL     1      33.390  -9.366 -21.979  0.00  0.00    -0.449 OA
BRANCH  28  30
ATOM     29  O   UNL     1      33.072  -7.907 -20.221  0.00  0.00    -0.250 OA
ATOM     30  C   UNL     1      33.431  -8.143 -21.366  0.00  0.00    +0.317 C 
BRANCH  30  31
ATOM     31  C   UNL     1      33.995  -7.123 -22.332  0.00  0.00    +0.110 C 
BRANCH  31  32
ATOM     32  C   UNL     1      34.852  -7.774 -23.415  0.00  0.00    +0.012 C 
BRANCH  32  33
ATOM     33  C   UNL     1      34.801  -6.977 -24.718  0.00  0.00    +0.001 C 
ATOM     34  C   UNL     1      33.550  -6.116 -24.795  0.00  0.00    +0.000 C 
ENDBRANCH  32  33
ENDBRANCH  31  32
ENDBRANCH  30  31
ENDBRANCH  28  30
ENDBRANCH   6  28
TORSDOF 9
ENDMDL
