MODEL 1
REMARK VINA RESULT:      -9.0      0.000      0.000
REMARK  Name = 46937104
REMARK  8 active torsions:
REMARK  status: ('A' for Active; 'I' for Inactive)
REMARK    1  A    between atoms: C_1  and  N_3
REMARK    2  A    between atoms: C_1  and  C_14
REMARK    3  A    between atoms: C_1  and  C_18
REMARK    4  A    between atoms: C_4  and  C_6
REMARK    5  A    between atoms: C_6  and  N_9
REMARK    6  A    between atoms: C_14  and  C_15
REMARK    7  A    between atoms: C_15  and  C_17
REMARK    8  A    between atoms: C_18  and  C_19
REMARK                            x       y       z     vdW  Elec       q    Type
REMARK                         _______ _______ _______ _____ _____    ______ ____
ROOT
ATOM      1  C   UNL     1      33.651 -22.969 -16.837  0.00  0.00    +0.134 C 
ENDROOT
BRANCH   1   3
ATOM      2  O   UNL     1      36.398 -22.651 -16.047  0.00  0.00    -0.273 OA
ATOM      3  N   UNL     1      34.446 -23.906 -16.085  0.00  0.00    -0.298 N 
ATOM      4  C   UNL     1      35.772 -23.666 -15.748  0.00  0.00    +0.241 C 
ATOM      5  H   UNL     1      34.032 -24.752 -15.798  0.00  0.00    +0.150 HD
BRANCH   4   6
ATOM      6  C   UNL     1      36.366 -24.793 -14.912  0.00  0.00    +0.149 C 
ATOM      7  C   UNL     1      35.887 -24.712 -13.471  0.00  0.00    +0.031 C 
BRANCH   6   9
ATOM      8  O   UNL     1      38.296 -26.938 -14.590  0.00  0.00    -0.275 OA
ATOM      9  N   UNL     1      37.800 -24.699 -14.993  0.00  0.00    -0.298 N 
ATOM     10  C   UNL     1      38.647 -25.784 -14.825  0.00  0.00    +0.223 C 
ATOM     11  C   UNL     1      40.096 -25.413 -14.986  0.00  0.00    +0.095 C 
ATOM     12  H   UNL     1      38.200 -23.818 -15.179  0.00  0.00    +0.150 HD
ENDBRANCH   6   9
ENDBRANCH   4   6
ENDBRANCH   1   3
BRANCH   1  14
ATOM     13  O   UNL     1      31.252 -22.771 -16.966  0.00  0.00    -0.294 OA
ATOM     14  C   UNL     1      32.231 -23.097 -16.294  0.00  0.00    +0.170 C 
BRANCH  14  15
ATOM     15  C   UNL     1      32.103 -23.623 -14.871  0.00  0.00    +0.084 C 
BRANCH  15  17
ATOM     16 CL   UNL     1      30.097 -25.472 -14.778  0.00  0.00    -0.113 Cl
ATOM     17  C   UNL     1      30.666 -23.824 -14.415  0.00  0.00    +0.103 C 
ENDBRANCH  15  17
ENDBRANCH  14  15
ENDBRANCH   1  14
BRANCH   1  18
ATOM     18  C   UNL     1      33.717 -23.275 -18.335  0.00  0.00    +0.053 C 
BRANCH  18  19
ATOM     19  C   UNL     1      34.120 -22.082 -19.165  0.00  0.00    -0.020 C 
ATOM     20  C   UNL     1      33.143 -21.246 -19.705  0.00  0.00    -0.004 C 
ATOM     21  C   UNL     1      35.470 -21.816 -19.394  0.00  0.00    -0.004 C 
ATOM     22  C   UNL     1      33.516 -20.143 -20.473  0.00  0.00    -0.000 C 
ATOM     23  C   UNL     1      35.843 -20.712 -20.162  0.00  0.00    -0.000 C 
ATOM     24  C   UNL     1      34.865 -19.876 -20.702  0.00  0.00    -0.000 C 
ENDBRANCH  18  19
ENDBRANCH   1  18
TORSDOF 8
ENDMDL
MODEL 2
REMARK VINA RESULT:      -8.8      6.547     10.265
REMARK  Name = 46937104
REMARK  8 active torsions:
REMARK  status: ('A' for Active; 'I' for Inactive)
REMARK    1  A    between atoms: C_1  and  N_3
REMARK    2  A    between atoms: C_1  and  C_14
REMARK    3  A    between atoms: C_1  and  C_18
REMARK    4  A    between atoms: C_4  and  C_6
REMARK    5  A    between atoms: C_6  and  N_9
REMARK    6  A    between atoms: C_14  and  C_15
REMARK    7  A    between atoms: C_15  and  C_17
REMARK    8  A    between atoms: C_18  and  C_19
REMARK                            x       y       z     vdW  Elec       q    Type
REMARK                         _______ _______ _______ _____ _____    ______ ____
ROOT
ATOM      1  C   UNL     1      34.737 -18.157 -21.571  0.00  0.00    +0.134 C 
ENDROOT
BRANCH   1   3
ATOM      2  O   UNL     1      35.019 -15.812 -19.930  0.00  0.00    -0.273 OA
ATOM      3  N   UNL     1      34.209 -16.844 -21.844  0.00  0.00    -0.298 N 
ATOM      4  C   UNL     1      34.396 -15.766 -20.989  0.00  0.00    +0.241 C 
ATOM      5  H   UNL     1      33.694 -16.706 -22.672  0.00  0.00    +0.150 HD
BRANCH   4   6
ATOM      6  C   UNL     1      33.779 -14.485 -21.535  0.00  0.00    +0.149 C 
ATOM      7  C   UNL     1      32.604 -14.039 -20.679  0.00  0.00    +0.031 C 
BRANCH   6   9
ATOM      8  O   UNL     1      33.794 -12.605 -23.748  0.00  0.00    -0.275 OA
ATOM      9  N   UNL     1      33.374 -14.730 -22.894  0.00  0.00    -0.298 N 
ATOM     10  C   UNL     1      33.417 -13.765 -23.890  0.00  0.00    +0.223 C 
ATOM     11  C   UNL     1      32.961 -14.294 -25.223  0.00  0.00    +0.095 C 
ATOM     12  H   UNL     1      33.050 -15.630 -23.130  0.00  0.00    +0.150 HD
ENDBRANCH   6   9
ENDBRANCH   4   6
ENDBRANCH   1   3
BRANCH   1  14
ATOM     13  O   UNL     1      36.741 -18.188 -22.910  0.00  0.00    -0.294 OA
ATOM     14  C   UNL     1      35.566 -18.536 -22.794  0.00  0.00    +0.170 C 
BRANCH  14  15
ATOM     15  C   UNL     1      34.846 -19.342 -23.867  0.00  0.00    +0.084 C 
BRANCH  15  17
ATOM     16 CL   UNL     1      35.046 -16.988 -25.236  0.00  0.00    -0.113 Cl
ATOM     17  C   UNL     1      34.142 -18.489 -24.911  0.00  0.00    +0.103 C 
ENDBRANCH  15  17
ENDBRANCH  14  15
ENDBRANCH   1  14
BRANCH   1  18
ATOM     18  C   UNL     1      33.608 -19.158 -21.316  0.00  0.00    +0.053 C 
BRANCH  18  19
ATOM     19  C   UNL     1      34.009 -20.280 -20.392  0.00  0.00    -0.020 C 
ATOM     20  C   UNL     1      33.030 -21.021 -19.729  0.00  0.00    -0.004 C 
ATOM     21  C   UNL     1      35.358 -20.575 -20.198  0.00  0.00    -0.004 C 
ATOM     22  C   UNL     1      33.402 -22.058 -18.874  0.00  0.00    -0.000 C 
ATOM     23  C   UNL     1      35.729 -21.613 -19.343  0.00  0.00    -0.000 C 
ATOM     24  C   UNL     1      34.751 -22.354 -18.680  0.00  0.00    -0.000 C 
ENDBRANCH  18  19
ENDBRANCH   1  18
TORSDOF 8
ENDMDL
MODEL 3
REMARK VINA RESULT:      -8.6      1.403      1.936
REMARK  Name = 46937104
REMARK  8 active torsions:
REMARK  status: ('A' for Active; 'I' for Inactive)
REMARK    1  A    between atoms: C_1  and  N_3
REMARK    2  A    between atoms: C_1  and  C_14
REMARK    3  A    between atoms: C_1  and  C_18
REMARK    4  A    between atoms: C_4  and  C_6
REMARK    5  A    between atoms: C_6  and  N_9
REMARK    6  A    between atoms: C_14  and  C_15
REMARK    7  A    between atoms: C_15  and  C_17
REMARK    8  A    between atoms: C_18  and  C_19
REMARK                            x       y       z     vdW  Elec       q    Type
REMARK                         _______ _______ _______ _____ _____    ______ ____
ROOT
ATOM      1  C   UNL     1      33.548 -22.772 -16.979  0.00  0.00    +0.134 C 
ENDROOT
BRANCH   1   3
ATOM      2  O   UNL     1      36.258 -22.113 -16.273  0.00  0.00    -0.273 OA
ATOM      3  N   UNL     1      34.446 -23.561 -16.173  0.00  0.00    -0.298 N 
ATOM      4  C   UNL     1      35.744 -23.161 -15.883  0.00  0.00    +0.241 C 
ATOM      5  H   UNL     1      34.126 -24.420 -15.814  0.00  0.00    +0.150 HD
BRANCH   4   6
ATOM      6  C   UNL     1      36.463 -24.151 -14.976  0.00  0.00    +0.149 C 
ATOM      7  C   UNL     1      35.862 -25.542 -15.104  0.00  0.00    +0.031 C 
BRANCH   6   9
ATOM      8  O   UNL     1      38.559 -24.117 -12.967  0.00  0.00    -0.275 OA
ATOM      9  N   UNL     1      36.372 -23.663 -13.625  0.00  0.00    -0.298 N 
ATOM     10  C   UNL     1      37.432 -23.687 -12.731  0.00  0.00    +0.223 C 
ATOM     11  C   UNL     1      37.073 -23.093 -11.396  0.00  0.00    +0.095 C 
ATOM     12  H   UNL     1      35.512 -23.292 -13.319  0.00  0.00    +0.150 HD
ENDBRANCH   6   9
ENDBRANCH   4   6
ENDBRANCH   1   3
BRANCH   1  14
ATOM     13  O   UNL     1      31.141 -22.735 -17.085  0.00  0.00    -0.294 OA
ATOM     14  C   UNL     1      32.146 -23.085 -16.466  0.00  0.00    +0.170 C 
BRANCH  14  15
ATOM     15  C   UNL     1      32.068 -23.826 -15.138  0.00  0.00    +0.084 C 
BRANCH  15  17
ATOM     16 CL   UNL     1      29.576 -24.896 -14.823  0.00  0.00    -0.113 Cl
ATOM     17  C   UNL     1      30.754 -23.629 -14.398  0.00  0.00    +0.103 C 
ENDBRANCH  15  17
ENDBRANCH  14  15
ENDBRANCH   1  14
BRANCH   1  18
ATOM     18  C   UNL     1      33.701 -23.115 -18.462  0.00  0.00    +0.053 C 
BRANCH  18  19
ATOM     19  C   UNL     1      34.067 -21.923 -19.310  0.00  0.00    -0.020 C 
ATOM     20  C   UNL     1      35.404 -21.663 -19.609  0.00  0.00    -0.004 C 
ATOM     21  C   UNL     1      33.067 -21.078 -19.793  0.00  0.00    -0.004 C 
ATOM     22  C   UNL     1      35.741 -20.560 -20.394  0.00  0.00    -0.000 C 
ATOM     23  C   UNL     1      33.405 -19.975 -20.578  0.00  0.00    -0.000 C 
ATOM     24  C   UNL     1      34.743 -19.716 -20.877  0.00  0.00    -0.000 C 
ENDBRANCH  18  19
ENDBRANCH   1  18
TORSDOF 8
ENDMDL
MODEL 4
REMARK VINA RESULT:      -8.5      2.290      4.721
REMARK  Name = 46937104
REMARK  8 active torsions:
REMARK  status: ('A' for Active; 'I' for Inactive)
REMARK    1  A    between atoms: C_1  and  N_3
REMARK    2  A    between atoms: C_1  and  C_14
REMARK    3  A    between atoms: C_1  and  C_18
REMARK    4  A    between atoms: C_4  and  C_6
REMARK    5  A    between atoms: C_6  and  N_9
REMARK    6  A    between atoms: C_14  and  C_15
REMARK    7  A    between atoms: C_15  and  C_17
REMARK    8  A    between atoms: C_18  and  C_19
REMARK                            x       y       z     vdW  Elec       q    Type
REMARK                         _______ _______ _______ _____ _____    ______ ____
ROOT
ATOM      1  C   UNL     1      33.901 -23.864 -15.613  0.00  0.00    +0.134 C 
ENDROOT
BRANCH   1   3
ATOM      2  O   UNL     1      35.636 -26.157 -15.608  0.00  0.00    -0.273 OA
ATOM      3  N   UNL     1      34.922 -24.171 -14.644  0.00  0.00    -0.298 N 
ATOM      4  C   UNL     1      35.716 -25.308 -14.723  0.00  0.00    +0.241 C 
ATOM      5  H   UNL     1      35.063 -23.548 -13.893  0.00  0.00    +0.150 HD
BRANCH   4   6
ATOM      6  C   UNL     1      36.746 -25.370 -13.603  0.00  0.00    +0.149 C 
ATOM      7  C   UNL     1      36.340 -24.479 -12.440  0.00  0.00    +0.031 C 
BRANCH   6   9
ATOM      8  O   UNL     1      38.837 -27.097 -14.641  0.00  0.00    -0.275 OA
ATOM      9  N   UNL     1      38.019 -24.974 -14.147  0.00  0.00    -0.298 N 
ATOM     10  C   UNL     1      38.960 -25.875 -14.622  0.00  0.00    +0.223 C 
ATOM     11  C   UNL     1      40.190 -25.193 -15.158  0.00  0.00    +0.095 C 
ATOM     12  H   UNL     1      38.232 -24.013 -14.185  0.00  0.00    +0.150 HD
ENDBRANCH   6   9
ENDBRANCH   4   6
ENDBRANCH   1   3
BRANCH   1  14
ATOM     13  O   UNL     1      35.784 -22.770 -16.647  0.00  0.00    -0.294 OA
ATOM     14  C   UNL     1      34.610 -23.128 -16.746  0.00  0.00    +0.170 C 
BRANCH  14  15
ATOM     15  C   UNL     1      33.774 -22.844 -17.987  0.00  0.00    +0.084 C 
BRANCH  15  17
ATOM     16 CL   UNL     1      33.411 -20.872 -19.841  0.00  0.00    -0.113 Cl
ATOM     17  C   UNL     1      34.503 -22.037 -19.050  0.00  0.00    +0.103 C 
ENDBRANCH  15  17
ENDBRANCH  14  15
ENDBRANCH   1  14
BRANCH   1  18
ATOM     18  C   UNL     1      32.793 -23.013 -14.989  0.00  0.00    +0.053 C 
BRANCH  18  19
ATOM     19  C   UNL     1      31.412 -23.567 -15.236  0.00  0.00    -0.020 C 
ATOM     20  C   UNL     1      30.543 -22.910 -16.107  0.00  0.00    -0.004 C 
ATOM     21  C   UNL     1      31.004 -24.735 -14.591  0.00  0.00    -0.004 C 
ATOM     22  C   UNL     1      29.266 -23.423 -16.335  0.00  0.00    -0.000 C 
ATOM     23  C   UNL     1      29.726 -25.247 -14.820  0.00  0.00    -0.000 C 
ATOM     24  C   UNL     1      28.857 -24.591 -15.692  0.00  0.00    -0.000 C 
ENDBRANCH  18  19
ENDBRANCH   1  18
TORSDOF 8
ENDMDL
MODEL 5
REMARK VINA RESULT:      -8.4      2.434      4.875
REMARK  Name = 46937104
REMARK  8 active torsions:
REMARK  status: ('A' for Active; 'I' for Inactive)
REMARK    1  A    between atoms: C_1  and  N_3
REMARK    2  A    between atoms: C_1  and  C_14
REMARK    3  A    between atoms: C_1  and  C_18
REMARK    4  A    between atoms: C_4  and  C_6
REMARK    5  A    between atoms: C_6  and  N_9
REMARK    6  A    between atoms: C_14  and  C_15
REMARK    7  A    between atoms: C_15  and  C_17
REMARK    8  A    between atoms: C_18  and  C_19
REMARK                            x       y       z     vdW  Elec       q    Type
REMARK                         _______ _______ _______ _____ _____    ______ ____
ROOT
ATOM      1  C   UNL     1      33.558 -23.511 -16.514  0.00  0.00    +0.134 C 
ENDROOT
BRANCH   1   3
ATOM      2  O   UNL     1      35.637 -25.177 -15.429  0.00  0.00    -0.273 OA
ATOM      3  N   UNL     1      34.888 -23.099 -16.143  0.00  0.00    -0.298 N 
ATOM      4  C   UNL     1      35.830 -23.978 -15.624  0.00  0.00    +0.241 C 
ATOM      5  H   UNL     1      35.139 -22.154 -16.262  0.00  0.00    +0.150 HD
BRANCH   4   6
ATOM      6  C   UNL     1      37.168 -23.298 -15.361  0.00  0.00    +0.149 C 
ATOM      7  C   UNL     1      37.402 -22.161 -16.342  0.00  0.00    +0.031 C 
BRANCH   6   9
ATOM      8  O   UNL     1      38.787 -24.381 -13.207  0.00  0.00    -0.275 OA
ATOM      9  N   UNL     1      38.201 -24.296 -15.459  0.00  0.00    -0.298 N 
ATOM     10  C   UNL     1      38.925 -24.755 -14.369  0.00  0.00    +0.223 C 
ATOM     11  C   UNL     1      39.924 -25.815 -14.748  0.00  0.00    +0.095 C 
ATOM     12  H   UNL     1      38.402 -24.674 -16.346  0.00  0.00    +0.150 HD
ENDBRANCH   6   9
ENDBRANCH   4   6
ENDBRANCH   1   3
BRANCH   1  14
ATOM     13  O   UNL     1      33.780 -24.161 -18.824  0.00  0.00    -0.294 OA
ATOM     14  C   UNL     1      33.457 -23.287 -18.020  0.00  0.00    +0.170 C 
BRANCH  14  15
ATOM     15  C   UNL     1      32.962 -21.916 -18.461  0.00  0.00    +0.084 C 
BRANCH  15  17
ATOM     16 CL   UNL     1      32.805 -20.098 -20.492  0.00  0.00    -0.113 Cl
ATOM     17  C   UNL     1      33.761 -21.311 -19.605  0.00  0.00    +0.103 C 
ENDBRANCH  15  17
ENDBRANCH  14  15
ENDBRANCH   1  14
BRANCH   1  18
ATOM     18  C   UNL     1      32.504 -22.709 -15.748  0.00  0.00    +0.053 C 
BRANCH  18  19
ATOM     19  C   UNL     1      31.216 -23.468 -15.544  0.00  0.00    -0.020 C 
ATOM     20  C   UNL     1      30.051 -23.049 -16.185  0.00  0.00    -0.004 C 
ATOM     21  C   UNL     1      31.192 -24.589 -14.714  0.00  0.00    -0.004 C 
ATOM     22  C   UNL     1      28.860 -23.751 -15.997  0.00  0.00    -0.000 C 
ATOM     23  C   UNL     1      30.000 -25.291 -14.526  0.00  0.00    -0.000 C 
ATOM     24  C   UNL     1      28.834 -24.872 -15.167  0.00  0.00    -0.000 C 
ENDBRANCH  18  19
ENDBRANCH   1  18
TORSDOF 8
ENDMDL
MODEL 6
REMARK VINA RESULT:      -8.3      9.942     13.429
REMARK  Name = 46937104
REMARK  8 active torsions:
REMARK  status: ('A' for Active; 'I' for Inactive)
REMARK    1  A    between atoms: C_1  and  N_3
REMARK    2  A    between atoms: C_1  and  C_14
REMARK    3  A    between atoms: C_1  and  C_18
REMARK    4  A    between atoms: C_4  and  C_6
REMARK    5  A    between atoms: C_6  and  N_9
REMARK    6  A    between atoms: C_14  and  C_15
REMARK    7  A    between atoms: C_15  and  C_17
REMARK    8  A    between atoms: C_18  and  C_19
REMARK                            x       y       z     vdW  Elec       q    Type
REMARK                         _______ _______ _______ _____ _____    ______ ____
ROOT
ATOM      1  C   UNL     1      33.365 -13.997 -23.248  0.00  0.00    +0.134 C 
ENDROOT
BRANCH   1   3
ATOM      2  O   UNL     1      33.544 -12.855 -25.881  0.00  0.00    -0.273 OA
ATOM      3  N   UNL     1      33.632 -12.619 -23.574  0.00  0.00    -0.298 N 
ATOM      4  C   UNL     1      33.701 -12.156 -24.882  0.00  0.00    +0.241 C 
ATOM      5  H   UNL     1      33.772 -11.979 -22.839  0.00  0.00    +0.150 HD
BRANCH   4   6
ATOM      6  C   UNL     1      33.947 -10.654 -24.948  0.00  0.00    +0.149 C 
ATOM      7  C   UNL     1      35.351 -10.355 -25.451  0.00  0.00    +0.031 C 
BRANCH   6   9
ATOM      8  O   UNL     1      31.883  -8.785 -24.125  0.00  0.00    -0.275 OA
ATOM      9  N   UNL     1      33.734 -10.110 -23.633  0.00  0.00    -0.298 N 
ATOM     10  C   UNL     1      32.716  -9.218 -23.331  0.00  0.00    +0.223 C 
ATOM     11  C   UNL     1      32.704  -8.827 -21.878  0.00  0.00    +0.095 C 
ATOM     12  H   UNL     1      34.343 -10.386 -22.910  0.00  0.00    +0.150 HD
ENDBRANCH   6   9
ENDBRANCH   4   6
ENDBRANCH   1   3
BRANCH   1  14
ATOM     13  O   UNL     1      32.081 -14.993 -21.467  0.00  0.00    -0.294 OA
ATOM     14  C   UNL     1      32.401 -13.966 -22.065  0.00  0.00    +0.170 C 
BRANCH  14  15
ATOM     15  C   UNL     1      31.842 -12.599 -21.693  0.00  0.00    +0.084 C 
BRANCH  15  17
ATOM     16 CL   UNL     1      30.870 -10.928 -19.765  0.00  0.00    -0.113 Cl
ATOM     17  C   UNL     1      31.950 -12.272 -20.211  0.00  0.00    +0.103 C 
ENDBRANCH  15  17
ENDBRANCH  14  15
ENDBRANCH   1  14
BRANCH   1  18
ATOM     18  C   UNL     1      34.659 -14.739 -22.907  0.00  0.00    +0.053 C 
BRANCH  18  19
ATOM     19  C   UNL     1      34.679 -16.158 -23.418  0.00  0.00    -0.020 C 
ATOM     20  C   UNL     1      34.360 -16.424 -24.750  0.00  0.00    -0.004 C 
ATOM     21  C   UNL     1      35.015 -17.203 -22.558  0.00  0.00    -0.004 C 
ATOM     22  C   UNL     1      34.379 -17.737 -25.221  0.00  0.00    -0.000 C 
ATOM     23  C   UNL     1      35.034 -18.516 -23.031  0.00  0.00    -0.000 C 
ATOM     24  C   UNL     1      34.715 -18.783 -24.363  0.00  0.00    -0.000 C 
ENDBRANCH  18  19
ENDBRANCH   1  18
TORSDOF 8
ENDMDL
MODEL 7
REMARK VINA RESULT:      -8.3      1.331      1.574
REMARK  Name = 46937104
REMARK  8 active torsions:
REMARK  status: ('A' for Active; 'I' for Inactive)
REMARK    1  A    between atoms: C_1  and  N_3
REMARK    2  A    between atoms: C_1  and  C_14
REMARK    3  A    between atoms: C_1  and  C_18
REMARK    4  A    between atoms: C_4  and  C_6
REMARK    5  A    between atoms: C_6  and  N_9
REMARK    6  A    between atoms: C_14  and  C_15
REMARK    7  A    between atoms: C_15  and  C_17
REMARK    8  A    between atoms: C_18  and  C_19
REMARK                            x       y       z     vdW  Elec       q    Type
REMARK                         _______ _______ _______ _____ _____    ______ ____
ROOT
ATOM      1  C   UNL     1      33.650 -23.265 -15.277  0.00  0.00    +0.134 C 
ENDROOT
BRANCH   1   3
ATOM      2  O   UNL     1      36.425 -22.857 -14.639  0.00  0.00    -0.273 OA
ATOM      3  N   UNL     1      34.528 -24.193 -14.610  0.00  0.00    -0.298 N 
ATOM      4  C   UNL     1      35.861 -23.909 -14.343  0.00  0.00    +0.241 C 
ATOM      5  H   UNL     1      34.167 -25.067 -14.334  0.00  0.00    +0.150 HD
BRANCH   4   6
ATOM      6  C   UNL     1      36.550 -25.038 -13.589  0.00  0.00    +0.149 C 
ATOM      7  C   UNL     1      36.234 -24.973 -12.103  0.00  0.00    +0.031 C 
BRANCH   6   9
ATOM      8  O   UNL     1      38.298 -27.051 -14.741  0.00  0.00    -0.275 OA
ATOM      9  N   UNL     1      37.966 -24.934 -13.828  0.00  0.00    -0.298 N 
ATOM     10  C   UNL     1      38.723 -25.953 -14.387  0.00  0.00    +0.223 C 
ATOM     11  C   UNL     1      40.169 -25.572 -14.550  0.00  0.00    +0.095 C 
ATOM     12  H   UNL     1      38.420 -24.095 -13.584  0.00  0.00    +0.150 HD
ENDBRANCH   6   9
ENDBRANCH   4   6
ENDBRANCH   1   3
BRANCH   1  14
ATOM     13  O   UNL     1      32.401 -23.483 -13.227  0.00  0.00    -0.294 OA
ATOM     14  C   UNL     1      32.386 -23.202 -14.426  0.00  0.00    +0.170 C 
BRANCH  14  15
ATOM     15  C   UNL     1      31.109 -22.800 -15.152  0.00  0.00    +0.084 C 
BRANCH  15  17
ATOM     16 CL   UNL     1      30.408 -25.419 -14.830  0.00  0.00    -0.113 Cl
ATOM     17  C   UNL     1      29.922 -23.706 -14.859  0.00  0.00    +0.103 C 
ENDBRANCH  15  17
ENDBRANCH  14  15
ENDBRANCH   1  14
BRANCH   1  18
ATOM     18  C   UNL     1      33.352 -23.724 -16.706  0.00  0.00    +0.053 C 
BRANCH  18  19
ATOM     19  C   UNL     1      33.903 -22.791 -17.754  0.00  0.00    -0.020 C 
ATOM     20  C   UNL     1      33.042 -22.182 -18.668  0.00  0.00    -0.004 C 
ATOM     21  C   UNL     1      35.273 -22.537 -17.811  0.00  0.00    -0.004 C 
ATOM     22  C   UNL     1      33.552 -21.319 -19.637  0.00  0.00    -0.000 C 
ATOM     23  C   UNL     1      35.783 -21.673 -18.781  0.00  0.00    -0.000 C 
ATOM     24  C   UNL     1      34.922 -21.064 -19.695  0.00  0.00    -0.000 C 
ENDBRANCH  18  19
ENDBRANCH   1  18
TORSDOF 8
ENDMDL
MODEL 8
REMARK VINA RESULT:      -8.2      2.508      5.155
REMARK  Name = 46937104
REMARK  8 active torsions:
REMARK  status: ('A' for Active; 'I' for Inactive)
REMARK    1  A    between atoms: C_1  and  N_3
REMARK    2  A    between atoms: C_1  and  C_14
REMARK    3  A    between atoms: C_1  and  C_18
REMARK    4  A    between atoms: C_4  and  C_6
REMARK    5  A    between atoms: C_6  and  N_9
REMARK    6  A    between atoms: C_14  and  C_15
REMARK    7  A    between atoms: C_15  and  C_17
REMARK    8  A    between atoms: C_18  and  C_19
REMARK                            x       y       z     vdW  Elec       q    Type
REMARK                         _______ _______ _______ _____ _____    ______ ____
ROOT
ATOM      1  C   UNL     1      33.901 -23.853 -15.731  0.00  0.00    +0.134 C 
ENDROOT
BRANCH   1   3
ATOM      2  O   UNL     1      35.571 -26.194 -15.770  0.00  0.00    -0.273 OA
ATOM      3  N   UNL     1      35.033 -24.119 -14.881  0.00  0.00    -0.298 N 
ATOM      4  C   UNL     1      35.785 -25.284 -14.972  0.00  0.00    +0.241 C 
ATOM      5  H   UNL     1      35.284 -23.447 -14.206  0.00  0.00    +0.150 HD
BRANCH   4   6
ATOM      6  C   UNL     1      36.951 -25.294 -13.993  0.00  0.00    +0.149 C 
ATOM      7  C   UNL     1      37.873 -26.474 -14.257  0.00  0.00    +0.031 C 
BRANCH   6   9
ATOM      8  O   UNL     1      36.487 -23.056 -12.202  0.00  0.00    -0.275 OA
ATOM      9  N   UNL     1      36.413 -25.338 -12.659  0.00  0.00    -0.298 N 
ATOM     10  C   UNL     1      36.225 -24.210 -11.873  0.00  0.00    +0.223 C 
ATOM     11  C   UNL     1      35.624 -24.536 -10.533  0.00  0.00    +0.095 C 
ATOM     12  H   UNL     1      36.163 -26.214 -12.285  0.00  0.00    +0.150 HD
ENDBRANCH   6   9
ENDBRANCH   4   6
ENDBRANCH   1   3
BRANCH   1  14
ATOM     13  O   UNL     1      35.611 -22.674 -16.955  0.00  0.00    -0.294 OA
ATOM     14  C   UNL     1      34.452 -23.089 -16.932  0.00  0.00    +0.170 C 
BRANCH  14  15
ATOM     15  C   UNL     1      33.479 -22.852 -18.079  0.00  0.00    +0.084 C 
BRANCH  15  17
ATOM     16 CL   UNL     1      33.165 -20.772 -19.820  0.00  0.00    -0.113 Cl
ATOM     17  C   UNL     1      34.109 -22.188 -19.294  0.00  0.00    +0.103 C 
ENDBRANCH  15  17
ENDBRANCH  14  15
ENDBRANCH   1  14
BRANCH   1  18
ATOM     18  C   UNL     1      32.835 -23.047 -14.986  0.00  0.00    +0.053 C 
BRANCH  18  19
ATOM     19  C   UNL     1      31.442 -23.596 -15.171  0.00  0.00    -0.020 C 
ATOM     20  C   UNL     1      30.513 -22.895 -15.939  0.00  0.00    -0.004 C 
ATOM     21  C   UNL     1      31.084 -24.804 -14.573  0.00  0.00    -0.004 C 
ATOM     22  C   UNL     1      29.225 -23.403 -16.110  0.00  0.00    -0.000 C 
ATOM     23  C   UNL     1      29.795 -25.312 -14.745  0.00  0.00    -0.000 C 
ATOM     24  C   UNL     1      28.866 -24.610 -15.513  0.00  0.00    -0.000 C 
ENDBRANCH  18  19
ENDBRANCH   1  18
TORSDOF 8
ENDMDL
MODEL 9
REMARK VINA RESULT:      -8.2      7.610     10.509
REMARK  Name = 46937104
REMARK  8 active torsions:
REMARK  status: ('A' for Active; 'I' for Inactive)
REMARK    1  A    between atoms: C_1  and  N_3
REMARK    2  A    between atoms: C_1  and  C_14
REMARK    3  A    between atoms: C_1  and  C_18
REMARK    4  A    between atoms: C_4  and  C_6
REMARK    5  A    between atoms: C_6  and  N_9
REMARK    6  A    between atoms: C_14  and  C_15
REMARK    7  A    between atoms: C_15  and  C_17
REMARK    8  A    between atoms: C_18  and  C_19
REMARK                            x       y       z     vdW  Elec       q    Type
REMARK                         _______ _______ _______ _____ _____    ______ ____
ROOT
ATOM      1  C   UNL     1      34.187 -15.170 -22.550  0.00  0.00    +0.134 C 
ENDROOT
BRANCH   1   3
ATOM      2  O   UNL     1      35.136 -16.791 -24.729  0.00  0.00    -0.273 OA
ATOM      3  N   UNL     1      34.401 -16.595 -22.536  0.00  0.00    -0.298 N 
ATOM      4  C   UNL     1      34.864 -17.297 -23.642  0.00  0.00    +0.241 C 
ATOM      5  H   UNL     1      34.210 -17.093 -21.707  0.00  0.00    +0.150 HD
BRANCH   4   6
ATOM      6  C   UNL     1      35.047 -18.780 -23.346  0.00  0.00    +0.149 C 
ATOM      7  C   UNL     1      34.932 -19.607 -24.617  0.00  0.00    +0.031 C 
BRANCH   6   9
ATOM      8  O   UNL     1      35.482 -20.173 -20.836  0.00  0.00    -0.275 OA
ATOM      9  N   UNL     1      34.056 -19.167 -22.378  0.00  0.00    -0.298 N 
ATOM     10  C   UNL     1      34.358 -19.833 -21.199  0.00  0.00    +0.223 C 
ATOM     11  C   UNL     1      33.139 -20.094 -20.357  0.00  0.00    +0.095 C 
ATOM     12  H   UNL     1      33.113 -18.947 -22.561  0.00  0.00    +0.150 HD
ENDBRANCH   6   9
ENDBRANCH   4   6
ENDBRANCH   1   3
BRANCH   1  14
ATOM     13  O   UNL     1      34.987 -14.728 -20.320  0.00  0.00    -0.294 OA
ATOM     14  C   UNL     1      34.027 -14.759 -21.090  0.00  0.00    +0.170 C 
BRANCH  14  15
ATOM     15  C   UNL     1      32.612 -14.417 -20.641  0.00  0.00    +0.084 C 
BRANCH  15  17
ATOM     16 CL   UNL     1      31.453 -12.094 -21.486  0.00  0.00    -0.113 Cl
ATOM     17  C   UNL     1      32.421 -12.956 -20.264  0.00  0.00    +0.103 C 
ENDBRANCH  15  17
ENDBRANCH  14  15
ENDBRANCH   1  14
BRANCH   1  18
ATOM     18  C   UNL     1      32.953 -14.811 -23.381  0.00  0.00    +0.053 C 
BRANCH  18  19
ATOM     19  C   UNL     1      33.251 -13.831 -24.488  0.00  0.00    -0.020 C 
ATOM     20  C   UNL     1      33.038 -14.196 -25.818  0.00  0.00    -0.004 C 
ATOM     21  C   UNL     1      33.740 -12.561 -24.182  0.00  0.00    -0.004 C 
ATOM     22  C   UNL     1      33.313 -13.289 -26.841  0.00  0.00    -0.000 C 
ATOM     23  C   UNL     1      34.014 -11.655 -25.207  0.00  0.00    -0.000 C 
ATOM     24  C   UNL     1      33.802 -12.019 -26.537  0.00  0.00    -0.000 C 
ENDBRANCH  18  19
ENDBRANCH   1  18
TORSDOF 8
ENDMDL
