MODEL 1
REMARK VINA RESULT:     -12.2      0.000      0.000
REMARK  Name = 11406590
REMARK  3 active torsions:
REMARK  status: ('A' for Active; 'I' for Inactive)
REMARK    1  A    between atoms: N_2  and  C_16
REMARK    2  A    between atoms: C_12  and  O_21
REMARK    3  A    between atoms: O_21  and  C_24
REMARK                            x       y       z     vdW  Elec       q    Type
REMARK                         _______ _______ _______ _____ _____    ______ ____
ROOT
ATOM      1  O   UNL     1      33.341 -14.814 -26.345  0.00  0.00    -0.266 OA
ATOM      2  N   UNL     1      35.481 -18.217 -20.514  0.00  0.00    -0.270 N 
ATOM      3  N   UNL     1      34.774 -17.123 -22.466  0.00  0.00    -0.322 NA
ATOM      4  N   UNL     1      34.048 -15.990 -24.466  0.00  0.00    -0.225 N 
ATOM      5  N   UNL     1      34.940 -15.940 -20.376  0.00  0.00    -0.170 NA
ATOM      6  C   UNL     1      35.043 -17.034 -21.149  0.00  0.00    +0.146 C 
ATOM      7  C   UNL     1      34.355 -15.985 -23.071  0.00  0.00    +0.204 C 
ATOM      8  C   UNL     1      34.212 -14.796 -22.370  0.00  0.00    +0.068 C 
ATOM      9  C   UNL     1      34.520 -14.833 -21.019  0.00  0.00    +0.116 C 
ATOM     10  C   UNL     1      33.761 -13.586 -23.033  0.00  0.00    +0.048 C 
ATOM     11  C   UNL     1      33.613 -14.850 -25.144  0.00  0.00    +0.289 C 
ATOM     12  C   UNL     1      33.476 -13.598 -24.340  0.00  0.00    +0.199 C 
ATOM     13  C   UNL     1      34.207 -17.255 -25.179  0.00  0.00    +0.123 C 
ATOM     14  H   UNL     1      35.687 -18.187 -19.552  0.00  0.00    +0.159 HD
ENDROOT
BRANCH   2  16
ATOM     15  O   UNL     1      35.092 -21.685 -19.436  0.00  0.00    -0.354 OA
ATOM     16  C   UNL     1      35.639 -19.474 -21.218  0.00  0.00    +0.084 C 
ATOM     17  C   UNL     1      36.745 -20.309 -20.571  0.00  0.00    +0.052 C 
ATOM     18  C   UNL     1      34.312 -20.237 -21.225  0.00  0.00    +0.052 C 
ATOM     19  C   UNL     1      36.294 -20.941 -19.257  0.00  0.00    +0.144 C 
ATOM     20  C   UNL     1      34.009 -20.861 -19.866  0.00  0.00    +0.144 C 
ENDBRANCH   2  16
BRANCH  12  21
ATOM     21  O   UNL     1      33.045 -12.473 -25.013  0.00  0.00    -0.447 OA
BRANCH  21  24
ATOM     22  F   UNL     1      31.880 -10.909 -23.071  0.00  0.00    -0.201 F 
ATOM     23  F   UNL     1      35.317  -7.691 -23.560  0.00  0.00    -0.204 F 
ATOM     24  C   UNL     1      33.610 -11.283 -24.651  0.00  0.00    +0.173 C 
ATOM     25  C   UNL     1      33.009 -10.502 -23.666  0.00  0.00    +0.177 C 
ATOM     26  C   UNL     1      34.783 -10.858 -25.268  0.00  0.00    +0.042 C 
ATOM     27  C   UNL     1      33.587  -9.287 -23.298  0.00  0.00    +0.062 C 
ATOM     28  C   UNL     1      35.361  -9.643 -24.899  0.00  0.00    +0.033 C 
ATOM     29  C   UNL     1      34.763  -8.858 -23.914  0.00  0.00    +0.143 C 
ENDBRANCH  21  24
ENDBRANCH  12  21
TORSDOF 3
ENDMDL
MODEL 2
REMARK VINA RESULT:     -12.0      0.908      1.287
REMARK  Name = 11406590
REMARK  3 active torsions:
REMARK  status: ('A' for Active; 'I' for Inactive)
REMARK    1  A    between atoms: N_2  and  C_16
REMARK    2  A    between atoms: C_12  and  O_21
REMARK    3  A    between atoms: O_21  and  C_24
REMARK                            x       y       z     vdW  Elec       q    Type
REMARK                         _______ _______ _______ _____ _____    ______ ____
ROOT
ATOM      1  O   UNL     1      33.414 -14.609 -26.397  0.00  0.00    -0.266 OA
ATOM      2  N   UNL     1      35.431 -18.081 -20.563  0.00  0.00    -0.270 N 
ATOM      3  N   UNL     1      34.765 -16.963 -22.516  0.00  0.00    -0.322 NA
ATOM      4  N   UNL     1      34.081 -15.807 -24.517  0.00  0.00    -0.225 N 
ATOM      5  N   UNL     1      34.896 -15.803 -20.411  0.00  0.00    -0.170 NA
ATOM      6  C   UNL     1      35.010 -16.889 -21.193  0.00  0.00    +0.146 C 
ATOM      7  C   UNL     1      34.362 -15.818 -23.117  0.00  0.00    +0.204 C 
ATOM      8  C   UNL     1      34.210 -14.636 -22.406  0.00  0.00    +0.068 C 
ATOM      9  C   UNL     1      34.493 -14.687 -21.050  0.00  0.00    +0.116 C 
ATOM     10  C   UNL     1      33.777 -13.417 -23.064  0.00  0.00    +0.048 C 
ATOM     11  C   UNL     1      33.663 -14.658 -25.191  0.00  0.00    +0.289 C 
ATOM     12  C   UNL     1      33.517 -13.414 -24.377  0.00  0.00    +0.199 C 
ATOM     13  C   UNL     1      34.248 -17.065 -25.239  0.00  0.00    +0.123 C 
ATOM     14  H   UNL     1      35.619 -18.061 -19.596  0.00  0.00    +0.159 HD
ENDROOT
BRANCH   2  16
ATOM     15  O   UNL     1      35.071 -21.559 -19.510  0.00  0.00    -0.354 OA
ATOM     16  C   UNL     1      35.596 -19.331 -21.276  0.00  0.00    +0.084 C 
ATOM     17  C   UNL     1      36.711 -20.162 -20.638  0.00  0.00    +0.052 C 
ATOM     18  C   UNL     1      34.276 -20.104 -21.286  0.00  0.00    +0.052 C 
ATOM     19  C   UNL     1      36.268 -20.808 -19.328  0.00  0.00    +0.144 C 
ATOM     20  C   UNL     1      33.981 -20.740 -19.931  0.00  0.00    +0.144 C 
ENDBRANCH   2  16
BRANCH  12  21
ATOM     21  O   UNL     1      33.103 -12.280 -25.046  0.00  0.00    -0.447 OA
BRANCH  21  24
ATOM     22  F   UNL     1      35.384 -11.179 -26.123  0.00  0.00    -0.201 F 
ATOM     23  F   UNL     1      35.011  -7.475 -23.199  0.00  0.00    -0.204 F 
ATOM     24  C   UNL     1      33.578 -11.085 -24.587  0.00  0.00    +0.173 C 
ATOM     25  C   UNL     1      34.734 -10.539 -25.141  0.00  0.00    +0.177 C 
ATOM     26  C   UNL     1      32.905 -10.418 -23.567  0.00  0.00    +0.042 C 
ATOM     27  C   UNL     1      35.218  -9.318 -24.672  0.00  0.00    +0.062 C 
ATOM     28  C   UNL     1      33.389  -9.197 -23.097  0.00  0.00    +0.033 C 
ATOM     29  C   UNL     1      34.545  -8.647 -23.650  0.00  0.00    +0.143 C 
ENDBRANCH  21  24
ENDBRANCH  12  21
TORSDOF 3
ENDMDL
MODEL 3
REMARK VINA RESULT:     -11.0      5.474      8.777
REMARK  Name = 11406590
REMARK  3 active torsions:
REMARK  status: ('A' for Active; 'I' for Inactive)
REMARK    1  A    between atoms: N_2  and  C_16
REMARK    2  A    between atoms: C_12  and  O_21
REMARK    3  A    between atoms: O_21  and  C_24
REMARK                            x       y       z     vdW  Elec       q    Type
REMARK                         _______ _______ _______ _____ _____    ______ ____
ROOT
ATOM      1  O   UNL     1      32.923 -22.026 -20.095  0.00  0.00    -0.266 OA
ATOM      2  N   UNL     1      36.805 -23.474 -14.351  0.00  0.00    -0.270 N 
ATOM      3  N   UNL     1      35.490 -23.014 -16.239  0.00  0.00    -0.322 NA
ATOM      4  N   UNL     1      34.146 -22.538 -18.182  0.00  0.00    -0.225 N 
ATOM      5  N   UNL     1      37.711 -22.110 -16.030  0.00  0.00    -0.170 NA
ATOM      6  C   UNL     1      36.663 -22.834 -15.602  0.00  0.00    +0.146 C 
ATOM      7  C   UNL     1      35.358 -22.399 -17.439  0.00  0.00    +0.204 C 
ATOM      8  C   UNL     1      36.376 -21.626 -17.978  0.00  0.00    +0.068 C 
ATOM      9  C   UNL     1      37.535 -21.517 -17.227  0.00  0.00    +0.116 C 
ATOM     10  C   UNL     1      36.219 -20.973 -19.265  0.00  0.00    +0.048 C 
ATOM     11  C   UNL     1      33.951 -21.928 -19.423  0.00  0.00    +0.289 C 
ATOM     12  C   UNL     1      35.081 -21.107 -19.956  0.00  0.00    +0.199 C 
ATOM     13  C   UNL     1      33.091 -23.356 -17.591  0.00  0.00    +0.123 C 
ATOM     14  H   UNL     1      37.651 -23.363 -13.859  0.00  0.00    +0.159 HD
ENDROOT
BRANCH   2  16
ATOM     15  O   UNL     1      36.817 -25.795 -11.532  0.00  0.00    -0.354 OA
ATOM     16  C   UNL     1      35.760 -24.286 -13.760  0.00  0.00    +0.084 C 
ATOM     17  C   UNL     1      36.120 -25.769 -13.862  0.00  0.00    +0.052 C 
ATOM     18  C   UNL     1      35.544 -23.875 -12.302  0.00  0.00    +0.052 C 
ATOM     19  C   UNL     1      37.194 -26.171 -12.854  0.00  0.00    +0.144 C 
ATOM     20  C   UNL     1      36.661 -24.384 -11.397  0.00  0.00    +0.144 C 
ENDBRANCH   2  16
BRANCH  12  21
ATOM     21  O   UNL     1      34.885 -20.506 -21.182  0.00  0.00    -0.447 OA
BRANCH  21  24
ATOM     22  F   UNL     1      36.858 -18.644 -21.650  0.00  0.00    -0.201 F 
ATOM     23  F   UNL     1      33.712 -15.143 -21.154  0.00  0.00    -0.204 F 
ATOM     24  C   UNL     1      34.594 -19.171 -21.175  0.00  0.00    +0.173 C 
ATOM     25  C   UNL     1      35.603 -18.240 -21.414  0.00  0.00    +0.177 C 
ATOM     26  C   UNL     1      33.291 -18.749 -20.930  0.00  0.00    +0.042 C 
ATOM     27  C   UNL     1      35.304 -16.878 -21.406  0.00  0.00    +0.062 C 
ATOM     28  C   UNL     1      32.992 -17.386 -20.922  0.00  0.00    +0.033 C 
ATOM     29  C   UNL     1      33.998 -16.451 -21.161  0.00  0.00    +0.143 C 
ENDBRANCH  21  24
ENDBRANCH  12  21
TORSDOF 3
ENDMDL
MODEL 4
REMARK VINA RESULT:     -10.3      3.888      9.040
REMARK  Name = 11406590
REMARK  3 active torsions:
REMARK  status: ('A' for Active; 'I' for Inactive)
REMARK    1  A    between atoms: N_2  and  C_16
REMARK    2  A    between atoms: C_12  and  O_21
REMARK    3  A    between atoms: O_21  and  C_24
REMARK                            x       y       z     vdW  Elec       q    Type
REMARK                         _______ _______ _______ _____ _____    ______ ____
ROOT
ATOM      1  O   UNL     1      35.614 -17.373 -20.336  0.00  0.00    -0.266 OA
ATOM      2  N   UNL     1      33.069 -11.882 -24.015  0.00  0.00    -0.270 N 
ATOM      3  N   UNL     1      33.915 -13.679 -22.765  0.00  0.00    -0.322 NA
ATOM      4  N   UNL     1      34.783 -15.530 -21.489  0.00  0.00    -0.225 N 
ATOM      5  N   UNL     1      33.284 -13.965 -25.070  0.00  0.00    -0.170 NA
ATOM      6  C   UNL     1      33.440 -13.243 -23.948  0.00  0.00    +0.146 C 
ATOM      7  C   UNL     1      34.270 -14.985 -22.705  0.00  0.00    +0.204 C 
ATOM      8  C   UNL     1      34.151 -15.824 -23.804  0.00  0.00    +0.068 C 
ATOM      9  C   UNL     1      33.651 -15.257 -24.965  0.00  0.00    +0.116 C 
ATOM     10  C   UNL     1      34.537 -17.221 -23.724  0.00  0.00    +0.048 C 
ATOM     11  C   UNL     1      35.166 -16.867 -21.366  0.00  0.00    +0.289 C 
ATOM     12  C   UNL     1      35.017 -17.725 -22.581  0.00  0.00    +0.199 C 
ATOM     13  C   UNL     1      34.897 -14.625 -20.349  0.00  0.00    +0.123 C 
ATOM     14  H   UNL     1      32.719 -11.531 -24.865  0.00  0.00    +0.159 HD
ENDROOT
BRANCH   2  16
ATOM     15  O   UNL     1      31.059  -9.016 -22.973  0.00  0.00    -0.354 OA
ATOM     16  C   UNL     1      33.179 -10.981 -22.885  0.00  0.00    +0.084 C 
ATOM     17  C   UNL     1      33.399  -9.548 -23.371  0.00  0.00    +0.052 C 
ATOM     18  C   UNL     1      31.921 -11.077 -22.019  0.00  0.00    +0.052 C 
ATOM     19  C   UNL     1      32.120  -8.924 -23.921  0.00  0.00    +0.144 C 
ATOM     20  C   UNL     1      30.733 -10.370 -22.662  0.00  0.00    +0.144 C 
ENDBRANCH   2  16
BRANCH  12  21
ATOM     21  O   UNL     1      35.396 -19.046 -22.457  0.00  0.00    -0.447 OA
BRANCH  21  24
ATOM     22  F   UNL     1      36.875 -20.557 -20.694  0.00  0.00    -0.201 F 
ATOM     23  F   UNL     1      32.907 -21.980 -18.541  0.00  0.00    -0.204 F 
ATOM     24  C   UNL     1      34.777 -19.777 -21.482  0.00  0.00    +0.173 C 
ATOM     25  C   UNL     1      35.539 -20.537 -20.597  0.00  0.00    +0.177 C 
ATOM     26  C   UNL     1      33.389 -19.757 -21.379  0.00  0.00    +0.042 C 
ATOM     27  C   UNL     1      34.905 -21.282 -19.602  0.00  0.00    +0.062 C 
ATOM     28  C   UNL     1      32.756 -20.502 -20.384  0.00  0.00    +0.033 C 
ATOM     29  C   UNL     1      33.515 -21.264 -19.496  0.00  0.00    +0.143 C 
ENDBRANCH  21  24
ENDBRANCH  12  21
TORSDOF 3
ENDMDL
MODEL 5
REMARK VINA RESULT:     -10.3      3.722      8.775
REMARK  Name = 11406590
REMARK  3 active torsions:
REMARK  status: ('A' for Active; 'I' for Inactive)
REMARK    1  A    between atoms: N_2  and  C_16
REMARK    2  A    between atoms: C_12  and  O_21
REMARK    3  A    between atoms: O_21  and  C_24
REMARK                            x       y       z     vdW  Elec       q    Type
REMARK                         _______ _______ _______ _____ _____    ______ ____
ROOT
ATOM      1  O   UNL     1      34.790 -17.445 -24.831  0.00  0.00    -0.266 OA
ATOM      2  N   UNL     1      31.891 -11.768 -21.744  0.00  0.00    -0.270 N 
ATOM      3  N   UNL     1      32.846 -13.633 -22.802  0.00  0.00    -0.322 NA
ATOM      4  N   UNL     1      33.828 -15.552 -23.878  0.00  0.00    -0.225 N 
ATOM      5  N   UNL     1      32.694 -13.515 -20.402  0.00  0.00    -0.170 NA
ATOM      6  C   UNL     1      32.507 -13.035 -21.642  0.00  0.00    +0.146 C 
ATOM      7  C   UNL     1      33.437 -14.848 -22.699  0.00  0.00    +0.204 C 
ATOM      8  C   UNL     1      33.679 -15.440 -21.468  0.00  0.00    +0.068 C 
ATOM      9  C   UNL     1      33.284 -14.725 -20.348  0.00  0.00    +0.116 C 
ATOM     10  C   UNL     1      34.313 -16.742 -21.376  0.00  0.00    +0.048 C 
ATOM     11  C   UNL     1      34.441 -16.806 -23.837  0.00  0.00    +0.289 C 
ATOM     12  C   UNL     1      34.677 -17.397 -22.484  0.00  0.00    +0.199 C 
ATOM     13  C   UNL     1      33.562 -14.905 -25.160  0.00  0.00    +0.123 C 
ATOM     14  H   UNL     1      31.630 -11.304 -20.916  0.00  0.00    +0.159 HD
ENDROOT
BRANCH   2  16
ATOM     15  O   UNL     1      33.090  -8.635 -23.187  0.00  0.00    -0.354 OA
ATOM     16  C   UNL     1      31.626 -11.123 -23.014  0.00  0.00    +0.084 C 
ATOM     17  C   UNL     1      30.970  -9.760 -22.789  0.00  0.00    +0.052 C 
ATOM     18  C   UNL     1      32.928 -10.979 -23.806  0.00  0.00    +0.052 C 
ATOM     19  C   UNL     1      31.970  -8.712 -22.307  0.00  0.00    +0.144 C 
ATOM     20  C   UNL     1      33.809  -9.865 -23.250  0.00  0.00    +0.144 C 
ENDBRANCH   2  16
BRANCH  12  21
ATOM     21  O   UNL     1      35.282 -18.636 -22.447  0.00  0.00    -0.447 OA
BRANCH  21  24
ATOM     22  F   UNL     1      37.094 -19.826 -20.750  0.00  0.00    -0.201 F 
ATOM     23  F   UNL     1      33.579 -22.109 -18.550  0.00  0.00    -0.204 F 
ATOM     24  C   UNL     1      34.859 -19.500 -21.477  0.00  0.00    +0.173 C 
ATOM     25  C   UNL     1      35.788 -20.095 -20.626  0.00  0.00    +0.177 C 
ATOM     26  C   UNL     1      33.502 -19.782 -21.345  0.00  0.00    +0.042 C 
ATOM     27  C   UNL     1      35.354 -20.978 -19.636  0.00  0.00    +0.062 C 
ATOM     28  C   UNL     1      33.069 -20.664 -20.355  0.00  0.00    +0.033 C 
ATOM     29  C   UNL     1      33.995 -21.261 -19.501  0.00  0.00    +0.143 C 
ENDBRANCH  21  24
ENDBRANCH  12  21
TORSDOF 3
ENDMDL
MODEL 6
REMARK VINA RESULT:      -9.6      4.180      9.102
REMARK  Name = 11406590
REMARK  3 active torsions:
REMARK  status: ('A' for Active; 'I' for Inactive)
REMARK    1  A    between atoms: N_2  and  C_16
REMARK    2  A    between atoms: C_12  and  O_21
REMARK    3  A    between atoms: O_21  and  C_24
REMARK                            x       y       z     vdW  Elec       q    Type
REMARK                         _______ _______ _______ _____ _____    ______ ____
ROOT
ATOM      1  O   UNL     1      34.382 -13.095 -25.501  0.00  0.00    -0.266 OA
ATOM      2  N   UNL     1      31.829  -8.111 -21.164  0.00  0.00    -0.270 N 
ATOM      3  N   UNL     1      32.695  -9.735 -22.620  0.00  0.00    -0.322 NA
ATOM      4  N   UNL     1      33.578 -11.410 -24.111  0.00  0.00    -0.225 N 
ATOM      5  N   UNL     1      31.255 -10.354 -20.793  0.00  0.00    -0.170 NA
ATOM      6  C   UNL     1      31.930  -9.468 -21.543  0.00  0.00    +0.146 C 
ATOM      7  C   UNL     1      32.789 -11.038 -22.981  0.00  0.00    +0.204 C 
ATOM      8  C   UNL     1      32.133 -12.038 -22.277  0.00  0.00    +0.068 C 
ATOM      9  C   UNL     1      31.377 -11.636 -21.188  0.00  0.00    +0.116 C 
ATOM     10  C   UNL     1      32.244 -13.429 -22.677  0.00  0.00    +0.048 C 
ATOM     11  C   UNL     1      33.713 -12.735 -24.531  0.00  0.00    +0.289 C 
ATOM     12  C   UNL     1      32.985 -13.771 -23.737  0.00  0.00    +0.199 C 
ATOM     13  C   UNL     1      34.258 -10.337 -24.831  0.00  0.00    +0.123 C 
ATOM     14  H   UNL     1      31.278  -7.881 -20.381  0.00  0.00    +0.159 HD
ENDROOT
BRANCH   2  16
ATOM     15  O   UNL     1      30.566  -5.368 -23.218  0.00  0.00    -0.354 OA
ATOM     16  C   UNL     1      32.503  -7.044 -21.876  0.00  0.00    +0.084 C 
ATOM     17  C   UNL     1      32.219  -7.145 -23.375  0.00  0.00    +0.052 C 
ATOM     18  C   UNL     1      32.056  -5.688 -21.325  0.00  0.00    +0.052 C 
ATOM     19  C   UNL     1      30.809  -6.678 -23.726  0.00  0.00    +0.144 C 
ATOM     20  C   UNL     1      30.652  -5.320 -21.794  0.00  0.00    +0.144 C 
ENDBRANCH   2  16
BRANCH  12  21
ATOM     21  O   UNL     1      33.120 -15.079 -24.155  0.00  0.00    -0.447 OA
BRANCH  21  24
ATOM     22  F   UNL     1      34.553 -17.129 -25.304  0.00  0.00    -0.201 F 
ATOM     23  F   UNL     1      36.262 -18.353 -21.063  0.00  0.00    -0.204 F 
ATOM     24  C   UNL     1      33.902 -15.894 -23.386  0.00  0.00    +0.173 C 
ATOM     25  C   UNL     1      34.622 -16.928 -23.981  0.00  0.00    +0.177 C 
ATOM     26  C   UNL     1      33.975 -15.687 -22.011  0.00  0.00    +0.042 C 
ATOM     27  C   UNL     1      35.420 -17.759 -23.195  0.00  0.00    +0.062 C 
ATOM     28  C   UNL     1      34.773 -16.518 -21.225  0.00  0.00    +0.033 C 
ATOM     29  C   UNL     1      35.496 -17.554 -21.818  0.00  0.00    +0.143 C 
ENDBRANCH  21  24
ENDBRANCH  12  21
TORSDOF 3
ENDMDL
MODEL 7
REMARK VINA RESULT:      -9.6      1.814      2.927
REMARK  Name = 11406590
REMARK  3 active torsions:
REMARK  status: ('A' for Active; 'I' for Inactive)
REMARK    1  A    between atoms: N_2  and  C_16
REMARK    2  A    between atoms: C_12  and  O_21
REMARK    3  A    between atoms: O_21  and  C_24
REMARK                            x       y       z     vdW  Elec       q    Type
REMARK                         _______ _______ _______ _____ _____    ______ ____
ROOT
ATOM      1  O   UNL     1      32.448 -13.172 -22.260  0.00  0.00    -0.266 OA
ATOM      2  N   UNL     1      35.375 -19.609 -21.872  0.00  0.00    -0.270 N 
ATOM      3  N   UNL     1      34.403 -17.475 -21.962  0.00  0.00    -0.322 NA
ATOM      4  N   UNL     1      33.405 -15.285 -22.065  0.00  0.00    -0.225 N 
ATOM      5  N   UNL     1      35.093 -18.606 -23.972  0.00  0.00    -0.170 NA
ATOM      6  C   UNL     1      34.936 -18.510 -22.642  0.00  0.00    +0.146 C 
ATOM      7  C   UNL     1      33.983 -16.423 -22.705  0.00  0.00    +0.204 C 
ATOM      8  C   UNL     1      34.097 -16.414 -24.087  0.00  0.00    +0.068 C 
ATOM      9  C   UNL     1      34.661 -17.537 -24.670  0.00  0.00    +0.116 C 
ATOM     10  C   UNL     1      33.641 -15.278 -24.868  0.00  0.00    +0.048 C 
ATOM     11  C   UNL     1      32.953 -14.170 -22.775  0.00  0.00    +0.289 C 
ATOM     12  C   UNL     1      33.100 -14.215 -24.262  0.00  0.00    +0.199 C 
ATOM     13  C   UNL     1      33.298 -15.321 -20.609  0.00  0.00    +0.123 C 
ATOM     14  H   UNL     1      35.769 -20.382 -22.338  0.00  0.00    +0.159 HD
ENDROOT
BRANCH   2  16
ATOM     15  O   UNL     1      35.373 -22.385 -19.499  0.00  0.00    -0.354 OA
ATOM     16  C   UNL     1      35.272 -19.649 -20.427  0.00  0.00    +0.084 C 
ATOM     17  C   UNL     1      34.024 -20.426 -20.006  0.00  0.00    +0.052 C 
ATOM     18  C   UNL     1      36.534 -20.277 -19.833  0.00  0.00    +0.052 C 
ATOM     19  C   UNL     1      34.201 -21.933 -20.173  0.00  0.00    +0.144 C 
ATOM     20  C   UNL     1      36.559 -21.790 -20.024  0.00  0.00    +0.144 C 
ENDBRANCH   2  16
BRANCH  12  21
ATOM     21  O   UNL     1      32.654 -13.112 -24.962  0.00  0.00    -0.447 OA
BRANCH  21  24
ATOM     22  F   UNL     1      33.707 -13.273 -27.499  0.00  0.00    -0.201 F 
ATOM     23  F   UNL     1      36.460  -9.523 -26.626  0.00  0.00    -0.204 F 
ATOM     24  C   UNL     1      33.601 -12.219 -25.376  0.00  0.00    +0.173 C 
ATOM     25  C   UNL     1      34.125 -12.313 -26.664  0.00  0.00    +0.177 C 
ATOM     26  C   UNL     1      34.037 -11.221 -24.510  0.00  0.00    +0.042 C 
ATOM     27  C   UNL     1      35.092 -11.401 -27.086  0.00  0.00    +0.062 C 
ATOM     28  C   UNL     1      35.004 -10.309 -24.932  0.00  0.00    +0.033 C 
ATOM     29  C   UNL     1      35.531 -10.399 -26.220  0.00  0.00    +0.143 C 
ENDBRANCH  21  24
ENDBRANCH  12  21
TORSDOF 3
ENDMDL
MODEL 8
REMARK VINA RESULT:      -9.6      5.706     11.161
REMARK  Name = 11406590
REMARK  3 active torsions:
REMARK  status: ('A' for Active; 'I' for Inactive)
REMARK    1  A    between atoms: N_2  and  C_16
REMARK    2  A    between atoms: C_12  and  O_21
REMARK    3  A    between atoms: O_21  and  C_24
REMARK                            x       y       z     vdW  Elec       q    Type
REMARK                         _______ _______ _______ _____ _____    ______ ____
ROOT
ATOM      1  O   UNL     1      37.104 -22.439 -17.456  0.00  0.00    -0.266 OA
ATOM      2  N   UNL     1      33.794 -18.578 -22.385  0.00  0.00    -0.270 N 
ATOM      3  N   UNL     1      34.924 -19.839 -20.760  0.00  0.00    -0.322 NA
ATOM      4  N   UNL     1      36.075 -21.138 -19.089  0.00  0.00    -0.225 N 
ATOM      5  N   UNL     1      32.562 -20.127 -21.127  0.00  0.00    -0.170 NA
ATOM      6  C   UNL     1      33.756 -19.563 -21.374  0.00  0.00    +0.146 C 
ATOM      7  C   UNL     1      34.883 -20.785 -19.791  0.00  0.00    +0.204 C 
ATOM      8  C   UNL     1      33.703 -21.432 -19.452  0.00  0.00    +0.068 C 
ATOM      9  C   UNL     1      32.569 -21.062 -20.157  0.00  0.00    +0.116 C 
ATOM     10  C   UNL     1      33.677 -22.443 -18.412  0.00  0.00    +0.048 C 
ATOM     11  C   UNL     1      36.097 -22.105 -18.081  0.00  0.00    +0.289 C 
ATOM     12  C   UNL     1      34.798 -22.770 -17.758  0.00  0.00    +0.199 C 
ATOM     13  C   UNL     1      37.302 -20.441 -19.465  0.00  0.00    +0.123 C 
ATOM     14  H   UNL     1      32.958 -18.353 -22.855  0.00  0.00    +0.159 HD
ENDROOT
BRANCH   2  16
ATOM     15  O   UNL     1      34.399 -15.744 -24.608  0.00  0.00    -0.354 OA
ATOM     16  C   UNL     1      35.009 -17.883 -22.760  0.00  0.00    +0.084 C 
ATOM     17  C   UNL     1      35.243 -18.000 -24.267  0.00  0.00    +0.052 C 
ATOM     18  C   UNL     1      34.922 -16.416 -22.333  0.00  0.00    +0.052 C 
ATOM     19  C   UNL     1      34.311 -17.091 -25.066  0.00  0.00    +0.144 C 
ATOM     20  C   UNL     1      34.001 -15.613 -23.244  0.00  0.00    +0.144 C 
ENDBRANCH   2  16
BRANCH  12  21
ATOM     21  O   UNL     1      34.822 -23.725 -16.762  0.00  0.00    -0.447 OA
BRANCH  21  24
ATOM     22  F   UNL     1      35.398 -24.249 -14.122  0.00  0.00    -0.201 F 
ATOM     23  F   UNL     1      30.890 -23.419 -12.942  0.00  0.00    -0.204 F 
ATOM     24  C   UNL     1      33.844 -23.649 -15.811  0.00  0.00    +0.173 C 
ATOM     25  C   UNL     1      34.150 -23.917 -14.479  0.00  0.00    +0.177 C 
ATOM     26  C   UNL     1      32.547 -23.304 -16.179  0.00  0.00    +0.042 C 
ATOM     27  C   UNL     1      33.151 -23.839 -13.509  0.00  0.00    +0.062 C 
ATOM     28  C   UNL     1      31.547 -23.226 -15.209  0.00  0.00    +0.033 C 
ATOM     29  C   UNL     1      31.850 -23.493 -13.874  0.00  0.00    +0.143 C 
ENDBRANCH  21  24
ENDBRANCH  12  21
TORSDOF 3
ENDMDL
MODEL 9
REMARK VINA RESULT:      -9.5      4.781     10.049
REMARK  Name = 11406590
REMARK  3 active torsions:
REMARK  status: ('A' for Active; 'I' for Inactive)
REMARK    1  A    between atoms: N_2  and  C_16
REMARK    2  A    between atoms: C_12  and  O_21
REMARK    3  A    between atoms: O_21  and  C_24
REMARK                            x       y       z     vdW  Elec       q    Type
REMARK                         _______ _______ _______ _____ _____    ______ ____
ROOT
ATOM      1  O   UNL     1      32.688 -21.923 -19.235  0.00  0.00    -0.266 OA
ATOM      2  N   UNL     1      34.835 -16.232 -22.862  0.00  0.00    -0.270 N 
ATOM      3  N   UNL     1      34.087 -18.107 -21.666  0.00  0.00    -0.322 NA
ATOM      4  N   UNL     1      33.328 -20.035 -20.435  0.00  0.00    -0.225 N 
ATOM      5  N   UNL     1      36.435 -17.746 -22.058  0.00  0.00    -0.170 NA
ATOM      6  C   UNL     1      35.136 -17.420 -22.161  0.00  0.00    +0.146 C 
ATOM      7  C   UNL     1      34.380 -19.246 -20.993  0.00  0.00    +0.204 C 
ATOM      8  C   UNL     1      35.687 -19.679 -20.826  0.00  0.00    +0.068 C 
ATOM      9  C   UNL     1      36.678 -18.885 -21.381  0.00  0.00    +0.116 C 
ATOM     10  C   UNL     1      35.984 -20.902 -20.103  0.00  0.00    +0.048 C 
ATOM     11  C   UNL     1      33.567 -21.217 -19.732  0.00  0.00    +0.289 C 
ATOM     12  C   UNL     1      34.994 -21.636 -19.582  0.00  0.00    +0.199 C 
ATOM     13  C   UNL     1      31.962 -19.556 -20.627  0.00  0.00    +0.123 C 
ATOM     14  H   UNL     1      35.579 -15.706 -23.236  0.00  0.00    +0.159 HD
ENDROOT
BRANCH   2  16
ATOM     15  O   UNL     1      33.397 -12.876 -22.795  0.00  0.00    -0.354 OA
ATOM     16  C   UNL     1      33.481 -15.754 -23.056  0.00  0.00    +0.084 C 
ATOM     17  C   UNL     1      32.981 -15.053 -21.792  0.00  0.00    +0.052 C 
ATOM     18  C   UNL     1      33.429 -14.813 -24.261  0.00  0.00    +0.052 C 
ATOM     19  C   UNL     1      33.594 -13.665 -21.624  0.00  0.00    +0.144 C 
ATOM     20  C   UNL     1      34.027 -13.447 -23.941  0.00  0.00    +0.144 C 
ENDBRANCH   2  16
BRANCH  12  21
ATOM     21  O   UNL     1      35.226 -22.805 -18.887  0.00  0.00    -0.447 OA
BRANCH  21  24
ATOM     22  F   UNL     1      33.535 -23.589 -16.862  0.00  0.00    -0.201 F 
ATOM     23  F   UNL     1      36.753 -22.305 -13.637  0.00  0.00    -0.204 F 
ATOM     24  C   UNL     1      35.606 -22.681 -17.580  0.00  0.00    +0.173 C 
ATOM     25  C   UNL     1      34.739 -23.082 -16.566  0.00  0.00    +0.177 C 
ATOM     26  C   UNL     1      36.856 -22.154 -17.270  0.00  0.00    +0.042 C 
ATOM     27  C   UNL     1      35.128 -22.954 -15.232  0.00  0.00    +0.062 C 
ATOM     28  C   UNL     1      37.245 -22.027 -15.936  0.00  0.00    +0.033 C 
ATOM     29  C   UNL     1      36.380 -22.428 -14.918  0.00  0.00    +0.143 C 
ENDBRANCH  21  24
ENDBRANCH  12  21
TORSDOF 3
ENDMDL
