MODEL 1
REMARK VINA RESULT:      -9.0      0.000      0.000
REMARK  Name = 5343
REMARK  3 active torsions:
REMARK  status: ('A' for Active; 'I' for Inactive)
REMARK    1  A    between atoms: S_1  and  N_4
REMARK    2  A    between atoms: S_1  and  C_14
REMARK    3  A    between atoms: C_19  and  N_20
REMARK                            x       y       z     vdW  Elec       q    Type
REMARK                         _______ _______ _______ _____ _____    ______ ____
ROOT
ATOM      1  S   UNL     1      33.359 -13.474 -23.754  0.00  0.00    +0.075 S 
ATOM      2  O   UNL     1      33.031 -13.951 -25.093  0.00  0.00    -0.150 OA
ATOM      3  O   UNL     1      34.250 -12.330 -23.614  0.00  0.00    -0.150 OA
ENDROOT
BRANCH   1   4
ATOM      4  N   UNL     1      31.883 -13.161 -22.923  0.00  0.00    -0.191 N 
ATOM      5  N   UNL     1      31.783 -10.805 -22.863  0.00  0.00    -0.331 NA
ATOM      6  N   UNL     1      31.597  -9.612 -20.778  0.00  0.00    -0.352 NA
ATOM      7  C   UNL     1      31.783 -11.948 -22.156  0.00  0.00    +0.194 C 
ATOM      8  C   UNL     1      31.695 -12.017 -20.785  0.00  0.00    +0.132 C 
ATOM      9  C   UNL     1      31.603 -10.801 -20.140  0.00  0.00    +0.108 C 
ATOM     10  C   UNL     1      31.689  -9.687 -22.118  0.00  0.00    +0.115 C 
ATOM     11  C   UNL     1      31.503 -10.764 -18.652  0.00  0.00    +0.063 C 
ATOM     12  C   UNL     1      31.686  -8.392 -22.859  0.00  0.00    +0.143 C 
ATOM     13  H   UNL     1      31.129 -13.792 -22.972  0.00  0.00    +0.176 HD
ENDBRANCH   1   4
BRANCH   1  14
ATOM     14  C   UNL     1      34.028 -14.817 -22.861  0.00  0.00    +0.125 C 
ATOM     15  C   UNL     1      34.033 -14.795 -21.466  0.00  0.00    +0.021 C 
ATOM     16  C   UNL     1      34.558 -15.913 -23.543  0.00  0.00    +0.021 C 
ATOM     17  C   UNL     1      34.567 -15.867 -20.753  0.00  0.00    +0.015 C 
ATOM     18  C   UNL     1      35.092 -16.986 -22.829  0.00  0.00    +0.015 C 
ATOM     19  C   UNL     1      35.097 -16.963 -21.434  0.00  0.00    +0.042 C 
BRANCH  19  20
ATOM     20  N   UNL     1      35.637 -18.049 -20.713  0.00  0.00    -0.357 N 
ATOM     21  H   UNL     1      35.846 -18.892 -21.178  0.00  0.00    +0.142 HD
ATOM     22  H   UNL     1      35.806 -17.964 -19.747  0.00  0.00    +0.142 HD
ENDBRANCH  19  20
ENDBRANCH   1  14
TORSDOF 3
ENDMDL
MODEL 2
REMARK VINA RESULT:      -8.8      8.470     11.731
REMARK  Name = 5343
REMARK  3 active torsions:
REMARK  status: ('A' for Active; 'I' for Inactive)
REMARK    1  A    between atoms: S_1  and  N_4
REMARK    2  A    between atoms: S_1  and  C_14
REMARK    3  A    between atoms: C_19  and  N_20
REMARK                            x       y       z     vdW  Elec       q    Type
REMARK                         _______ _______ _______ _____ _____    ______ ____
ROOT
ATOM      1  S   UNL     1      34.044 -22.880 -18.338  0.00  0.00    +0.075 S 
ATOM      2  O   UNL     1      35.270 -22.908 -17.550  0.00  0.00    -0.150 OA
ATOM      3  O   UNL     1      33.658 -24.075 -19.080  0.00  0.00    -0.150 OA
ENDROOT
BRANCH   1   4
ATOM      4  N   UNL     1      32.753 -22.402 -17.302  0.00  0.00    -0.191 N 
ATOM      5  N   UNL     1      33.379 -23.290 -15.209  0.00  0.00    -0.331 NA
ATOM      6  N   UNL     1      31.939 -24.802 -14.008  0.00  0.00    -0.352 NA
ATOM      7  C   UNL     1      32.446 -23.240 -16.174  0.00  0.00    +0.194 C 
ATOM      8  C   UNL     1      31.253 -23.924 -16.141  0.00  0.00    +0.132 C 
ATOM      9  C   UNL     1      31.051 -24.700 -15.018  0.00  0.00    +0.108 C 
ATOM     10  C   UNL     1      33.065 -24.082 -14.166  0.00  0.00    +0.115 C 
ATOM     11  C   UNL     1      29.788 -25.482 -14.883  0.00  0.00    +0.063 C 
ATOM     12  C   UNL     1      34.072 -24.171 -13.069  0.00  0.00    +0.143 C 
ATOM     13  H   UNL     1      32.241 -21.580 -17.477  0.00  0.00    +0.176 HD
ENDBRANCH   1   4
BRANCH   1  14
ATOM     14  C   UNL     1      34.160 -21.543 -19.455  0.00  0.00    +0.125 C 
ATOM     15  C   UNL     1      33.004 -20.893 -19.889  0.00  0.00    +0.021 C 
ATOM     16  C   UNL     1      35.409 -21.123 -19.913  0.00  0.00    +0.021 C 
ATOM     17  C   UNL     1      33.097 -19.826 -20.780  0.00  0.00    +0.015 C 
ATOM     18  C   UNL     1      35.502 -20.055 -20.804  0.00  0.00    +0.015 C 
ATOM     19  C   UNL     1      34.346 -19.405 -21.238  0.00  0.00    +0.042 C 
BRANCH  19  20
ATOM     20  N   UNL     1      34.440 -18.324 -22.139  0.00  0.00    -0.357 N 
ATOM     21  H   UNL     1      35.242 -18.222 -22.702  0.00  0.00    +0.142 HD
ATOM     22  H   UNL     1      33.706 -17.672 -22.205  0.00  0.00    +0.142 HD
ENDBRANCH  19  20
ENDBRANCH   1  14
TORSDOF 3
ENDMDL
MODEL 3
REMARK VINA RESULT:      -8.7      3.345      4.394
REMARK  Name = 5343
REMARK  3 active torsions:
REMARK  status: ('A' for Active; 'I' for Inactive)
REMARK    1  A    between atoms: S_1  and  N_4
REMARK    2  A    between atoms: S_1  and  C_14
REMARK    3  A    between atoms: C_19  and  N_20
REMARK                            x       y       z     vdW  Elec       q    Type
REMARK                         _______ _______ _______ _____ _____    ______ ____
ROOT
ATOM      1  S   UNL     1      34.690 -17.165 -21.410  0.00  0.00    +0.075 S 
ATOM      2  O   UNL     1      35.367 -17.252 -22.700  0.00  0.00    -0.150 OA
ATOM      3  O   UNL     1      35.319 -16.406 -20.337  0.00  0.00    -0.150 OA
ENDROOT
BRANCH   1   4
ATOM      4  N   UNL     1      33.097 -16.569 -21.683  0.00  0.00    -0.191 N 
ATOM      5  N   UNL     1      33.432 -14.799 -23.205  0.00  0.00    -0.331 NA
ATOM      6  N   UNL     1      32.690 -12.561 -22.706  0.00  0.00    -0.352 NA
ATOM      7  C   UNL     1      32.943 -15.177 -22.011  0.00  0.00    +0.194 C 
ATOM      8  C   UNL     1      32.324 -14.333 -21.120  0.00  0.00    +0.132 C 
ATOM      9  C   UNL     1      32.225 -13.018 -21.526  0.00  0.00    +0.108 C 
ATOM     10  C   UNL     1      33.274 -13.491 -23.485  0.00  0.00    +0.115 C 
ATOM     11  C   UNL     1      31.569 -12.020 -20.631  0.00  0.00    +0.063 C 
ATOM     12  C   UNL     1      33.803 -13.023 -24.799  0.00  0.00    +0.143 C 
ATOM     13  H   UNL     1      32.315 -17.163 -21.615  0.00  0.00    +0.176 HD
ENDBRANCH   1   4
BRANCH   1  14
ATOM     14  C   UNL     1      34.404 -18.794 -20.850  0.00  0.00    +0.125 C 
ATOM     15  C   UNL     1      35.479 -19.655 -20.626  0.00  0.00    +0.021 C 
ATOM     16  C   UNL     1      33.099 -19.235 -20.626  0.00  0.00    +0.021 C 
ATOM     17  C   UNL     1      35.249 -20.955 -20.179  0.00  0.00    +0.015 C 
ATOM     18  C   UNL     1      32.870 -20.535 -20.178  0.00  0.00    +0.015 C 
ATOM     19  C   UNL     1      33.945 -21.396 -19.954  0.00  0.00    +0.042 C 
BRANCH  19  20
ATOM     20  N   UNL     1      33.713 -22.712 -19.501  0.00  0.00    -0.357 N 
ATOM     21  H   UNL     1      33.858 -23.474 -20.107  0.00  0.00    +0.142 HD
ATOM     22  H   UNL     1      33.405 -22.868 -18.579  0.00  0.00    +0.142 HD
ENDBRANCH  19  20
ENDBRANCH   1  14
TORSDOF 3
ENDMDL
MODEL 4
REMARK VINA RESULT:      -8.4     11.811     14.249
REMARK  Name = 5343
REMARK  3 active torsions:
REMARK  status: ('A' for Active; 'I' for Inactive)
REMARK    1  A    between atoms: S_1  and  N_4
REMARK    2  A    between atoms: S_1  and  C_14
REMARK    3  A    between atoms: C_19  and  N_20
REMARK                            x       y       z     vdW  Elec       q    Type
REMARK                         _______ _______ _______ _____ _____    ______ ____
ROOT
ATOM      1  S   UNL     1      34.804 -23.515 -15.976  0.00  0.00    +0.075 S 
ATOM      2  O   UNL     1      35.220 -22.805 -17.180  0.00  0.00    -0.150 OA
ATOM      3  O   UNL     1      35.091 -24.940 -15.866  0.00  0.00    -0.150 OA
ENDROOT
BRANCH   1   4
ATOM      4  N   UNL     1      35.459 -22.688 -14.614  0.00  0.00    -0.191 N 
ATOM      5  N   UNL     1      37.265 -24.058 -13.964  0.00  0.00    -0.331 NA
ATOM      6  N   UNL     1      37.412 -24.964 -11.736  0.00  0.00    -0.352 NA
ATOM      7  C   UNL     1      36.114 -23.470 -13.599  0.00  0.00    +0.194 C 
ATOM      8  C   UNL     1      35.548 -23.570 -12.350  0.00  0.00    +0.132 C 
ATOM      9  C   UNL     1      36.250 -24.341 -11.446  0.00  0.00    +0.108 C 
ATOM     10  C   UNL     1      37.855 -24.783 -12.994  0.00  0.00    +0.115 C 
ATOM     11  C   UNL     1      35.723 -24.515 -10.062  0.00  0.00    +0.063 C 
ATOM     12  C   UNL     1      39.137 -25.457 -13.352  0.00  0.00    +0.143 C 
ATOM     13  H   UNL     1      35.388 -21.710 -14.533  0.00  0.00    +0.176 HD
ENDBRANCH   1   4
BRANCH   1  14
ATOM     14  C   UNL     1      33.085 -23.274 -15.785  0.00  0.00    +0.125 C 
ATOM     15  C   UNL     1      32.514 -23.294 -14.512  0.00  0.00    +0.021 C 
ATOM     16  C   UNL     1      32.282 -23.062 -16.906  0.00  0.00    +0.021 C 
ATOM     17  C   UNL     1      31.142 -23.102 -14.360  0.00  0.00    +0.015 C 
ATOM     18  C   UNL     1      30.909 -22.870 -16.753  0.00  0.00    +0.015 C 
ATOM     19  C   UNL     1      30.339 -22.889 -15.480  0.00  0.00    +0.042 C 
BRANCH  19  20
ATOM     20  N   UNL     1      28.950 -22.693 -15.326  0.00  0.00    -0.357 N 
ATOM     21  H   UNL     1      28.454 -23.204 -14.646  0.00  0.00    +0.142 HD
ATOM     22  H   UNL     1      28.477 -22.047 -15.899  0.00  0.00    +0.142 HD
ENDBRANCH  19  20
ENDBRANCH   1  14
TORSDOF 3
ENDMDL
MODEL 5
REMARK VINA RESULT:      -8.4     11.966     13.527
REMARK  Name = 5343
REMARK  3 active torsions:
REMARK  status: ('A' for Active; 'I' for Inactive)
REMARK    1  A    between atoms: S_1  and  N_4
REMARK    2  A    between atoms: S_1  and  C_14
REMARK    3  A    between atoms: C_19  and  N_20
REMARK                            x       y       z     vdW  Elec       q    Type
REMARK                         _______ _______ _______ _____ _____    ______ ____
ROOT
ATOM      1  S   UNL     1      31.126 -24.377 -13.732  0.00  0.00    +0.075 S 
ATOM      2  O   UNL     1      31.731 -25.608 -14.227  0.00  0.00    -0.150 OA
ATOM      3  O   UNL     1      30.491 -24.384 -12.420  0.00  0.00    -0.150 OA
ENDROOT
BRANCH   1   4
ATOM      4  N   UNL     1      32.319 -23.135 -13.789  0.00  0.00    -0.191 N 
ATOM      5  N   UNL     1      32.932 -23.074 -16.066  0.00  0.00    -0.331 NA
ATOM      6  N   UNL     1      35.219 -23.386 -16.756  0.00  0.00    -0.352 NA
ATOM      7  C   UNL     1      33.343 -23.227 -14.795  0.00  0.00    +0.194 C 
ATOM      8  C   UNL     1      34.645 -23.457 -14.419  0.00  0.00    +0.132 C 
ATOM      9  C   UNL     1      35.553 -23.528 -15.456  0.00  0.00    +0.108 C 
ATOM     10  C   UNL     1      33.912 -23.165 -16.985  0.00  0.00    +0.115 C 
ATOM     11  C   UNL     1      36.994 -23.774 -15.157  0.00  0.00    +0.063 C 
ATOM     12  C   UNL     1      33.503 -23.004 -18.411  0.00  0.00    +0.143 C 
ATOM     13  H   UNL     1      32.301 -22.384 -13.152  0.00  0.00    +0.176 HD
ENDBRANCH   1   4
BRANCH   1  14
ATOM     14  C   UNL     1      29.957 -23.845 -14.916  0.00  0.00    +0.125 C 
ATOM     15  C   UNL     1      29.521 -22.520 -14.920  0.00  0.00    +0.021 C 
ATOM     16  C   UNL     1      29.460 -24.746 -15.858  0.00  0.00    +0.021 C 
ATOM     17  C   UNL     1      28.588 -22.096 -15.865  0.00  0.00    +0.015 C 
ATOM     18  C   UNL     1      28.527 -24.322 -16.803  0.00  0.00    +0.015 C 
ATOM     19  C   UNL     1      28.091 -22.997 -16.807  0.00  0.00    +0.042 C 
BRANCH  19  20
ATOM     20  N   UNL     1      27.147 -22.568 -17.765  0.00  0.00    -0.357 N 
ATOM     21  H   UNL     1      27.439 -22.353 -18.680  0.00  0.00    +0.142 HD
ATOM     22  H   UNL     1      26.198 -22.484 -17.518  0.00  0.00    +0.142 HD
ENDBRANCH  19  20
ENDBRANCH   1  14
TORSDOF 3
ENDMDL
MODEL 6
REMARK VINA RESULT:      -8.4     12.154     14.181
REMARK  Name = 5343
REMARK  3 active torsions:
REMARK  status: ('A' for Active; 'I' for Inactive)
REMARK    1  A    between atoms: S_1  and  N_4
REMARK    2  A    between atoms: S_1  and  C_14
REMARK    3  A    between atoms: C_19  and  N_20
REMARK                            x       y       z     vdW  Elec       q    Type
REMARK                         _______ _______ _______ _____ _____    ______ ____
ROOT
ATOM      1  S   UNL     1      32.296 -24.329 -13.651  0.00  0.00    +0.075 S 
ATOM      2  O   UNL     1      31.849 -25.463 -12.851  0.00  0.00    -0.150 OA
ATOM      3  O   UNL     1      32.696 -23.103 -12.972  0.00  0.00    -0.150 OA
ENDROOT
BRANCH   1   4
ATOM      4  N   UNL     1      33.577 -24.867 -14.670  0.00  0.00    -0.191 N 
ATOM      5  N   UNL     1      35.503 -24.514 -13.355  0.00  0.00    -0.331 NA
ATOM      6  N   UNL     1      37.319 -23.137 -14.137  0.00  0.00    -0.352 NA
ATOM      7  C   UNL     1      34.869 -24.256 -14.512  0.00  0.00    +0.194 C 
ATOM      8  C   UNL     1      35.375 -23.467 -15.518  0.00  0.00    +0.132 C 
ATOM      9  C   UNL     1      36.620 -22.926 -15.272  0.00  0.00    +0.108 C 
ATOM     10  C   UNL     1      36.710 -23.929 -13.235  0.00  0.00    +0.115 C 
ATOM     11  C   UNL     1      37.259 -22.054 -16.300  0.00  0.00    +0.063 C 
ATOM     12  C   UNL     1      37.451 -24.185 -11.965  0.00  0.00    +0.143 C 
ATOM     13  H   UNL     1      33.429 -25.573 -15.341  0.00  0.00    +0.176 HD
ENDBRANCH   1   4
BRANCH   1  14
ATOM     14  C   UNL     1      31.029 -23.949 -14.791  0.00  0.00    +0.125 C 
ATOM     15  C   UNL     1      31.221 -22.946 -15.741  0.00  0.00    +0.021 C 
ATOM     16  C   UNL     1      29.823 -24.650 -14.751  0.00  0.00    +0.021 C 
ATOM     17  C   UNL     1      30.209 -22.643 -16.650  0.00  0.00    +0.015 C 
ATOM     18  C   UNL     1      28.811 -24.347 -15.661  0.00  0.00    +0.015 C 
ATOM     19  C   UNL     1      29.003 -23.344 -16.611  0.00  0.00    +0.042 C 
BRANCH  19  20
ATOM     20  N   UNL     1      27.979 -23.038 -17.532  0.00  0.00    -0.357 N 
ATOM     21  H   UNL     1      27.856 -22.112 -17.841  0.00  0.00    +0.142 HD
ATOM     22  H   UNL     1      27.387 -23.751 -17.865  0.00  0.00    +0.142 HD
ENDBRANCH  19  20
ENDBRANCH   1  14
TORSDOF 3
ENDMDL
MODEL 7
REMARK VINA RESULT:      -8.3      8.630     11.699
REMARK  Name = 5343
REMARK  3 active torsions:
REMARK  status: ('A' for Active; 'I' for Inactive)
REMARK    1  A    between atoms: S_1  and  N_4
REMARK    2  A    between atoms: S_1  and  C_14
REMARK    3  A    between atoms: C_19  and  N_20
REMARK                            x       y       z     vdW  Elec       q    Type
REMARK                         _______ _______ _______ _____ _____    ______ ____
ROOT
ATOM      1  S   UNL     1      33.930 -23.016 -17.955  0.00  0.00    +0.075 S 
ATOM      2  O   UNL     1      35.014 -23.178 -16.992  0.00  0.00    -0.150 OA
ATOM      3  O   UNL     1      33.460 -24.186 -18.687  0.00  0.00    -0.150 OA
ENDROOT
BRANCH   1   4
ATOM      4  N   UNL     1      32.604 -22.272 -17.145  0.00  0.00    -0.191 N 
ATOM      5  N   UNL     1      32.214 -23.702 -15.311  0.00  0.00    -0.331 NA
ATOM      6  N   UNL     1      30.061 -24.724 -14.955  0.00  0.00    -0.352 NA
ATOM      7  C   UNL     1      31.703 -23.115 -16.406  0.00  0.00    +0.194 C 
ATOM      8  C   UNL     1      30.408 -23.272 -16.842  0.00  0.00    +0.132 C 
ATOM      9  C   UNL     1      29.622 -24.099 -16.067  0.00  0.00    +0.108 C 
ATOM     10  C   UNL     1      31.348 -24.486 -14.640  0.00  0.00    +0.115 C 
ATOM     11  C   UNL     1      28.201 -24.336 -16.453  0.00  0.00    +0.063 C 
ATOM     12  C   UNL     1      31.871 -25.161 -13.417  0.00  0.00    +0.143 C 
ATOM     13  H   UNL     1      32.467 -21.297 -17.186  0.00  0.00    +0.176 HD
ENDBRANCH   1   4
BRANCH   1  14
ATOM     14  C   UNL     1      34.418 -21.795 -19.103  0.00  0.00    +0.125 C 
ATOM     15  C   UNL     1      33.453 -21.050 -19.783  0.00  0.00    +0.021 C 
ATOM     16  C   UNL     1      35.773 -21.564 -19.342  0.00  0.00    +0.021 C 
ATOM     17  C   UNL     1      33.842 -20.076 -20.700  0.00  0.00    +0.015 C 
ATOM     18  C   UNL     1      36.162 -20.588 -20.259  0.00  0.00    +0.015 C 
ATOM     19  C   UNL     1      35.197 -19.844 -20.938  0.00  0.00    +0.042 C 
BRANCH  19  20
ATOM     20  N   UNL     1      35.592 -18.856 -21.866  0.00  0.00    -0.357 N 
ATOM     21  H   UNL     1      35.008 -18.083 -22.039  0.00  0.00    +0.142 HD
ATOM     22  H   UNL     1      36.451 -18.941 -22.339  0.00  0.00    +0.142 HD
ENDBRANCH  19  20
ENDBRANCH   1  14
TORSDOF 3
ENDMDL
MODEL 8
REMARK VINA RESULT:      -8.1     10.012     13.532
REMARK  Name = 5343
REMARK  3 active torsions:
REMARK  status: ('A' for Active; 'I' for Inactive)
REMARK    1  A    between atoms: S_1  and  N_4
REMARK    2  A    between atoms: S_1  and  C_14
REMARK    3  A    between atoms: C_19  and  N_20
REMARK                            x       y       z     vdW  Elec       q    Type
REMARK                         _______ _______ _______ _____ _____    ______ ____
ROOT
ATOM      1  S   UNL     1      34.465 -23.628 -15.919  0.00  0.00    +0.075 S 
ATOM      2  O   UNL     1      35.142 -24.917 -16.007  0.00  0.00    -0.150 OA
ATOM      3  O   UNL     1      33.010 -23.604 -15.822  0.00  0.00    -0.150 OA
ENDROOT
BRANCH   1   4
ATOM      4  N   UNL     1      35.145 -22.756 -14.599  0.00  0.00    -0.191 N 
ATOM      5  N   UNL     1      37.032 -24.044 -14.011  0.00  0.00    -0.331 NA
ATOM      6  N   UNL     1      37.311 -24.909 -11.780  0.00  0.00    -0.352 NA
ATOM      7  C   UNL     1      35.874 -23.495 -13.604  0.00  0.00    +0.194 C 
ATOM      8  C   UNL     1      35.368 -23.599 -12.329  0.00  0.00    +0.132 C 
ATOM      9  C   UNL     1      36.139 -24.328 -11.448  0.00  0.00    +0.108 C 
ATOM     10  C   UNL     1      37.691 -24.730 -13.058  0.00  0.00    +0.115 C 
ATOM     11  C   UNL     1      35.680 -24.501 -10.039  0.00  0.00    +0.063 C 
ATOM     12  C   UNL     1      38.982 -25.359 -13.464  0.00  0.00    +0.143 C 
ATOM     13  H   UNL     1      35.039 -21.779 -14.528  0.00  0.00    +0.176 HD
ENDBRANCH   1   4
BRANCH   1  14
ATOM     14  C   UNL     1      34.949 -22.678 -17.302  0.00  0.00    +0.125 C 
ATOM     15  C   UNL     1      36.234 -22.139 -17.363  0.00  0.00    +0.021 C 
ATOM     16  C   UNL     1      34.050 -22.459 -18.347  0.00  0.00    +0.021 C 
ATOM     17  C   UNL     1      36.620 -21.380 -18.467  0.00  0.00    +0.015 C 
ATOM     18  C   UNL     1      34.437 -21.701 -19.451  0.00  0.00    +0.015 C 
ATOM     19  C   UNL     1      35.722 -21.161 -19.512  0.00  0.00    +0.042 C 
BRANCH  19  20
ATOM     20  N   UNL     1      36.113 -20.395 -20.630  0.00  0.00    -0.357 N 
ATOM     21  H   UNL     1      35.511 -19.700 -20.985  0.00  0.00    +0.142 HD
ATOM     22  H   UNL     1      36.986 -20.554 -21.056  0.00  0.00    +0.142 HD
ENDBRANCH  19  20
ENDBRANCH   1  14
TORSDOF 3
ENDMDL
MODEL 9
REMARK VINA RESULT:      -8.0      8.682     12.459
REMARK  Name = 5343
REMARK  3 active torsions:
REMARK  status: ('A' for Active; 'I' for Inactive)
REMARK    1  A    between atoms: S_1  and  N_4
REMARK    2  A    between atoms: S_1  and  C_14
REMARK    3  A    between atoms: C_19  and  N_20
REMARK                            x       y       z     vdW  Elec       q    Type
REMARK                         _______ _______ _______ _____ _____    ______ ____
ROOT
ATOM      1  S   UNL     1      33.796 -22.972 -17.694  0.00  0.00    +0.075 S 
ATOM      2  O   UNL     1      34.056 -24.282 -18.281  0.00  0.00    -0.150 OA
ATOM      3  O   UNL     1      32.534 -22.751 -17.000  0.00  0.00    -0.150 OA
ENDROOT
BRANCH   1   4
ATOM      4  N   UNL     1      35.107 -22.588 -16.645  0.00  0.00    -0.191 N 
ATOM      5  N   UNL     1      35.889 -24.704 -15.954  0.00  0.00    -0.331 NA
ATOM      6  N   UNL     1      36.010 -25.294 -13.621  0.00  0.00    -0.352 NA
ATOM      7  C   UNL     1      35.411 -23.505 -15.579  0.00  0.00    +0.194 C 
ATOM      8  C   UNL     1      35.205 -23.121 -14.274  0.00  0.00    +0.132 C 
ATOM      9  C   UNL     1      35.526 -24.070 -13.325  0.00  0.00    +0.108 C 
ATOM     10  C   UNL     1      36.163 -25.540 -14.935  0.00  0.00    +0.115 C 
ATOM     11  C   UNL     1      35.341 -23.754 -11.878  0.00  0.00    +0.063 C 
ATOM     12  C   UNL     1      36.695 -26.885 -15.303  0.00  0.00    +0.143 C 
ATOM     13  H   UNL     1      35.633 -21.765 -16.771  0.00  0.00    +0.176 HD
ENDBRANCH   1   4
BRANCH   1  14
ATOM     14  C   UNL     1      33.953 -21.782 -18.962  0.00  0.00    +0.125 C 
ATOM     15  C   UNL     1      35.213 -21.467 -19.472  0.00  0.00    +0.021 C 
ATOM     16  C   UNL     1      32.818 -21.145 -19.465  0.00  0.00    +0.021 C 
ATOM     17  C   UNL     1      35.338 -20.516 -20.484  0.00  0.00    +0.015 C 
ATOM     18  C   UNL     1      32.943 -20.195 -20.478  0.00  0.00    +0.015 C 
ATOM     19  C   UNL     1      34.203 -19.880 -20.988  0.00  0.00    +0.042 C 
BRANCH  19  20
ATOM     20  N   UNL     1      34.329 -18.918 -22.012  0.00  0.00    -0.357 N 
ATOM     21  H   UNL     1      34.369 -19.205 -22.954  0.00  0.00    +0.142 HD
ATOM     22  H   UNL     1      34.377 -17.961 -21.787  0.00  0.00    +0.142 HD
ENDBRANCH  19  20
ENDBRANCH   1  14
TORSDOF 3
ENDMDL
