MODEL 1
REMARK VINA RESULT:     -10.6      0.000      0.000
REMARK  Name = 9841854
REMARK  4 active torsions:
REMARK  status: ('A' for Active; 'I' for Inactive)
REMARK    1  A    between atoms: C_5  and  C_10
REMARK    2  A    between atoms: C_6  and  C_16
REMARK    3  A    between atoms: C_19  and  S_22
REMARK    4  A    between atoms: S_22  and  N_25
REMARK                            x       y       z     vdW  Elec       q    Type
REMARK                         _______ _______ _______ _____ _____    ______ ____
ROOT
ATOM      1  O   UNL     1      32.283 -24.291 -14.690  0.00  0.00    -0.475 OA
ATOM      2  O   UNL     1      30.597 -22.577 -17.216  0.00  0.00    -0.288 OA
ATOM      3  C   UNL     1      31.010 -23.855 -15.197  0.00  0.00    +0.188 C 
ATOM      4  C   UNL     1      31.387 -23.105 -16.448  0.00  0.00    +0.212 C 
ATOM      5  C   UNL     1      32.845 -23.106 -16.630  0.00  0.00    +0.072 C 
ATOM      6  C   UNL     1      33.251 -23.801 -15.561  0.00  0.00    +0.142 C 
ATOM      7  C   UNL     1      30.157 -25.074 -15.518  0.00  0.00    +0.052 C 
ATOM      8  C   UNL     1      30.352 -22.937 -14.178  0.00  0.00    +0.052 C 
ENDROOT
BRANCH   5  10
ATOM      9  F   UNL     1      32.924 -20.665 -20.823  0.00  0.00    -0.204 F 
ATOM     10  C   UNL     1      33.577 -22.484 -17.728  0.00  0.00    +0.008 C 
ATOM     11  C   UNL     1      32.890 -21.856 -18.776  0.00  0.00    +0.030 C 
ATOM     12  C   UNL     1      34.979 -22.505 -17.751  0.00  0.00    +0.000 C 
ATOM     13  C   UNL     1      33.590 -21.261 -19.826  0.00  0.00    +0.140 C 
ATOM     14  C   UNL     1      35.679 -21.912 -18.800  0.00  0.00    +0.002 C 
ATOM     15  C   UNL     1      34.985 -21.289 -19.837  0.00  0.00    +0.030 C 
ENDBRANCH   5  10
BRANCH   6  16
ATOM     16  C   UNL     1      34.635 -24.113 -15.183  0.00  0.00    +0.034 C 
ATOM     17  C   UNL     1      35.151 -25.396 -15.395  0.00  0.00    +0.004 C 
ATOM     18  C   UNL     1      35.447 -23.131 -14.607  0.00  0.00    +0.004 C 
ATOM     19  C   UNL     1      37.271 -24.709 -14.461  0.00  0.00    +0.122 C 
ATOM     20  C   UNL     1      36.466 -25.692 -15.035  0.00  0.00    +0.020 C 
ATOM     21  C   UNL     1      36.761 -23.428 -14.248  0.00  0.00    +0.020 C 
BRANCH  19  22
ATOM     22  S   UNL     1      38.916 -25.081 -14.010  0.00  0.00    +0.057 S 
ATOM     23  O   UNL     1      39.261 -24.292 -12.836  0.00  0.00    -0.153 OA
ATOM     24  O   UNL     1      39.071 -26.529 -13.980  0.00  0.00    -0.153 OA
BRANCH  22  25
ATOM     25  N   UNL     1      39.769 -24.467 -15.358  0.00  0.00    -0.203 NA
ATOM     26  H   UNL     1      39.622 -23.461 -15.424  0.00  0.00    +0.144 HD
ATOM     27  H   UNL     1      39.432 -24.918 -16.208  0.00  0.00    +0.144 HD
ENDBRANCH  22  25
ENDBRANCH  19  22
ENDBRANCH   6  16
TORSDOF 4
ENDMDL
MODEL 2
REMARK VINA RESULT:     -10.2      3.848      6.154
REMARK  Name = 9841854
REMARK  4 active torsions:
REMARK  status: ('A' for Active; 'I' for Inactive)
REMARK    1  A    between atoms: C_5  and  C_10
REMARK    2  A    between atoms: C_6  and  C_16
REMARK    3  A    between atoms: C_19  and  S_22
REMARK    4  A    between atoms: S_22  and  N_25
REMARK                            x       y       z     vdW  Elec       q    Type
REMARK                         _______ _______ _______ _____ _____    ______ ____
ROOT
ATOM      1  O   UNL     1      36.957 -23.877 -13.968  0.00  0.00    -0.475 OA
ATOM      2  O   UNL     1      34.656 -24.938 -11.572  0.00  0.00    -0.288 OA
ATOM      3  C   UNL     1      36.765 -24.442 -12.660  0.00  0.00    +0.188 C 
ATOM      4  C   UNL     1      35.265 -24.497 -12.535  0.00  0.00    +0.212 C 
ATOM      5  C   UNL     1      34.627 -23.958 -13.743  0.00  0.00    +0.072 C 
ATOM      6  C   UNL     1      35.690 -23.624 -14.485  0.00  0.00    +0.142 C 
ATOM      7  C   UNL     1      37.376 -25.836 -12.624  0.00  0.00    +0.052 C 
ATOM      8  C   UNL     1      37.374 -23.514 -11.618  0.00  0.00    +0.052 C 
ENDROOT
BRANCH   5  10
ATOM      9  F   UNL     1      30.314 -26.012 -14.590  0.00  0.00    -0.204 F 
ATOM     10  C   UNL     1      33.193 -23.853 -13.987  0.00  0.00    +0.008 C 
ATOM     11  C   UNL     1      32.417 -25.005 -14.176  0.00  0.00    +0.030 C 
ATOM     12  C   UNL     1      32.569 -22.598 -14.037  0.00  0.00    +0.000 C 
ATOM     13  C   UNL     1      31.045 -24.905 -14.410  0.00  0.00    +0.140 C 
ATOM     14  C   UNL     1      31.198 -22.497 -14.270  0.00  0.00    +0.002 C 
ATOM     15  C   UNL     1      30.436 -23.651 -14.456  0.00  0.00    +0.030 C 
ENDBRANCH   5  10
BRANCH   6  16
ATOM     16  C   UNL     1      35.681 -23.001 -15.814  0.00  0.00    +0.034 C 
ATOM     17  C   UNL     1      36.775 -22.244 -16.245  0.00  0.00    +0.004 C 
ATOM     18  C   UNL     1      34.577 -23.159 -16.659  0.00  0.00    +0.004 C 
ATOM     19  C   UNL     1      35.662 -21.812 -18.346  0.00  0.00    +0.122 C 
ATOM     20  C   UNL     1      36.765 -21.651 -17.508  0.00  0.00    +0.020 C 
ATOM     21  C   UNL     1      34.568 -22.567 -17.921  0.00  0.00    +0.020 C 
BRANCH  19  22
ATOM     22  S   UNL     1      35.650 -21.069 -19.926  0.00  0.00    +0.057 S 
ATOM     23  O   UNL     1      36.404 -19.825 -19.855  0.00  0.00    -0.153 OA
ATOM     24  O   UNL     1      36.011 -22.078 -20.914  0.00  0.00    -0.153 OA
BRANCH  22  25
ATOM     25  N   UNL     1      33.991 -20.700 -20.101  0.00  0.00    -0.203 NA
ATOM     26  H   UNL     1      33.777 -20.555 -21.087  0.00  0.00    +0.144 HD
ATOM     27  H   UNL     1      33.774 -19.853 -19.577  0.00  0.00    +0.144 HD
ENDBRANCH  22  25
ENDBRANCH  19  22
ENDBRANCH   6  16
TORSDOF 4
ENDMDL
MODEL 3
REMARK VINA RESULT:     -10.1      3.516      6.073
REMARK  Name = 9841854
REMARK  4 active torsions:
REMARK  status: ('A' for Active; 'I' for Inactive)
REMARK    1  A    between atoms: C_5  and  C_10
REMARK    2  A    between atoms: C_6  and  C_16
REMARK    3  A    between atoms: C_19  and  S_22
REMARK    4  A    between atoms: S_22  and  N_25
REMARK                            x       y       z     vdW  Elec       q    Type
REMARK                         _______ _______ _______ _____ _____    ______ ____
ROOT
ATOM      1  O   UNL     1      35.094 -24.026 -13.668  0.00  0.00    -0.475 OA
ATOM      2  O   UNL     1      38.033 -23.371 -15.429  0.00  0.00    -0.288 OA
ATOM      3  C   UNL     1      36.530 -24.114 -13.677  0.00  0.00    +0.188 C 
ATOM      4  C   UNL     1      36.894 -23.517 -15.011  0.00  0.00    +0.212 C 
ATOM      5  C   UNL     1      35.685 -23.116 -15.744  0.00  0.00    +0.072 C 
ATOM      6  C   UNL     1      34.719 -23.466 -14.885  0.00  0.00    +0.142 C 
ATOM      7  C   UNL     1      37.088 -23.286 -12.528  0.00  0.00    +0.052 C 
ATOM      8  C   UNL     1      36.943 -25.577 -13.595  0.00  0.00    +0.052 C 
ENDROOT
BRANCH   5  10
ATOM      9  F   UNL     1      33.402 -22.226 -19.931  0.00  0.00    -0.204 F 
ATOM     10  C   UNL     1      35.642 -22.498 -17.064  0.00  0.00    +0.008 C 
ATOM     11  C   UNL     1      34.520 -22.657 -17.888  0.00  0.00    +0.030 C 
ATOM     12  C   UNL     1      36.723 -21.736 -17.529  0.00  0.00    +0.000 C 
ATOM     13  C   UNL     1      34.479 -22.067 -19.151  0.00  0.00    +0.140 C 
ATOM     14  C   UNL     1      36.683 -21.145 -18.791  0.00  0.00    +0.002 C 
ATOM     15  C   UNL     1      35.561 -21.310 -19.602  0.00  0.00    +0.030 C 
ENDBRANCH   5  10
BRANCH   6  16
ATOM     16  C   UNL     1      33.271 -23.331 -15.081  0.00  0.00    +0.034 C 
ATOM     17  C   UNL     1      32.696 -23.635 -16.318  0.00  0.00    +0.004 C 
ATOM     18  C   UNL     1      32.455 -22.897 -14.031  0.00  0.00    +0.004 C 
ATOM     19  C   UNL     1      30.511 -23.073 -15.454  0.00  0.00    +0.122 C 
ATOM     20  C   UNL     1      31.319 -23.506 -16.505  0.00  0.00    +0.020 C 
ATOM     21  C   UNL     1      31.079 -22.769 -14.217  0.00  0.00    +0.020 C 
BRANCH  19  22
ATOM     22  S   UNL     1      28.788 -22.911 -15.688  0.00  0.00    +0.057 S 
ATOM     23  O   UNL     1      28.162 -24.193 -15.396  0.00  0.00    -0.153 OA
ATOM     24  O   UNL     1      28.337 -21.711 -14.995  0.00  0.00    -0.153 OA
BRANCH  22  25
ATOM     25  N   UNL     1      28.713 -22.632 -17.372  0.00  0.00    -0.203 NA
ATOM     26  H   UNL     1      29.503 -22.054 -17.657  0.00  0.00    +0.144 HD
ATOM     27  H   UNL     1      27.842 -22.153 -17.599  0.00  0.00    +0.144 HD
ENDBRANCH  22  25
ENDBRANCH  19  22
ENDBRANCH   6  16
TORSDOF 4
ENDMDL
MODEL 4
REMARK VINA RESULT:      -9.8      3.686      6.255
REMARK  Name = 9841854
REMARK  4 active torsions:
REMARK  status: ('A' for Active; 'I' for Inactive)
REMARK    1  A    between atoms: C_5  and  C_10
REMARK    2  A    between atoms: C_6  and  C_16
REMARK    3  A    between atoms: C_19  and  S_22
REMARK    4  A    between atoms: S_22  and  N_25
REMARK                            x       y       z     vdW  Elec       q    Type
REMARK                         _______ _______ _______ _____ _____    ______ ____
ROOT
ATOM      1  O   UNL     1      34.922 -23.973 -14.034  0.00  0.00    -0.475 OA
ATOM      2  O   UNL     1      37.775 -23.185 -15.880  0.00  0.00    -0.288 OA
ATOM      3  C   UNL     1      36.359 -24.002 -14.089  0.00  0.00    +0.188 C 
ATOM      4  C   UNL     1      36.657 -23.381 -15.428  0.00  0.00    +0.212 C 
ATOM      5  C   UNL     1      35.410 -23.024 -16.120  0.00  0.00    +0.072 C 
ATOM      6  C   UNL     1      34.487 -23.419 -15.234  0.00  0.00    +0.142 C 
ATOM      7  C   UNL     1      36.919 -23.160 -12.951  0.00  0.00    +0.052 C 
ATOM      8  C   UNL     1      36.834 -25.447 -14.032  0.00  0.00    +0.052 C 
ENDROOT
BRANCH   5  10
ATOM      9  F   UNL     1      37.280 -20.337 -19.701  0.00  0.00    -0.204 F 
ATOM     10  C   UNL     1      35.301 -22.400 -17.433  0.00  0.00    +0.008 C 
ATOM     11  C   UNL     1      36.364 -21.650 -17.956  0.00  0.00    +0.030 C 
ATOM     12  C   UNL     1      34.131 -22.540 -18.193  0.00  0.00    +0.000 C 
ATOM     13  C   UNL     1      36.259 -21.052 -19.212  0.00  0.00    +0.140 C 
ATOM     14  C   UNL     1      34.025 -21.944 -19.449  0.00  0.00    +0.002 C 
ATOM     15  C   UNL     1      35.089 -21.200 -19.959  0.00  0.00    +0.030 C 
ENDBRANCH   5  10
BRANCH   6  16
ATOM     16  C   UNL     1      33.028 -23.343 -15.384  0.00  0.00    +0.034 C 
ATOM     17  C   UNL     1      32.245 -22.780 -14.371  0.00  0.00    +0.004 C 
ATOM     18  C   UNL     1      32.412 -23.832 -16.540  0.00  0.00    +0.004 C 
ATOM     19  C   UNL     1      30.250 -23.197 -15.668  0.00  0.00    +0.122 C 
ATOM     20  C   UNL     1      30.859 -22.707 -14.513  0.00  0.00    +0.020 C 
ATOM     21  C   UNL     1      31.026 -23.759 -16.682  0.00  0.00    +0.020 C 
BRANCH  19  22
ATOM     22  S   UNL     1      28.515 -23.106 -15.844  0.00  0.00    +0.057 S 
ATOM     23  O   UNL     1      27.929 -24.301 -15.252  0.00  0.00    -0.153 OA
ATOM     24  O   UNL     1      28.074 -21.789 -15.404  0.00  0.00    -0.153 OA
BRANCH  22  25
ATOM     25  N   UNL     1      28.355 -23.198 -17.543  0.00  0.00    -0.203 NA
ATOM     26  H   UNL     1      28.690 -24.105 -17.868  0.00  0.00    +0.144 HD
ATOM     27  H   UNL     1      28.905 -22.457 -17.977  0.00  0.00    +0.144 HD
ENDBRANCH  22  25
ENDBRANCH  19  22
ENDBRANCH   6  16
TORSDOF 4
ENDMDL
MODEL 5
REMARK VINA RESULT:      -9.7      9.371     11.944
REMARK  Name = 9841854
REMARK  4 active torsions:
REMARK  status: ('A' for Active; 'I' for Inactive)
REMARK    1  A    between atoms: C_5  and  C_10
REMARK    2  A    between atoms: C_6  and  C_16
REMARK    3  A    between atoms: C_19  and  S_22
REMARK    4  A    between atoms: S_22  and  N_25
REMARK                            x       y       z     vdW  Elec       q    Type
REMARK                         _______ _______ _______ _____ _____    ______ ____
ROOT
ATOM      1  O   UNL     1      32.022 -12.615 -20.399  0.00  0.00    -0.475 OA
ATOM      2  O   UNL     1      31.692 -10.084 -22.776  0.00  0.00    -0.288 OA
ATOM      3  C   UNL     1      31.586 -11.271 -20.664  0.00  0.00    +0.188 C 
ATOM      4  C   UNL     1      31.918 -11.091 -22.122  0.00  0.00    +0.212 C 
ATOM      5  C   UNL     1      32.544 -12.306 -22.662  0.00  0.00    +0.072 C 
ATOM      6  C   UNL     1      32.563 -13.102 -21.586  0.00  0.00    +0.142 C 
ATOM      7  C   UNL     1      30.086 -11.176 -20.422  0.00  0.00    +0.052 C 
ATOM      8  C   UNL     1      32.378 -10.306 -19.793  0.00  0.00    +0.052 C 
ENDROOT
BRANCH   5  10
ATOM      9  F   UNL     1      35.096 -10.873 -26.532  0.00  0.00    -0.204 F 
ATOM     10  C   UNL     1      32.997 -12.506 -24.034  0.00  0.00    +0.008 C 
ATOM     11  C   UNL     1      33.850 -11.576 -24.645  0.00  0.00    +0.030 C 
ATOM     12  C   UNL     1      32.586 -13.632 -24.762  0.00  0.00    +0.000 C 
ATOM     13  C   UNL     1      34.283 -11.768 -25.957  0.00  0.00    +0.140 C 
ATOM     14  C   UNL     1      33.018 -13.824 -26.073  0.00  0.00    +0.002 C 
ATOM     15  C   UNL     1      33.867 -12.892 -26.671  0.00  0.00    +0.030 C 
ENDBRANCH   5  10
BRANCH   6  16
ATOM     16  C   UNL     1      33.105 -14.464 -21.502  0.00  0.00    +0.034 C 
ATOM     17  C   UNL     1      34.390 -14.740 -21.979  0.00  0.00    +0.004 C 
ATOM     18  C   UNL     1      32.340 -15.494 -20.946  0.00  0.00    +0.004 C 
ATOM     19  C   UNL     1      34.138 -17.058 -21.346  0.00  0.00    +0.122 C 
ATOM     20  C   UNL     1      34.905 -16.034 -21.901  0.00  0.00    +0.020 C 
ATOM     21  C   UNL     1      32.856 -16.787 -20.867  0.00  0.00    +0.020 C 
BRANCH  19  22
ATOM     22  S   UNL     1      34.783 -18.678 -21.248  0.00  0.00    +0.057 S 
ATOM     23  O   UNL     1      36.098 -18.612 -20.626  0.00  0.00    -0.153 OA
ATOM     24  O   UNL     1      33.760 -19.550 -20.688  0.00  0.00    -0.153 OA
BRANCH  22  25
ATOM     25  N   UNL     1      34.975 -19.052 -22.904  0.00  0.00    -0.203 NA
ATOM     26  H   UNL     1      34.212 -18.636 -23.438  0.00  0.00    +0.144 HD
ATOM     27  H   UNL     1      34.964 -20.064 -23.028  0.00  0.00    +0.144 HD
ENDBRANCH  22  25
ENDBRANCH  19  22
ENDBRANCH   6  16
TORSDOF 4
ENDMDL
MODEL 6
REMARK VINA RESULT:      -9.7      2.268      4.206
REMARK  Name = 9841854
REMARK  4 active torsions:
REMARK  status: ('A' for Active; 'I' for Inactive)
REMARK    1  A    between atoms: C_5  and  C_10
REMARK    2  A    between atoms: C_6  and  C_16
REMARK    3  A    between atoms: C_19  and  S_22
REMARK    4  A    between atoms: S_22  and  N_25
REMARK                            x       y       z     vdW  Elec       q    Type
REMARK                         _______ _______ _______ _____ _____    ______ ____
ROOT
ATOM      1  O   UNL     1      35.307 -22.849 -17.933  0.00  0.00    -0.475 OA
ATOM      2  O   UNL     1      31.954 -22.177 -18.620  0.00  0.00    -0.288 OA
ATOM      3  C   UNL     1      34.353 -22.391 -18.906  0.00  0.00    +0.188 C 
ATOM      4  C   UNL     1      33.044 -22.493 -18.167  0.00  0.00    +0.212 C 
ATOM      5  C   UNL     1      33.257 -23.015 -16.810  0.00  0.00    +0.072 C 
ATOM      6  C   UNL     1      34.585 -23.193 -16.794  0.00  0.00    +0.142 C 
ATOM      7  C   UNL     1      34.669 -20.949 -19.274  0.00  0.00    +0.052 C 
ATOM      8  C   UNL     1      34.381 -23.319 -20.112  0.00  0.00    +0.052 C 
ENDROOT
BRANCH   5  10
ATOM      9  F   UNL     1      28.811 -24.503 -15.562  0.00  0.00    -0.204 F 
ATOM     10  C   UNL     1      32.228 -23.245 -15.803  0.00  0.00    +0.008 C 
ATOM     11  C   UNL     1      30.983 -23.776 -16.167  0.00  0.00    +0.030 C 
ATOM     12  C   UNL     1      32.469 -22.940 -14.456  0.00  0.00    +0.000 C 
ATOM     13  C   UNL     1      29.998 -23.997 -15.203  0.00  0.00    +0.140 C 
ATOM     14  C   UNL     1      31.486 -23.160 -13.493  0.00  0.00    +0.002 C 
ATOM     15  C   UNL     1      30.250 -23.689 -13.866  0.00  0.00    +0.030 C 
ENDBRANCH   5  10
BRANCH   6  16
ATOM     16  C   UNL     1      35.392 -23.727 -15.691  0.00  0.00    +0.034 C 
ATOM     17  C   UNL     1      35.384 -25.098 -15.412  0.00  0.00    +0.004 C 
ATOM     18  C   UNL     1      36.174 -22.870 -14.910  0.00  0.00    +0.004 C 
ATOM     19  C   UNL     1      36.928 -24.746 -13.587  0.00  0.00    +0.122 C 
ATOM     20  C   UNL     1      36.150 -25.605 -14.363  0.00  0.00    +0.020 C 
ATOM     21  C   UNL     1      36.940 -23.378 -13.862  0.00  0.00    +0.020 C 
BRANCH  19  22
ATOM     22  S   UNL     1      37.887 -25.382 -12.274  0.00  0.00    +0.057 S 
ATOM     23  O   UNL     1      38.267 -24.277 -11.404  0.00  0.00    -0.153 OA
ATOM     24  O   UNL     1      37.198 -26.538 -11.716  0.00  0.00    -0.153 OA
BRANCH  22  25
ATOM     25  N   UNL     1      39.272 -25.923 -13.115  0.00  0.00    -0.203 NA
ATOM     26  H   UNL     1      39.052 -26.784 -13.615  0.00  0.00    +0.144 HD
ATOM     27  H   UNL     1      40.026 -26.099 -12.451  0.00  0.00    +0.144 HD
ENDBRANCH  22  25
ENDBRANCH  19  22
ENDBRANCH   6  16
TORSDOF 4
ENDMDL
MODEL 7
REMARK VINA RESULT:      -9.5      3.792      5.605
REMARK  Name = 9841854
REMARK  4 active torsions:
REMARK  status: ('A' for Active; 'I' for Inactive)
REMARK    1  A    between atoms: C_5  and  C_10
REMARK    2  A    between atoms: C_6  and  C_16
REMARK    3  A    between atoms: C_19  and  S_22
REMARK    4  A    between atoms: S_22  and  N_25
REMARK                            x       y       z     vdW  Elec       q    Type
REMARK                         _______ _______ _______ _____ _____    ______ ____
ROOT
ATOM      1  O   UNL     1      31.613 -23.469 -16.035  0.00  0.00    -0.475 OA
ATOM      2  O   UNL     1      32.170 -25.296 -13.117  0.00  0.00    -0.288 OA
ATOM      3  C   UNL     1      31.019 -24.190 -14.943  0.00  0.00    +0.188 C 
ATOM      4  C   UNL     1      32.216 -24.654 -14.156  0.00  0.00    +0.212 C 
ATOM      5  C   UNL     1      33.460 -24.216 -14.803  0.00  0.00    +0.072 C 
ATOM      6  C   UNL     1      32.992 -23.559 -15.872  0.00  0.00    +0.142 C 
ATOM      7  C   UNL     1      30.156 -23.238 -14.127  0.00  0.00    +0.052 C 
ATOM      8  C   UNL     1      30.227 -25.368 -15.492  0.00  0.00    +0.052 C 
ENDROOT
BRANCH   5  10
ATOM      9  F   UNL     1      37.673 -26.603 -15.116  0.00  0.00    -0.204 F 
ATOM     10  C   UNL     1      34.816 -24.474 -14.331  0.00  0.00    +0.008 C 
ATOM     11  C   UNL     1      35.619 -25.435 -14.960  0.00  0.00    +0.030 C 
ATOM     12  C   UNL     1      35.336 -23.763 -13.240  0.00  0.00    +0.000 C 
ATOM     13  C   UNL     1      36.915 -25.681 -14.508  0.00  0.00    +0.140 C 
ATOM     14  C   UNL     1      36.632 -24.008 -12.787  0.00  0.00    +0.002 C 
ATOM     15  C   UNL     1      37.422 -24.967 -13.422  0.00  0.00    +0.030 C 
ENDBRANCH   5  10
BRANCH   6  16
ATOM     16  C   UNL     1      33.781 -22.909 -16.926  0.00  0.00    +0.034 C 
ATOM     17  C   UNL     1      35.129 -22.605 -16.711  0.00  0.00    +0.004 C 
ATOM     18  C   UNL     1      33.191 -22.589 -18.153  0.00  0.00    +0.004 C 
ATOM     19  C   UNL     1      35.284 -21.669 -18.933  0.00  0.00    +0.122 C 
ATOM     20  C   UNL     1      35.878 -21.986 -17.711  0.00  0.00    +0.020 C 
ATOM     21  C   UNL     1      33.940 -21.972 -19.153  0.00  0.00    +0.020 C 
BRANCH  19  22
ATOM     22  S   UNL     1      36.223 -20.895 -20.185  0.00  0.00    +0.057 S 
ATOM     23  O   UNL     1      36.921 -19.759 -19.600  0.00  0.00    -0.153 OA
ATOM     24  O   UNL     1      36.976 -21.919 -20.898  0.00  0.00    -0.153 OA
BRANCH  22  25
ATOM     25  N   UNL     1      34.984 -20.314 -21.208  0.00  0.00    -0.203 NA
ATOM     26  H   UNL     1      35.116 -20.686 -22.148  0.00  0.00    +0.144 HD
ATOM     27  H   UNL     1      35.017 -19.295 -21.238  0.00  0.00    +0.144 HD
ENDBRANCH  22  25
ENDBRANCH  19  22
ENDBRANCH   6  16
TORSDOF 4
ENDMDL
MODEL 8
REMARK VINA RESULT:      -9.4      3.857      5.659
REMARK  Name = 9841854
REMARK  4 active torsions:
REMARK  status: ('A' for Active; 'I' for Inactive)
REMARK    1  A    between atoms: C_5  and  C_10
REMARK    2  A    between atoms: C_6  and  C_16
REMARK    3  A    between atoms: C_19  and  S_22
REMARK    4  A    between atoms: S_22  and  N_25
REMARK                            x       y       z     vdW  Elec       q    Type
REMARK                         _______ _______ _______ _____ _____    ______ ____
ROOT
ATOM      1  O   UNL     1      31.537 -23.486 -16.090  0.00  0.00    -0.475 OA
ATOM      2  O   UNL     1      32.111 -25.231 -13.125  0.00  0.00    -0.288 OA
ATOM      3  C   UNL     1      30.951 -24.199 -14.988  0.00  0.00    +0.188 C 
ATOM      4  C   UNL     1      32.151 -24.612 -14.178  0.00  0.00    +0.212 C 
ATOM      5  C   UNL     1      33.390 -24.155 -14.823  0.00  0.00    +0.072 C 
ATOM      6  C   UNL     1      32.916 -23.536 -15.911  0.00  0.00    +0.142 C 
ATOM      7  C   UNL     1      30.053 -23.252 -14.203  0.00  0.00    +0.052 C 
ATOM      8  C   UNL     1      30.197 -25.410 -15.518  0.00  0.00    +0.052 C 
ENDROOT
BRANCH   5  10
ATOM      9  F   UNL     1      37.053 -22.976 -11.867  0.00  0.00    -0.204 F 
ATOM     10  C   UNL     1      34.747 -24.365 -14.330  0.00  0.00    +0.008 C 
ATOM     11  C   UNL     1      35.267 -23.556 -13.311  0.00  0.00    +0.030 C 
ATOM     12  C   UNL     1      35.551 -25.380 -14.869  0.00  0.00    +0.000 C 
ATOM     13  C   UNL     1      36.565 -23.756 -12.840  0.00  0.00    +0.140 C 
ATOM     14  C   UNL     1      36.847 -25.581 -14.399  0.00  0.00    +0.002 C 
ATOM     15  C   UNL     1      37.355 -24.770 -13.384  0.00  0.00    +0.030 C 
ENDBRANCH   5  10
BRANCH   6  16
ATOM     16  C   UNL     1      33.699 -22.888 -16.971  0.00  0.00    +0.034 C 
ATOM     17  C   UNL     1      35.065 -22.651 -16.793  0.00  0.00    +0.004 C 
ATOM     18  C   UNL     1      33.083 -22.504 -18.167  0.00  0.00    +0.004 C 
ATOM     19  C   UNL     1      35.189 -21.654 -18.990  0.00  0.00    +0.122 C 
ATOM     20  C   UNL     1      35.809 -22.036 -17.800  0.00  0.00    +0.020 C 
ATOM     21  C   UNL     1      33.827 -21.890 -19.174  0.00  0.00    +0.020 C 
BRANCH  19  22
ATOM     22  S   UNL     1      36.121 -20.884 -20.251  0.00  0.00    +0.057 S 
ATOM     23  O   UNL     1      36.873 -19.786 -19.660  0.00  0.00    -0.153 OA
ATOM     24  O   UNL     1      36.819 -21.915 -21.006  0.00  0.00    -0.153 OA
BRANCH  22  25
ATOM     25  N   UNL     1      34.876 -20.237 -21.226  0.00  0.00    -0.203 NA
ATOM     26  H   UNL     1      35.121 -19.287 -21.505  0.00  0.00    +0.144 HD
ATOM     27  H   UNL     1      34.004 -20.223 -20.700  0.00  0.00    +0.144 HD
ENDBRANCH  22  25
ENDBRANCH  19  22
ENDBRANCH   6  16
TORSDOF 4
ENDMDL
MODEL 9
REMARK VINA RESULT:      -9.3     10.085     12.669
REMARK  Name = 9841854
REMARK  4 active torsions:
REMARK  status: ('A' for Active; 'I' for Inactive)
REMARK    1  A    between atoms: C_5  and  C_10
REMARK    2  A    between atoms: C_6  and  C_16
REMARK    3  A    between atoms: C_19  and  S_22
REMARK    4  A    between atoms: S_22  and  N_25
REMARK                            x       y       z     vdW  Elec       q    Type
REMARK                         _______ _______ _______ _____ _____    ______ ____
ROOT
ATOM      1  O   UNL     1      32.017 -12.584 -21.038  0.00  0.00    -0.475 OA
ATOM      2  O   UNL     1      32.041  -9.499 -22.666  0.00  0.00    -0.288 OA
ATOM      3  C   UNL     1      31.569 -11.217 -21.021  0.00  0.00    +0.188 C 
ATOM      4  C   UNL     1      32.184 -10.647 -22.272  0.00  0.00    +0.212 C 
ATOM      5  C   UNL     1      32.975 -11.669 -22.970  0.00  0.00    +0.072 C 
ATOM      6  C   UNL     1      32.816 -12.729 -22.168  0.00  0.00    +0.142 C 
ATOM      7  C   UNL     1      30.049 -11.189 -21.088  0.00  0.00    +0.052 C 
ATOM      8  C   UNL     1      32.109 -10.529 -19.775  0.00  0.00    +0.052 C 
ENDROOT
BRANCH   5  10
ATOM      9  F   UNL     1      33.874 -12.903 -27.576  0.00  0.00    -0.204 F 
ATOM     10  C   UNL     1      33.711 -11.488 -24.216  0.00  0.00    +0.008 C 
ATOM     11  C   UNL     1      33.438 -12.297 -25.328  0.00  0.00    +0.030 C 
ATOM     12  C   UNL     1      34.702 -10.502 -24.321  0.00  0.00    +0.000 C 
ATOM     13  C   UNL     1      34.142 -12.124 -26.520  0.00  0.00    +0.140 C 
ATOM     14  C   UNL     1      35.406 -10.328 -25.511  0.00  0.00    +0.002 C 
ATOM     15  C   UNL     1      35.126 -11.138 -26.611  0.00  0.00    +0.030 C 
ENDBRANCH   5  10
BRANCH   6  16
ATOM     16  C   UNL     1      33.405 -14.063 -22.338  0.00  0.00    +0.034 C 
ATOM     17  C   UNL     1      33.336 -14.711 -23.575  0.00  0.00    +0.004 C 
ATOM     18  C   UNL     1      34.040 -14.695 -21.264  0.00  0.00    +0.004 C 
ATOM     19  C   UNL     1      34.526 -16.605 -22.661  0.00  0.00    +0.122 C 
ATOM     20  C   UNL     1      33.895 -15.979 -23.736  0.00  0.00    +0.020 C 
ATOM     21  C   UNL     1      34.599 -15.963 -21.425  0.00  0.00    +0.020 C 
BRANCH  19  22
ATOM     22  S   UNL     1      35.226 -18.192 -22.864  0.00  0.00    +0.057 S 
ATOM     23  O   UNL     1      36.645 -18.112 -22.551  0.00  0.00    -0.153 OA
ATOM     24  O   UNL     1      34.385 -19.160 -22.171  0.00  0.00    -0.153 OA
BRANCH  22  25
ATOM     25  N   UNL     1      35.044 -18.415 -24.548  0.00  0.00    -0.203 NA
ATOM     26  H   UNL     1      35.833 -18.952 -24.908  0.00  0.00    +0.144 HD
ATOM     27  H   UNL     1      35.012 -17.507 -25.010  0.00  0.00    +0.144 HD
ENDBRANCH  22  25
ENDBRANCH  19  22
ENDBRANCH   6  16
TORSDOF 4
ENDMDL
