MODEL 1
REMARK VINA RESULT:      -8.2      0.000      0.000
REMARK  Name = 5287610
REMARK  3 active torsions:
REMARK  status: ('A' for Active; 'I' for Inactive)
REMARK    1  A    between atoms: N_1  and  C_10
REMARK    2  A    between atoms: C_11  and  O_15
REMARK    3  A    between atoms: C_12  and  O_17
REMARK                            x       y       z     vdW  Elec       q    Type
REMARK                         _______ _______ _______ _____ _____    ______ ____
ROOT
ATOM      1  N   UNL     1      34.425 -19.288 -20.852  0.00  0.00    -0.267 N 
ATOM      2  N   UNL     1      32.664 -20.542 -20.312  0.00  0.00    -0.242 NA
ATOM      3  N   UNL     1      36.177 -20.504 -19.692  0.00  0.00    -0.228 NA
ATOM      4  N   UNL     1      35.279 -22.447 -18.519  0.00  0.00    -0.229 NA
ATOM      5  C   UNL     1      34.907 -20.297 -20.069  0.00  0.00    +0.151 C 
ATOM      6  C   UNL     1      33.074 -19.478 -20.970  0.00  0.00    +0.221 C 
ATOM      7  C   UNL     1      33.800 -21.064 -19.745  0.00  0.00    +0.140 C 
ATOM      8  C   UNL     1      34.020 -22.176 -18.939  0.00  0.00    +0.143 C 
ATOM      9  C   UNL     1      36.265 -21.607 -18.916  0.00  0.00    +0.253 C 
ATOM     10  N   UNL     1      32.953 -23.011 -18.562  0.00  0.00    -0.342 N 
ATOM     11  H   UNL     1      33.121 -23.796 -17.990  0.00  0.00    +0.144 HD
ATOM     12  H   UNL     1      32.040 -22.812 -18.869  0.00  0.00    +0.144 HD
ENDROOT
BRANCH   1  13
ATOM     13  C   UNL     1      35.198 -18.200 -21.459  0.00  0.00    +0.127 C 
ATOM     14  C   UNL     1      35.801 -18.559 -22.836  0.00  0.00    +0.164 C 
ATOM     15  C   UNL     1      35.143 -17.621 -23.862  0.00  0.00    +0.161 C 
ATOM     16  C   UNL     1      34.376 -16.979 -21.733  0.00  0.00    -0.006 C 
ATOM     17  C   UNL     1      34.351 -16.668 -23.031  0.00  0.00    +0.002 C 
BRANCH  14  18
ATOM     18  O   UNL     1      37.203 -18.293 -22.787  0.00  0.00    -0.380 OA
ATOM     19  H   UNL     1      37.665 -18.877 -23.409  0.00  0.00    +0.211 HD
ENDBRANCH  14  18
BRANCH  15  20
ATOM     20  O   UNL     1      34.274 -18.359 -24.708  0.00  0.00    -0.378 OA
ATOM     21  H   UNL     1      33.371 -18.015 -24.622  0.00  0.00    +0.211 HD
ENDBRANCH  15  20
ENDBRANCH   1  13
TORSDOF 3
ENDMDL
MODEL 2
REMARK VINA RESULT:      -8.2      4.079      6.758
REMARK  Name = 5287610
REMARK  3 active torsions:
REMARK  status: ('A' for Active; 'I' for Inactive)
REMARK    1  A    between atoms: N_1  and  C_10
REMARK    2  A    between atoms: C_11  and  O_15
REMARK    3  A    between atoms: C_12  and  O_17
REMARK                            x       y       z     vdW  Elec       q    Type
REMARK                         _______ _______ _______ _____ _____    ______ ____
ROOT
ATOM      1  N   UNL     1      34.719 -16.727 -23.764  0.00  0.00    -0.267 N 
ATOM      2  N   UNL     1      33.728 -16.686 -25.759  0.00  0.00    -0.242 NA
ATOM      3  N   UNL     1      34.360 -14.429 -23.068  0.00  0.00    -0.228 NA
ATOM      4  N   UNL     1      33.143 -13.170 -24.768  0.00  0.00    -0.229 NA
ATOM      5  C   UNL     1      34.252 -15.456 -23.926  0.00  0.00    +0.151 C 
ATOM      6  C   UNL     1      34.380 -17.429 -24.891  0.00  0.00    +0.221 C 
ATOM      7  C   UNL     1      33.640 -15.449 -25.168  0.00  0.00    +0.140 C 
ATOM      8  C   UNL     1      33.070 -14.250 -25.583  0.00  0.00    +0.143 C 
ATOM      9  C   UNL     1      33.774 -13.324 -23.579  0.00  0.00    +0.253 C 
ATOM     10  N   UNL     1      32.428 -14.154 -26.829  0.00  0.00    -0.342 N 
ATOM     11  H   UNL     1      32.028 -13.299 -27.113  0.00  0.00    +0.144 HD
ATOM     12  H   UNL     1      32.377 -14.940 -27.418  0.00  0.00    +0.144 HD
ENDROOT
BRANCH   1  13
ATOM     13  C   UNL     1      35.448 -17.257 -22.607  0.00  0.00    +0.127 C 
ATOM     14  C   UNL     1      34.586 -17.375 -21.330  0.00  0.00    +0.164 C 
ATOM     15  C   UNL     1      34.511 -18.871 -20.986  0.00  0.00    +0.161 C 
ATOM     16  C   UNL     1      35.962 -18.646 -22.824  0.00  0.00    -0.006 C 
ATOM     17  C   UNL     1      35.456 -19.515 -21.946  0.00  0.00    +0.002 C 
BRANCH  14  18
ATOM     18  O   UNL     1      35.260 -16.684 -20.277  0.00  0.00    -0.380 OA
ATOM     19  H   UNL     1      36.199 -16.924 -20.282  0.00  0.00    +0.211 HD
ENDBRANCH  14  18
BRANCH  15  20
ATOM     20  O   UNL     1      33.195 -19.356 -21.210  0.00  0.00    -0.378 OA
ATOM     21  H   UNL     1      33.219 -20.061 -21.876  0.00  0.00    +0.211 HD
ENDBRANCH  15  20
ENDBRANCH   1  13
TORSDOF 3
ENDMDL
MODEL 3
REMARK VINA RESULT:      -8.1      6.693      9.208
REMARK  Name = 5287610
REMARK  3 active torsions:
REMARK  status: ('A' for Active; 'I' for Inactive)
REMARK    1  A    between atoms: N_1  and  C_10
REMARK    2  A    between atoms: C_11  and  O_15
REMARK    3  A    between atoms: C_12  and  O_17
REMARK                            x       y       z     vdW  Elec       q    Type
REMARK                         _______ _______ _______ _____ _____    ______ ____
ROOT
ATOM      1  N   UNL     1      34.854 -24.255 -14.470  0.00  0.00    -0.267 N 
ATOM      2  N   UNL     1      32.914 -23.880 -13.442  0.00  0.00    -0.242 NA
ATOM      3  N   UNL     1      34.249 -23.653 -16.743  0.00  0.00    -0.228 NA
ATOM      4  N   UNL     1      31.917 -22.945 -16.880  0.00  0.00    -0.229 NA
ATOM      5  C   UNL     1      33.994 -23.822 -15.437  0.00  0.00    +0.151 C 
ATOM      6  C   UNL     1      34.161 -24.273 -13.289  0.00  0.00    +0.221 C 
ATOM      7  C   UNL     1      32.796 -23.594 -14.780  0.00  0.00    +0.140 C 
ATOM      8  C   UNL     1      31.732 -23.138 -15.552  0.00  0.00    +0.143 C 
ATOM      9  C   UNL     1      33.146 -23.210 -17.386  0.00  0.00    +0.253 C 
ATOM     10  N   UNL     1      30.481 -22.880 -14.967  0.00  0.00    -0.342 N 
ATOM     11  H   UNL     1      29.734 -22.558 -15.523  0.00  0.00    +0.144 HD
ATOM     12  H   UNL     1      30.350 -23.021 -14.002  0.00  0.00    +0.144 HD
ENDROOT
BRANCH   1  13
ATOM     13  C   UNL     1      36.260 -24.633 -14.648  0.00  0.00    +0.127 C 
ATOM     14  C   UNL     1      37.089 -24.578 -13.345  0.00  0.00    +0.164 C 
ATOM     15  C   UNL     1      37.547 -26.017 -13.054  0.00  0.00    +0.161 C 
ATOM     16  C   UNL     1      36.433 -26.041 -15.126  0.00  0.00    -0.006 C 
ATOM     17  C   UNL     1      37.130 -26.785 -14.264  0.00  0.00    +0.002 C 
BRANCH  14  18
ATOM     18  O   UNL     1      38.235 -23.759 -13.584  0.00  0.00    -0.380 OA
ATOM     19  H   UNL     1      39.004 -24.140 -13.132  0.00  0.00    +0.211 HD
ENDBRANCH  14  18
BRANCH  15  20
ATOM     20  O   UNL     1      36.874 -26.519 -11.910  0.00  0.00    -0.378 OA
ATOM     21  H   UNL     1      37.169 -27.427 -11.734  0.00  0.00    +0.211 HD
ENDBRANCH  15  20
ENDBRANCH   1  13
TORSDOF 3
ENDMDL
MODEL 4
REMARK VINA RESULT:      -8.0      7.279      9.436
REMARK  Name = 5287610
REMARK  3 active torsions:
REMARK  status: ('A' for Active; 'I' for Inactive)
REMARK    1  A    between atoms: N_1  and  C_10
REMARK    2  A    between atoms: C_11  and  O_15
REMARK    3  A    between atoms: C_12  and  O_17
REMARK                            x       y       z     vdW  Elec       q    Type
REMARK                         _______ _______ _______ _____ _____    ______ ____
ROOT
ATOM      1  N   UNL     1      35.241 -24.073 -14.096  0.00  0.00    -0.267 N 
ATOM      2  N   UNL     1      35.104 -23.568 -16.261  0.00  0.00    -0.242 NA
ATOM      3  N   UNL     1      32.893 -23.959 -13.489  0.00  0.00    -0.228 NA
ATOM      4  N   UNL     1      31.509 -23.375 -15.412  0.00  0.00    -0.229 NA
ATOM      5  C   UNL     1      33.916 -23.873 -14.352  0.00  0.00    +0.151 C 
ATOM      6  C   UNL     1      35.915 -23.879 -15.272  0.00  0.00    +0.221 C 
ATOM      7  C   UNL     1      33.851 -23.562 -15.701  0.00  0.00    +0.140 C 
ATOM      8  C   UNL     1      32.589 -23.308 -16.228  0.00  0.00    +0.143 C 
ATOM      9  C   UNL     1      31.725 -23.692 -14.113  0.00  0.00    +0.253 C 
ATOM     10  N   UNL     1      32.430 -22.985 -17.586  0.00  0.00    -0.342 N 
ATOM     11  H   UNL     1      31.532 -22.807 -17.948  0.00  0.00    +0.144 HD
ATOM     12  H   UNL     1      33.217 -22.937 -18.176  0.00  0.00    +0.144 HD
ENDROOT
BRANCH   1  13
ATOM     13  C   UNL     1      35.844 -24.429 -12.808  0.00  0.00    +0.127 C 
ATOM     14  C   UNL     1      37.023 -25.422 -12.925  0.00  0.00    +0.164 C 
ATOM     15  C   UNL     1      38.273 -24.682 -12.424  0.00  0.00    +0.161 C 
ATOM     16  C   UNL     1      36.433 -23.254 -12.091  0.00  0.00    -0.006 C 
ATOM     17  C   UNL     1      37.744 -23.394 -11.883  0.00  0.00    +0.002 C 
BRANCH  14  18
ATOM     18  O   UNL     1      36.755 -26.529 -12.063  0.00  0.00    -0.380 OA
ATOM     19  H   UNL     1      36.122 -26.261 -11.380  0.00  0.00    +0.211 HD
ENDBRANCH  14  18
BRANCH  15  20
ATOM     20  O   UNL     1      39.152 -24.422 -13.509  0.00  0.00    -0.378 OA
ATOM     21  H   UNL     1      40.053 -24.294 -13.172  0.00  0.00    +0.211 HD
ENDBRANCH  15  20
ENDBRANCH   1  13
TORSDOF 3
ENDMDL
MODEL 5
REMARK VINA RESULT:      -7.9      6.019      8.799
REMARK  Name = 5287610
REMARK  3 active torsions:
REMARK  status: ('A' for Active; 'I' for Inactive)
REMARK    1  A    between atoms: N_1  and  C_10
REMARK    2  A    between atoms: C_11  and  O_15
REMARK    3  A    between atoms: C_12  and  O_17
REMARK                            x       y       z     vdW  Elec       q    Type
REMARK                         _______ _______ _______ _____ _____    ______ ____
ROOT
ATOM      1  N   UNL     1      36.130 -23.490 -14.872  0.00  0.00    -0.267 N 
ATOM      2  N   UNL     1      33.987 -23.808 -15.390  0.00  0.00    -0.242 NA
ATOM      3  N   UNL     1      36.890 -22.381 -16.894  0.00  0.00    -0.228 NA
ATOM      4  N   UNL     1      35.070 -22.125 -18.500  0.00  0.00    -0.229 NA
ATOM      5  C   UNL     1      35.963 -22.968 -16.122  0.00  0.00    +0.151 C 
ATOM      6  C   UNL     1      34.916 -23.982 -14.474  0.00  0.00    +0.221 C 
ATOM      7  C   UNL     1      34.627 -23.174 -16.426  0.00  0.00    +0.140 C 
ATOM      8  C   UNL     1      34.188 -22.727 -17.667  0.00  0.00    +0.143 C 
ATOM      9  C   UNL     1      36.347 -21.991 -18.069  0.00  0.00    +0.253 C 
ATOM     10  N   UNL     1      32.847 -22.894 -18.057  0.00  0.00    -0.342 N 
ATOM     11  H   UNL     1      32.547 -22.574 -18.938  0.00  0.00    +0.144 HD
ATOM     12  H   UNL     1      32.209 -23.332 -17.449  0.00  0.00    +0.144 HD
ENDROOT
BRANCH   1  13
ATOM     13  C   UNL     1      37.370 -23.522 -14.091  0.00  0.00    +0.127 C 
ATOM     14  C   UNL     1      37.143 -23.589 -12.564  0.00  0.00    +0.164 C 
ATOM     15  C   UNL     1      37.724 -24.932 -12.090  0.00  0.00    +0.161 C 
ATOM     16  C   UNL     1      38.215 -24.724 -14.382  0.00  0.00    -0.006 C 
ATOM     17  C   UNL     1      38.406 -25.481 -13.300  0.00  0.00    +0.002 C 
BRANCH  14  18
ATOM     18  O   UNL     1      37.874 -22.521 -11.961  0.00  0.00    -0.380 OA
ATOM     19  H   UNL     1      38.095 -22.756 -11.047  0.00  0.00    +0.211 HD
ENDBRANCH  14  18
BRANCH  15  20
ATOM     20  O   UNL     1      36.676 -25.802 -11.692  0.00  0.00    -0.378 OA
ATOM     21  H   UNL     1      37.001 -26.716 -11.680  0.00  0.00    +0.211 HD
ENDBRANCH  15  20
ENDBRANCH   1  13
TORSDOF 3
ENDMDL
MODEL 6
REMARK VINA RESULT:      -7.8      6.959      9.116
REMARK  Name = 5287610
REMARK  3 active torsions:
REMARK  status: ('A' for Active; 'I' for Inactive)
REMARK    1  A    between atoms: N_1  and  C_10
REMARK    2  A    between atoms: C_11  and  O_15
REMARK    3  A    between atoms: C_12  and  O_17
REMARK                            x       y       z     vdW  Elec       q    Type
REMARK                         _______ _______ _______ _____ _____    ______ ____
ROOT
ATOM      1  N   UNL     1      36.245 -23.335 -14.902  0.00  0.00    -0.267 N 
ATOM      2  N   UNL     1      35.710 -22.667 -16.959  0.00  0.00    -0.242 NA
ATOM      3  N   UNL     1      34.057 -24.019 -14.100  0.00  0.00    -0.228 NA
ATOM      4  N   UNL     1      32.346 -23.689 -15.809  0.00  0.00    -0.229 NA
ATOM      5  C   UNL     1      34.900 -23.529 -15.023  0.00  0.00    +0.151 C 
ATOM      6  C   UNL     1      36.687 -22.817 -16.090  0.00  0.00    +0.221 C 
ATOM      7  C   UNL     1      34.586 -23.110 -16.305  0.00  0.00    +0.140 C 
ATOM      8  C   UNL     1      33.253 -23.203 -16.690  0.00  0.00    +0.143 C 
ATOM      9  C   UNL     1      32.797 -24.061 -14.587  0.00  0.00    +0.253 C 
ATOM     10  N   UNL     1      32.847 -22.801 -17.974  0.00  0.00    -0.342 N 
ATOM     11  H   UNL     1      31.900 -22.871 -18.236  0.00  0.00    +0.144 HD
ATOM     12  H   UNL     1      33.509 -22.449 -18.612  0.00  0.00    +0.144 HD
ENDROOT
BRANCH   1  13
ATOM     13  C   UNL     1      37.073 -23.624 -13.727  0.00  0.00    +0.127 C 
ATOM     14  C   UNL     1      36.381 -23.304 -12.383  0.00  0.00    +0.164 C 
ATOM     15  C   UNL     1      36.227 -24.639 -11.637  0.00  0.00    +0.161 C 
ATOM     16  C   UNL     1      37.437 -25.072 -13.608  0.00  0.00    -0.006 C 
ATOM     17  C   UNL     1      36.981 -25.616 -12.478  0.00  0.00    +0.002 C 
BRANCH  14  18
ATOM     18  O   UNL     1      37.243 -22.444 -11.636  0.00  0.00    -0.380 OA
ATOM     19  H   UNL     1      37.187 -22.670 -10.695  0.00  0.00    +0.211 HD
ENDBRANCH  14  18
BRANCH  15  20
ATOM     20  O   UNL     1      34.858 -25.010 -11.581  0.00  0.00    -0.378 OA
ATOM     21  H   UNL     1      34.787 -25.971 -11.468  0.00  0.00    +0.211 HD
ENDBRANCH  15  20
ENDBRANCH   1  13
TORSDOF 3
ENDMDL
MODEL 7
REMARK VINA RESULT:      -7.7      7.045      8.850
REMARK  Name = 5287610
REMARK  3 active torsions:
REMARK  status: ('A' for Active; 'I' for Inactive)
REMARK    1  A    between atoms: N_1  and  C_10
REMARK    2  A    between atoms: C_11  and  O_15
REMARK    3  A    between atoms: C_12  and  O_17
REMARK                            x       y       z     vdW  Elec       q    Type
REMARK                         _______ _______ _______ _____ _____    ______ ____
ROOT
ATOM      1  N   UNL     1      34.382 -24.096 -14.678  0.00  0.00    -0.267 N 
ATOM      2  N   UNL     1      33.515 -23.149 -16.499  0.00  0.00    -0.242 NA
ATOM      3  N   UNL     1      32.350 -24.520 -13.418  0.00  0.00    -0.228 NA
ATOM      4  N   UNL     1      30.377 -23.762 -14.638  0.00  0.00    -0.229 NA
ATOM      5  C   UNL     1      33.032 -24.071 -14.483  0.00  0.00    +0.151 C 
ATOM      6  C   UNL     1      34.624 -23.532 -15.902  0.00  0.00    +0.221 C 
ATOM      7  C   UNL     1      32.511 -23.481 -15.623  0.00  0.00    +0.140 C 
ATOM      8  C   UNL     1      31.129 -23.332 -15.680  0.00  0.00    +0.143 C 
ATOM      9  C   UNL     1      31.024 -24.321 -13.588  0.00  0.00    +0.253 C 
ATOM     10  N   UNL     1      30.517 -22.744 -16.800  0.00  0.00    -0.342 N 
ATOM     11  H   UNL     1      29.537 -22.643 -16.829  0.00  0.00    +0.144 HD
ATOM     12  H   UNL     1      31.066 -22.433 -17.554  0.00  0.00    +0.144 HD
ENDROOT
BRANCH   1  13
ATOM     13  C   UNL     1      35.394 -24.625 -13.758  0.00  0.00    +0.127 C 
ATOM     14  C   UNL     1      36.565 -25.343 -14.467  0.00  0.00    +0.164 C 
ATOM     15  C   UNL     1      37.832 -24.528 -14.159  0.00  0.00    +0.161 C 
ATOM     16  C   UNL     1      36.063 -23.560 -12.947  0.00  0.00    -0.006 C 
ATOM     17  C   UNL     1      37.379 -23.512 -13.163  0.00  0.00    +0.002 C 
BRANCH  14  18
ATOM     18  O   UNL     1      36.694 -26.647 -13.899  0.00  0.00    -0.380 OA
ATOM     19  H   UNL     1      35.853 -27.122 -13.987  0.00  0.00    +0.211 HD
ENDBRANCH  14  18
BRANCH  15  20
ATOM     20  O   UNL     1      38.291 -23.878 -15.334  0.00  0.00    -0.378 OA
ATOM     21  H   UNL     1      37.867 -24.276 -16.111  0.00  0.00    +0.211 HD
ENDBRANCH  15  20
ENDBRANCH   1  13
TORSDOF 3
ENDMDL
MODEL 8
REMARK VINA RESULT:      -7.6      8.094      9.378
REMARK  Name = 5287610
REMARK  3 active torsions:
REMARK  status: ('A' for Active; 'I' for Inactive)
REMARK    1  A    between atoms: N_1  and  C_10
REMARK    2  A    between atoms: C_11  and  O_15
REMARK    3  A    between atoms: C_12  and  O_17
REMARK                            x       y       z     vdW  Elec       q    Type
REMARK                         _______ _______ _______ _____ _____    ______ ____
ROOT
ATOM      1  N   UNL     1      35.097 -24.418 -14.320  0.00  0.00    -0.267 N 
ATOM      2  N   UNL     1      36.936 -23.707 -13.281  0.00  0.00    -0.242 NA
ATOM      3  N   UNL     1      35.968 -26.411 -15.398  0.00  0.00    -0.228 NA
ATOM      4  N   UNL     1      38.335 -26.728 -14.892  0.00  0.00    -0.229 NA
ATOM      5  C   UNL     1      36.076 -25.318 -14.628  0.00  0.00    +0.151 C 
ATOM      6  C   UNL     1      35.661 -23.469 -13.509  0.00  0.00    +0.221 C 
ATOM      7  C   UNL     1      37.208 -24.860 -13.974  0.00  0.00    +0.140 C 
ATOM      8  C   UNL     1      38.369 -25.611 -14.127  0.00  0.00    +0.143 C 
ATOM      9  C   UNL     1      37.154 -27.055 -15.471  0.00  0.00    +0.253 C 
ATOM     10  N   UNL     1      39.564 -25.220 -13.498  0.00  0.00    -0.342 N 
ATOM     11  H   UNL     1      40.380 -25.759 -13.613  0.00  0.00    +0.144 HD
ATOM     12  H   UNL     1      39.585 -24.408 -12.943  0.00  0.00    +0.144 HD
ENDROOT
BRANCH   1  13
ATOM     13  C   UNL     1      33.701 -24.450 -14.765  0.00  0.00    +0.127 C 
ATOM     14  C   UNL     1      32.684 -24.623 -13.614  0.00  0.00    +0.164 C 
ATOM     15  C   UNL     1      31.832 -23.343 -13.583  0.00  0.00    +0.161 C 
ATOM     16  C   UNL     1      33.271 -23.183 -15.437  0.00  0.00    -0.006 C 
ATOM     17  C   UNL     1      32.261 -22.589 -14.798  0.00  0.00    +0.002 C 
BRANCH  14  18
ATOM     18  O   UNL     1      31.847 -25.737 -13.928  0.00  0.00    -0.380 OA
ATOM     19  H   UNL     1      31.994 -26.002 -14.849  0.00  0.00    +0.211 HD
ENDBRANCH  14  18
BRANCH  15  20
ATOM     20  O   UNL     1      32.131 -22.588 -12.419  0.00  0.00    -0.378 OA
ATOM     21  H   UNL     1      32.865 -23.007 -11.941  0.00  0.00    +0.211 HD
ENDBRANCH  15  20
ENDBRANCH   1  13
TORSDOF 3
ENDMDL
MODEL 9
REMARK VINA RESULT:      -7.6      6.195      9.088
REMARK  Name = 5287610
REMARK  3 active torsions:
REMARK  status: ('A' for Active; 'I' for Inactive)
REMARK    1  A    between atoms: N_1  and  C_10
REMARK    2  A    between atoms: C_11  and  O_15
REMARK    3  A    between atoms: C_12  and  O_17
REMARK                            x       y       z     vdW  Elec       q    Type
REMARK                         _______ _______ _______ _____ _____    ______ ____
ROOT
ATOM      1  N   UNL     1      36.181 -23.706 -14.979  0.00  0.00    -0.267 N 
ATOM      2  N   UNL     1      37.471 -22.286 -16.112  0.00  0.00    -0.242 NA
ATOM      3  N   UNL     1      34.247 -23.777 -16.445  0.00  0.00    -0.228 NA
ATOM      4  N   UNL     1      34.561 -22.344 -18.395  0.00  0.00    -0.229 NA
ATOM      5  C   UNL     1      35.472 -23.359 -16.091  0.00  0.00    +0.151 C 
ATOM      6  C   UNL     1      37.375 -23.037 -15.035  0.00  0.00    +0.221 C 
ATOM      7  C   UNL     1      36.289 -22.479 -16.782  0.00  0.00    +0.140 C 
ATOM      8  C   UNL     1      35.793 -21.965 -17.976  0.00  0.00    +0.143 C 
ATOM      9  C   UNL     1      33.875 -23.214 -17.615  0.00  0.00    +0.253 C 
ATOM     10  N   UNL     1      36.555 -21.066 -18.742  0.00  0.00    -0.342 N 
ATOM     11  H   UNL     1      36.194 -20.709 -19.586  0.00  0.00    +0.144 HD
ATOM     12  H   UNL     1      37.449 -20.794 -18.435  0.00  0.00    +0.144 HD
ENDROOT
BRANCH   1  13
ATOM     13  C   UNL     1      35.757 -24.621 -13.915  0.00  0.00    +0.127 C 
ATOM     14  C   UNL     1      36.931 -25.274 -13.151  0.00  0.00    +0.164 C 
ATOM     15  C   UNL     1      36.838 -24.782 -11.697  0.00  0.00    +0.161 C 
ATOM     16  C   UNL     1      34.961 -23.946 -12.843  0.00  0.00    -0.006 C 
ATOM     17  C   UNL     1      35.545 -24.036 -11.646  0.00  0.00    +0.002 C 
BRANCH  14  18
ATOM     18  O   UNL     1      36.746 -26.690 -13.181  0.00  0.00    -0.380 OA
ATOM     19  H   UNL     1      37.586 -27.121 -13.400  0.00  0.00    +0.211 HD
ENDBRANCH  14  18
BRANCH  15  20
ATOM     20  O   UNL     1      37.913 -23.900 -11.412  0.00  0.00    -0.378 OA
ATOM     21  H   UNL     1      38.541 -24.338 -10.817  0.00  0.00    +0.211 HD
ENDBRANCH  15  20
ENDBRANCH   1  13
TORSDOF 3
ENDMDL
