MODEL 1
REMARK VINA RESULT:      -5.2      0.000      0.000
REMARK  Name = 11579
REMARK  4 active torsions:
REMARK  status: ('A' for Active; 'I' for Inactive)
REMARK    1  A    between atoms: C_1  and  C_3
REMARK    2  A    between atoms: C_1  and  C_6
REMARK    3  A    between atoms: C_3  and  O_4
REMARK    4  A    between atoms: C_6  and  C_8
REMARK                            x       y       z     vdW  Elec       q    Type
REMARK                         _______ _______ _______ _____ _____    ______ ____
ROOT
ATOM      1  C   UNL     1      38.984 -25.149 -14.323  0.00  0.00    +0.117 C 
ENDROOT
BRANCH   1   3
ATOM      2  O   UNL     1      40.987 -26.477 -13.933  0.00  0.00    -0.250 OA
ATOM      3  C   UNL     1      40.226 -25.918 -14.711  0.00  0.00    +0.314 C 
BRANCH   3   4
ATOM      4  O   UNL     1      40.407 -25.920 -16.057  0.00  0.00    -0.480 OA
ATOM      5  H   UNL     1      40.621 -25.124 -16.503  0.00  0.00    +0.295 HD
ENDBRANCH   3   4
ENDBRANCH   1   3
BRANCH   1   6
ATOM      6  C   UNL     1      38.555 -25.446 -12.890  0.00  0.00    +0.076 C 
BRANCH   6   8
ATOM      7  O   UNL     1      38.896 -23.373 -11.695  0.00  0.00    -0.296 OA
ATOM      8  C   UNL     1      38.106 -24.201 -12.147  0.00  0.00    +0.152 C 
ATOM      9  C   UNL     1      36.618 -24.019 -11.993  0.00  0.00    +0.072 C 
ENDBRANCH   6   8
ENDBRANCH   1   6
TORSDOF 4
ENDMDL
MODEL 2
REMARK VINA RESULT:      -4.9      2.298      2.652
REMARK  Name = 11579
REMARK  4 active torsions:
REMARK  status: ('A' for Active; 'I' for Inactive)
REMARK    1  A    between atoms: C_1  and  C_3
REMARK    2  A    between atoms: C_1  and  C_6
REMARK    3  A    between atoms: C_3  and  O_4
REMARK    4  A    between atoms: C_6  and  C_8
REMARK                            x       y       z     vdW  Elec       q    Type
REMARK                         _______ _______ _______ _____ _____    ______ ____
ROOT
ATOM      1  C   UNL     1      39.156 -25.640 -13.898  0.00  0.00    +0.117 C 
ENDROOT
BRANCH   1   3
ATOM      2  O   UNL     1      41.334 -26.711 -14.082  0.00  0.00    -0.250 OA
ATOM      3  C   UNL     1      40.403 -26.115 -14.606  0.00  0.00    +0.314 C 
BRANCH   3   4
ATOM      4  O   UNL     1      40.374 -25.799 -15.927  0.00  0.00    -0.480 OA
ATOM      5  H   UNL     1      40.961 -26.221 -16.524  0.00  0.00    +0.295 HD
ENDBRANCH   3   4
ENDBRANCH   1   3
BRANCH   1   6
ATOM      6  C   UNL     1      38.351 -24.666 -14.754  0.00  0.00    +0.076 C 
BRANCH   6   8
ATOM      7  O   UNL     1      36.088 -24.511 -15.589  0.00  0.00    -0.296 OA
ATOM      8  C   UNL     1      36.989 -25.216 -15.135  0.00  0.00    +0.152 C 
ATOM      9  C   UNL     1      36.790 -26.696 -14.934  0.00  0.00    +0.072 C 
ENDBRANCH   6   8
ENDBRANCH   1   6
TORSDOF 4
ENDMDL
MODEL 3
REMARK VINA RESULT:      -4.9      9.160      9.924
REMARK  Name = 11579
REMARK  4 active torsions:
REMARK  status: ('A' for Active; 'I' for Inactive)
REMARK    1  A    between atoms: C_1  and  C_3
REMARK    2  A    between atoms: C_1  and  C_6
REMARK    3  A    between atoms: C_3  and  O_4
REMARK    4  A    between atoms: C_6  and  C_8
REMARK                            x       y       z     vdW  Elec       q    Type
REMARK                         _______ _______ _______ _____ _____    ______ ____
ROOT
ATOM      1  C   UNL     1      34.549 -21.296 -19.668  0.00  0.00    +0.117 C 
ENDROOT
BRANCH   1   3
ATOM      2  O   UNL     1      32.511 -22.123 -18.625  0.00  0.00    -0.250 OA
ATOM      3  C   UNL     1      33.576 -22.345 -19.184  0.00  0.00    +0.314 C 
BRANCH   3   4
ATOM      4  O   UNL     1      34.028 -23.599 -19.447  0.00  0.00    -0.480 OA
ATOM      5  H   UNL     1      34.863 -23.874 -19.123  0.00  0.00    +0.295 HD
ENDBRANCH   3   4
ENDBRANCH   1   3
BRANCH   1   6
ATOM      6  C   UNL     1      33.857 -20.214 -20.493  0.00  0.00    +0.076 C 
BRANCH   6   8
ATOM      7  O   UNL     1      35.734 -18.698 -20.632  0.00  0.00    -0.296 OA
ATOM      8  C   UNL     1      34.842 -19.313 -21.214  0.00  0.00    +0.152 C 
ATOM      9  C   UNL     1      34.675 -19.210 -22.709  0.00  0.00    +0.072 C 
ENDBRANCH   6   8
ENDBRANCH   1   6
TORSDOF 4
ENDMDL
MODEL 4
REMARK VINA RESULT:      -4.9     12.206     12.915
REMARK  Name = 11579
REMARK  4 active torsions:
REMARK  status: ('A' for Active; 'I' for Inactive)
REMARK    1  A    between atoms: C_1  and  C_3
REMARK    2  A    between atoms: C_1  and  C_6
REMARK    3  A    between atoms: C_3  and  O_4
REMARK    4  A    between atoms: C_6  and  C_8
REMARK                            x       y       z     vdW  Elec       q    Type
REMARK                         _______ _______ _______ _____ _____    ______ ____
ROOT
ATOM      1  C   UNL     1      34.704 -18.336 -23.911  0.00  0.00    +0.117 C 
ENDROOT
BRANCH   1   3
ATOM      2  O   UNL     1      34.657 -16.827 -25.820  0.00  0.00    -0.250 OA
ATOM      3  C   UNL     1      34.958 -17.046 -24.655  0.00  0.00    +0.314 C 
BRANCH   3   4
ATOM      4  O   UNL     1      35.574 -16.130 -23.863  0.00  0.00    -0.480 OA
ATOM      5  H   UNL     1      35.843 -15.307 -24.220  0.00  0.00    +0.295 HD
ENDBRANCH   3   4
ENDBRANCH   1   3
BRANCH   1   6
ATOM      6  C   UNL     1      35.705 -18.548 -22.779  0.00  0.00    +0.076 C 
BRANCH   6   8
ATOM      7  O   UNL     1      35.337 -17.507 -20.628  0.00  0.00    -0.296 OA
ATOM      8  C   UNL     1      35.068 -18.421 -21.407  0.00  0.00    +0.152 C 
ATOM      9  C   UNL     1      34.065 -19.485 -21.040  0.00  0.00    +0.072 C 
ENDBRANCH   6   8
ENDBRANCH   1   6
TORSDOF 4
ENDMDL
MODEL 5
REMARK VINA RESULT:      -4.9      9.949     11.242
REMARK  Name = 11579
REMARK  4 active torsions:
REMARK  status: ('A' for Active; 'I' for Inactive)
REMARK    1  A    between atoms: C_1  and  C_3
REMARK    2  A    between atoms: C_1  and  C_6
REMARK    3  A    between atoms: C_3  and  O_4
REMARK    4  A    between atoms: C_6  and  C_8
REMARK                            x       y       z     vdW  Elec       q    Type
REMARK                         _______ _______ _______ _____ _____    ______ ____
ROOT
ATOM      1  C   UNL     1      28.268 -22.557 -15.765  0.00  0.00    +0.117 C 
ENDROOT
BRANCH   1   3
ATOM      2  O   UNL     1      26.904 -21.294 -17.337  0.00  0.00    -0.250 OA
ATOM      3  C   UNL     1      27.493 -22.325 -17.041  0.00  0.00    +0.314 C 
BRANCH   3   4
ATOM      4  O   UNL     1      27.524 -23.419 -17.846  0.00  0.00    -0.480 OA
ATOM      5  H   UNL     1      27.926 -23.368 -18.691  0.00  0.00    +0.295 HD
ENDBRANCH   3   4
ENDBRANCH   1   3
BRANCH   1   6
ATOM      6  C   UNL     1      29.348 -23.619 -15.940  0.00  0.00    +0.076 C 
BRANCH   6   8
ATOM      7  O   UNL     1      31.110 -22.524 -17.182  0.00  0.00    -0.296 OA
ATOM      8  C   UNL     1      30.731 -23.018 -16.121  0.00  0.00    +0.152 C 
ATOM      9  C   UNL     1      31.631 -23.051 -14.913  0.00  0.00    +0.072 C 
ENDBRANCH   6   8
ENDBRANCH   1   6
TORSDOF 4
ENDMDL
MODEL 6
REMARK VINA RESULT:      -4.8     10.005     10.645
REMARK  Name = 11579
REMARK  4 active torsions:
REMARK  status: ('A' for Active; 'I' for Inactive)
REMARK    1  A    between atoms: C_1  and  C_3
REMARK    2  A    between atoms: C_1  and  C_6
REMARK    3  A    between atoms: C_3  and  O_4
REMARK    4  A    between atoms: C_6  and  C_8
REMARK                            x       y       z     vdW  Elec       q    Type
REMARK                         _______ _______ _______ _____ _____    ______ ____
ROOT
ATOM      1  C   UNL     1      34.767 -19.550 -21.827  0.00  0.00    +0.117 C 
ENDROOT
BRANCH   1   3
ATOM      2  O   UNL     1      35.430 -17.511 -20.674  0.00  0.00    -0.250 OA
ATOM      3  C   UNL     1      35.521 -18.254 -21.641  0.00  0.00    +0.314 C 
BRANCH   3   4
ATOM      4  O   UNL     1      36.336 -17.999 -22.698  0.00  0.00    -0.480 OA
ATOM      5  H   UNL     1      37.130 -17.518 -22.573  0.00  0.00    +0.295 HD
ENDBRANCH   3   4
ENDBRANCH   1   3
BRANCH   1   6
ATOM      6  C   UNL     1      33.501 -19.599 -20.977  0.00  0.00    +0.076 C 
BRANCH   6   8
ATOM      7  O   UNL     1      32.542 -21.084 -19.328  0.00  0.00    -0.296 OA
ATOM      8  C   UNL     1      33.541 -20.702 -19.935  0.00  0.00    +0.152 C 
ATOM      9  C   UNL     1      34.890 -21.325 -19.680  0.00  0.00    +0.072 C 
ENDBRANCH   6   8
ENDBRANCH   1   6
TORSDOF 4
ENDMDL
MODEL 7
REMARK VINA RESULT:      -4.7     12.747     13.680
REMARK  Name = 11579
REMARK  4 active torsions:
REMARK  status: ('A' for Active; 'I' for Inactive)
REMARK    1  A    between atoms: C_1  and  C_3
REMARK    2  A    between atoms: C_1  and  C_6
REMARK    3  A    between atoms: C_3  and  O_4
REMARK    4  A    between atoms: C_6  and  C_8
REMARK                            x       y       z     vdW  Elec       q    Type
REMARK                         _______ _______ _______ _____ _____    ______ ____
ROOT
ATOM      1  C   UNL     1      34.121 -16.414 -22.296  0.00  0.00    +0.117 C 
ENDROOT
BRANCH   1   3
ATOM      2  O   UNL     1      35.471 -17.672 -20.708  0.00  0.00    -0.250 OA
ATOM      3  C   UNL     1      34.895 -16.638 -21.018  0.00  0.00    +0.314 C 
BRANCH   3   4
ATOM      4  O   UNL     1      34.882 -15.531 -20.230  0.00  0.00    -0.480 OA
ATOM      5  H   UNL     1      34.079 -15.074 -20.077  0.00  0.00    +0.295 HD
ENDBRANCH   3   4
ENDBRANCH   1   3
BRANCH   1   6
ATOM      6  C   UNL     1      35.042 -16.136 -23.480  0.00  0.00    +0.076 C 
BRANCH   6   8
ATOM      7  O   UNL     1      34.807 -16.777 -25.798  0.00  0.00    -0.296 OA
ATOM      8  C   UNL     1      34.841 -17.121 -24.617  0.00  0.00    +0.152 C 
ATOM      9  C   UNL     1      34.689 -18.568 -24.224  0.00  0.00    +0.072 C 
ENDBRANCH   6   8
ENDBRANCH   1   6
TORSDOF 4
ENDMDL
MODEL 8
REMARK VINA RESULT:      -4.7      1.557      4.294
REMARK  Name = 11579
REMARK  4 active torsions:
REMARK  status: ('A' for Active; 'I' for Inactive)
REMARK    1  A    between atoms: C_1  and  C_3
REMARK    2  A    between atoms: C_1  and  C_6
REMARK    3  A    between atoms: C_3  and  O_4
REMARK    4  A    between atoms: C_6  and  C_8
REMARK                            x       y       z     vdW  Elec       q    Type
REMARK                         _______ _______ _______ _____ _____    ______ ____
ROOT
ATOM      1  C   UNL     1      37.211 -24.862 -12.778  0.00  0.00    +0.117 C 
ENDROOT
BRANCH   1   3
ATOM      2  O   UNL     1      38.668 -23.227 -11.716  0.00  0.00    -0.250 OA
ATOM      3  C   UNL     1      37.674 -23.939 -11.676  0.00  0.00    +0.314 C 
BRANCH   3   4
ATOM      4  O   UNL     1      36.840 -23.987 -10.605  0.00  0.00    -0.480 OA
ATOM      5  H   UNL     1      36.501 -23.194 -10.238  0.00  0.00    +0.295 HD
ENDBRANCH   3   4
ENDBRANCH   1   3
BRANCH   1   6
ATOM      6  C   UNL     1      38.032 -24.686 -14.052  0.00  0.00    +0.076 C 
BRANCH   6   8
ATOM      7  O   UNL     1      38.394 -26.992 -14.681  0.00  0.00    -0.296 OA
ATOM      8  C   UNL     1      38.879 -25.904 -14.371  0.00  0.00    +0.152 C 
ATOM      9  C   UNL     1      40.372 -25.712 -14.296  0.00  0.00    +0.072 C 
ENDBRANCH   6   8
ENDBRANCH   1   6
TORSDOF 4
ENDMDL
MODEL 9
REMARK VINA RESULT:      -4.7      2.561      4.858
REMARK  Name = 11579
REMARK  4 active torsions:
REMARK  status: ('A' for Active; 'I' for Inactive)
REMARK    1  A    between atoms: C_1  and  C_3
REMARK    2  A    between atoms: C_1  and  C_6
REMARK    3  A    between atoms: C_3  and  O_4
REMARK    4  A    between atoms: C_6  and  C_8
REMARK                            x       y       z     vdW  Elec       q    Type
REMARK                         _______ _______ _______ _____ _____    ______ ____
ROOT
ATOM      1  C   UNL     1      37.082 -24.626 -12.185  0.00  0.00    +0.117 C 
ENDROOT
BRANCH   1   3
ATOM      2  O   UNL     1      34.738 -24.829 -11.560  0.00  0.00    -0.250 OA
ATOM      3  C   UNL     1      35.890 -24.549 -11.260  0.00  0.00    +0.314 C 
BRANCH   3   4
ATOM      4  O   UNL     1      36.251 -24.121 -10.021  0.00  0.00    -0.480 OA
ATOM      5  H   UNL     1      37.154 -23.974  -9.821  0.00  0.00    +0.295 HD
ENDBRANCH   3   4
ENDBRANCH   1   3
BRANCH   1   6
ATOM      6  C   UNL     1      37.442 -26.068 -12.530  0.00  0.00    +0.076 C 
BRANCH   6   8
ATOM      7  O   UNL     1      38.214 -27.099 -14.576  0.00  0.00    -0.296 OA
ATOM      8  C   UNL     1      37.428 -26.329 -14.025  0.00  0.00    +0.152 C 
ATOM      9  C   UNL     1      36.379 -25.592 -14.818  0.00  0.00    +0.072 C 
ENDBRANCH   6   8
ENDBRANCH   1   6
TORSDOF 4
ENDMDL
