MODEL 1
REMARK VINA RESULT:      -6.7      0.000      0.000
REMARK  Name = 5497
REMARK  3 active torsions:
REMARK  status: ('A' for Active; 'I' for Inactive)
REMARK    1  A    between atoms: N_2  and  C_10
REMARK    2  A    between atoms: N_2  and  C_12
REMARK    3  A    between atoms: C_3  and  C_5
REMARK                            x       y       z     vdW  Elec       q    Type
REMARK                         _______ _______ _______ _____ _____    ______ ____
ROOT
ATOM      1  O   UNL     1      35.646 -18.521 -23.593  0.00  0.00    -0.270 OA
ATOM      2  N   UNL     1      34.685 -16.813 -22.319  0.00  0.00    -0.276 N 
ATOM      3  C   UNL     1      35.071 -18.132 -22.578  0.00  0.00    +0.251 C 
ENDROOT
BRANCH   3   5
ATOM      4  N   UNL     1      35.623 -20.640 -19.866  0.00  0.00    -0.242 NA
ATOM      5  C   UNL     1      34.789 -19.155 -21.558  0.00  0.00    +0.073 C 
ATOM      6  C   UNL     1      33.495 -19.581 -21.335  0.00  0.00    +0.008 C 
ATOM      7  C   UNL     1      35.813 -19.698 -20.816  0.00  0.00    +0.103 C 
ATOM      8  C   UNL     1      33.260 -20.548 -20.364  0.00  0.00    +0.021 C 
ATOM      9  C   UNL     1      34.349 -21.042 -19.663  0.00  0.00    +0.099 C 
ENDBRANCH   3   5
BRANCH   2  10
ATOM     10  C   UNL     1      34.968 -15.780 -23.305  0.00  0.00    +0.094 C 
ATOM     11  C   UNL     1      33.791 -15.621 -24.248  0.00  0.00    +0.023 C 
ENDBRANCH   2  10
BRANCH   2  12
ATOM     12  C   UNL     1      34.001 -16.362 -21.109  0.00  0.00    +0.094 C 
ATOM     13  C   UNL     1      34.506 -14.992 -20.702  0.00  0.00    +0.023 C 
ENDBRANCH   2  12
TORSDOF 3
ENDMDL
MODEL 2
REMARK VINA RESULT:      -6.6      1.736      2.633
REMARK  Name = 5497
REMARK  3 active torsions:
REMARK  status: ('A' for Active; 'I' for Inactive)
REMARK    1  A    between atoms: N_2  and  C_10
REMARK    2  A    between atoms: N_2  and  C_12
REMARK    3  A    between atoms: C_3  and  C_5
REMARK                            x       y       z     vdW  Elec       q    Type
REMARK                         _______ _______ _______ _____ _____    ______ ____
ROOT
ATOM      1  O   UNL     1      35.243 -17.264 -20.558  0.00  0.00    -0.270 OA
ATOM      2  N   UNL     1      34.907 -18.039 -22.738  0.00  0.00    -0.276 N 
ATOM      3  C   UNL     1      34.925 -18.155 -21.344  0.00  0.00    +0.251 C 
ENDROOT
BRANCH   3   5
ATOM      4  N   UNL     1      32.742 -20.907 -20.073  0.00  0.00    -0.242 NA
ATOM      5  C   UNL     1      34.517 -19.436 -20.744  0.00  0.00    +0.073 C 
ATOM      6  C   UNL     1      35.467 -20.335 -20.304  0.00  0.00    +0.008 C 
ATOM      7  C   UNL     1      33.183 -19.750 -20.615  0.00  0.00    +0.103 C 
ATOM      8  C   UNL     1      35.052 -21.537 -19.743  0.00  0.00    +0.021 C 
ATOM      9  C   UNL     1      33.689 -21.773 -19.650  0.00  0.00    +0.099 C 
ENDBRANCH   3   5
BRANCH   2  10
ATOM     10  C   UNL     1      35.290 -16.778 -23.354  0.00  0.00    +0.094 C 
ATOM     11  C   UNL     1      34.192 -15.749 -23.166  0.00  0.00    +0.023 C 
ENDBRANCH   2  10
BRANCH   2  12
ATOM     12  C   UNL     1      34.528 -19.106 -23.661  0.00  0.00    +0.094 C 
ATOM     13  C   UNL     1      34.439 -18.565 -25.075  0.00  0.00    +0.023 C 
ENDBRANCH   2  12
TORSDOF 3
ENDMDL
MODEL 3
REMARK VINA RESULT:      -6.6      1.563      2.187
REMARK  Name = 5497
REMARK  3 active torsions:
REMARK  status: ('A' for Active; 'I' for Inactive)
REMARK    1  A    between atoms: N_2  and  C_10
REMARK    2  A    between atoms: N_2  and  C_12
REMARK    3  A    between atoms: C_3  and  C_5
REMARK                            x       y       z     vdW  Elec       q    Type
REMARK                         _______ _______ _______ _____ _____    ______ ____
ROOT
ATOM      1  O   UNL     1      34.931 -15.966 -20.622  0.00  0.00    -0.270 OA
ATOM      2  N   UNL     1      34.734 -16.562 -22.874  0.00  0.00    -0.276 N 
ATOM      3  C   UNL     1      34.875 -16.819 -21.506  0.00  0.00    +0.251 C 
ENDROOT
BRANCH   3   5
ATOM      4  N   UNL     1      36.305 -20.080 -20.376  0.00  0.00    -0.242 NA
ATOM      5  C   UNL     1      34.949 -18.221 -21.063  0.00  0.00    +0.073 C 
ATOM      6  C   UNL     1      33.799 -18.971 -20.921  0.00  0.00    +0.008 C 
ATOM      7  C   UNL     1      36.167 -18.799 -20.786  0.00  0.00    +0.103 C 
ATOM      8  C   UNL     1      33.901 -20.292 -20.501  0.00  0.00    +0.021 C 
ATOM      9  C   UNL     1      35.166 -20.795 -20.243  0.00  0.00    +0.099 C 
ENDBRANCH   3   5
BRANCH   2  10
ATOM     10  C   UNL     1      34.642 -15.185 -23.335  0.00  0.00    +0.094 C 
ATOM     11  C   UNL     1      33.246 -14.645 -23.094  0.00  0.00    +0.023 C 
ENDBRANCH   2  10
BRANCH   2  12
ATOM     12  C   UNL     1      34.670 -17.584 -23.916  0.00  0.00    +0.094 C 
ATOM     13  C   UNL     1      34.782 -16.942 -25.285  0.00  0.00    +0.023 C 
ENDBRANCH   2  12
TORSDOF 3
ENDMDL
MODEL 4
REMARK VINA RESULT:      -6.2      2.055      5.173
REMARK  Name = 5497
REMARK  3 active torsions:
REMARK  status: ('A' for Active; 'I' for Inactive)
REMARK    1  A    between atoms: N_2  and  C_10
REMARK    2  A    between atoms: N_2  and  C_12
REMARK    3  A    between atoms: C_3  and  C_5
REMARK                            x       y       z     vdW  Elec       q    Type
REMARK                         _______ _______ _______ _____ _____    ______ ____
ROOT
ATOM      1  O   UNL     1      35.258 -16.560 -20.204  0.00  0.00    -0.270 OA
ATOM      2  N   UNL     1      34.816 -17.907 -22.062  0.00  0.00    -0.276 N 
ATOM      3  C   UNL     1      34.766 -16.723 -21.319  0.00  0.00    +0.251 C 
ENDROOT
BRANCH   3   5
ATOM      4  N   UNL     1      34.053 -13.843 -23.589  0.00  0.00    -0.242 NA
ATOM      5  C   UNL     1      34.087 -15.557 -21.908  0.00  0.00    +0.073 C 
ATOM      6  C   UNL     1      32.903 -15.094 -21.370  0.00  0.00    +0.008 C 
ATOM      7  C   UNL     1      34.625 -14.918 -23.001  0.00  0.00    +0.103 C 
ATOM      8  C   UNL     1      32.285 -13.991 -21.948  0.00  0.00    +0.021 C 
ATOM      9  C   UNL     1      32.895 -13.406 -23.046  0.00  0.00    +0.099 C 
ENDBRANCH   3   5
BRANCH   2  10
ATOM     10  C   UNL     1      35.497 -19.068 -21.509  0.00  0.00    +0.094 C 
ATOM     11  C   UNL     1      34.523 -19.915 -20.712  0.00  0.00    +0.023 C 
ENDBRANCH   2  10
BRANCH   2  12
ATOM     12  C   UNL     1      34.227 -18.090 -23.386  0.00  0.00    +0.094 C 
ATOM     13  C   UNL     1      34.988 -19.153 -24.155  0.00  0.00    +0.023 C 
ENDBRANCH   2  12
TORSDOF 3
ENDMDL
MODEL 5
REMARK VINA RESULT:      -6.2      1.945      5.125
REMARK  Name = 5497
REMARK  3 active torsions:
REMARK  status: ('A' for Active; 'I' for Inactive)
REMARK    1  A    between atoms: N_2  and  C_10
REMARK    2  A    between atoms: N_2  and  C_12
REMARK    3  A    between atoms: C_3  and  C_5
REMARK                            x       y       z     vdW  Elec       q    Type
REMARK                         _______ _______ _______ _____ _____    ______ ____
ROOT
ATOM      1  O   UNL     1      32.507 -20.115 -20.540  0.00  0.00    -0.270 OA
ATOM      2  N   UNL     1      34.590 -20.932 -19.862  0.00  0.00    -0.276 N 
ATOM      3  C   UNL     1      33.736 -20.102 -20.596  0.00  0.00    +0.251 C 
ENDROOT
BRANCH   3   5
ATOM      4  N   UNL     1      35.080 -16.860 -21.872  0.00  0.00    -0.242 NA
ATOM      5  C   UNL     1      34.336 -19.112 -21.505  0.00  0.00    +0.073 C 
ATOM      6  C   UNL     1      34.704 -19.474 -22.785  0.00  0.00    +0.008 C 
ATOM      7  C   UNL     1      34.535 -17.816 -21.088  0.00  0.00    +0.103 C 
ATOM      8  C   UNL     1      35.269 -18.517 -23.621  0.00  0.00    +0.021 C 
ATOM      9  C   UNL     1      35.434 -17.235 -23.121  0.00  0.00    +0.099 C 
ENDBRANCH   3   5
BRANCH   2  10
ATOM     10  C   UNL     1      34.021 -21.908 -18.943  0.00  0.00    +0.094 C 
ATOM     11  C   UNL     1      33.955 -23.271 -19.604  0.00  0.00    +0.023 C 
ENDBRANCH   2  10
BRANCH   2  12
ATOM     12  C   UNL     1      36.049 -20.910 -19.937  0.00  0.00    +0.094 C 
ATOM     13  C   UNL     1      36.647 -21.341 -18.612  0.00  0.00    +0.023 C 
ENDBRANCH   2  12
TORSDOF 3
ENDMDL
MODEL 6
REMARK VINA RESULT:      -5.9      9.167     12.063
REMARK  Name = 5497
REMARK  3 active torsions:
REMARK  status: ('A' for Active; 'I' for Inactive)
REMARK    1  A    between atoms: N_2  and  C_10
REMARK    2  A    between atoms: N_2  and  C_12
REMARK    3  A    between atoms: C_3  and  C_5
REMARK                            x       y       z     vdW  Elec       q    Type
REMARK                         _______ _______ _______ _____ _____    ______ ____
ROOT
ATOM      1  O   UNL     1      32.774  -7.016 -19.719  0.00  0.00    -0.270 OA
ATOM      2  N   UNL     1      31.974  -8.917 -20.818  0.00  0.00    -0.276 N 
ATOM      3  C   UNL     1      32.270  -7.555 -20.702  0.00  0.00    +0.251 C 
ENDROOT
BRANCH   3   5
ATOM      4  N   UNL     1      30.589  -4.977 -22.819  0.00  0.00    -0.242 NA
ATOM      5  C   UNL     1      31.979  -6.677 -21.847  0.00  0.00    +0.073 C 
ATOM      6  C   UNL     1      32.771  -6.715 -22.977  0.00  0.00    +0.008 C 
ATOM      7  C   UNL     1      30.912  -5.809 -21.804  0.00  0.00    +0.103 C 
ATOM      8  C   UNL     1      32.471  -5.874 -24.042  0.00  0.00    +0.021 C 
ATOM      9  C   UNL     1      31.379  -5.031 -23.915  0.00  0.00    +0.099 C 
ENDBRANCH   3   5
BRANCH   2  10
ATOM     10  C   UNL     1      32.268  -9.808 -19.706  0.00  0.00    +0.094 C 
ATOM     11  C   UNL     1      31.017 -10.560 -19.293  0.00  0.00    +0.023 C 
ENDBRANCH   2  10
BRANCH   2  12
ATOM     12  C   UNL     1      31.373  -9.546 -21.992  0.00  0.00    +0.094 C 
ATOM     13  C   UNL     1      32.423 -10.322 -22.763  0.00  0.00    +0.023 C 
ENDBRANCH   2  12
TORSDOF 3
ENDMDL
MODEL 7
REMARK VINA RESULT:      -5.9      9.233     10.853
REMARK  Name = 5497
REMARK  3 active torsions:
REMARK  status: ('A' for Active; 'I' for Inactive)
REMARK    1  A    between atoms: N_2  and  C_10
REMARK    2  A    between atoms: N_2  and  C_12
REMARK    3  A    between atoms: C_3  and  C_5
REMARK                            x       y       z     vdW  Elec       q    Type
REMARK                         _______ _______ _______ _____ _____    ______ ____
ROOT
ATOM      1  O   UNL     1      37.829 -22.937 -13.620  0.00  0.00    -0.270 OA
ATOM      2  N   UNL     1      37.871 -25.273 -13.723  0.00  0.00    -0.276 N 
ATOM      3  C   UNL     1      37.252 -24.018 -13.725  0.00  0.00    +0.251 C 
ENDROOT
BRANCH   3   5
ATOM      4  N   UNL     1      33.617 -24.206 -12.886  0.00  0.00    -0.242 NA
ATOM      5  C   UNL     1      35.789 -23.962 -13.879  0.00  0.00    +0.073 C 
ATOM      6  C   UNL     1      35.227 -23.632 -15.096  0.00  0.00    +0.008 C 
ATOM      7  C   UNL     1      34.966 -24.239 -12.812  0.00  0.00    +0.103 C 
ATOM      8  C   UNL     1      33.843 -23.587 -15.211  0.00  0.00    +0.021 C 
ATOM      9  C   UNL     1      33.088 -23.880 -14.086  0.00  0.00    +0.099 C 
ENDBRANCH   3   5
BRANCH   2  10
ATOM     10  C   UNL     1      39.318 -25.353 -13.588  0.00  0.00    +0.094 C 
ATOM     11  C   UNL     1      39.976 -25.265 -14.951  0.00  0.00    +0.023 C 
ENDBRANCH   2  10
BRANCH   2  12
ATOM     12  C   UNL     1      37.175 -26.551 -13.846  0.00  0.00    +0.094 C 
ATOM     13  C   UNL     1      36.899 -26.857 -15.305  0.00  0.00    +0.023 C 
ENDBRANCH   2  12
TORSDOF 3
ENDMDL
MODEL 8
REMARK VINA RESULT:      -5.8      1.687      5.124
REMARK  Name = 5497
REMARK  3 active torsions:
REMARK  status: ('A' for Active; 'I' for Inactive)
REMARK    1  A    between atoms: N_2  and  C_10
REMARK    2  A    between atoms: N_2  and  C_12
REMARK    3  A    between atoms: C_3  and  C_5
REMARK                            x       y       z     vdW  Elec       q    Type
REMARK                         _______ _______ _______ _____ _____    ______ ____
ROOT
ATOM      1  O   UNL     1      35.561 -18.015 -23.994  0.00  0.00    -0.270 OA
ATOM      2  N   UNL     1      34.541 -17.166 -22.069  0.00  0.00    -0.276 N 
ATOM      3  C   UNL     1      34.831 -17.196 -23.438  0.00  0.00    +0.251 C 
ENDROOT
BRANCH   3   5
ATOM      4  N   UNL     1      33.253 -15.624 -26.436  0.00  0.00    -0.242 NA
ATOM      5  C   UNL     1      34.209 -16.183 -24.306  0.00  0.00    +0.073 C 
ATOM      6  C   UNL     1      34.002 -14.899 -23.844  0.00  0.00    +0.008 C 
ATOM      7  C   UNL     1      33.828 -16.506 -25.588  0.00  0.00    +0.103 C 
ATOM      8  C   UNL     1      33.413 -13.965 -24.687  0.00  0.00    +0.021 C 
ATOM      9  C   UNL     1      33.059 -14.373 -25.963  0.00  0.00    +0.099 C 
ENDBRANCH   3   5
BRANCH   2  10
ATOM     10  C   UNL     1      35.130 -18.167 -21.193  0.00  0.00    +0.094 C 
ATOM     11  C   UNL     1      34.161 -19.315 -20.984  0.00  0.00    +0.023 C 
ENDBRANCH   2  10
BRANCH   2  12
ATOM     12  C   UNL     1      33.673 -16.187 -21.419  0.00  0.00    +0.094 C 
ATOM     13  C   UNL     1      34.459 -15.391 -20.395  0.00  0.00    +0.023 C 
ENDBRANCH   2  12
TORSDOF 3
ENDMDL
MODEL 9
REMARK VINA RESULT:      -5.8      6.907      9.047
REMARK  Name = 5497
REMARK  3 active torsions:
REMARK  status: ('A' for Active; 'I' for Inactive)
REMARK    1  A    between atoms: N_2  and  C_10
REMARK    2  A    between atoms: N_2  and  C_12
REMARK    3  A    between atoms: C_3  and  C_5
REMARK                            x       y       z     vdW  Elec       q    Type
REMARK                         _______ _______ _______ _____ _____    ______ ____
ROOT
ATOM      1  O   UNL     1      32.178 -23.131 -13.968  0.00  0.00    -0.270 OA
ATOM      2  N   UNL     1      33.226 -23.329 -16.048  0.00  0.00    -0.276 N 
ATOM      3  C   UNL     1      32.124 -23.288 -15.186  0.00  0.00    +0.251 C 
ENDROOT
BRANCH   3   5
ATOM      4  N   UNL     1      28.966 -22.438 -16.990  0.00  0.00    -0.242 NA
ATOM      5  C   UNL     1      30.779 -23.429 -15.766  0.00  0.00    +0.073 C 
ATOM      6  C   UNL     1      30.087 -24.616 -15.646  0.00  0.00    +0.008 C 
ATOM      7  C   UNL     1      30.197 -22.376 -16.435  0.00  0.00    +0.103 C 
ATOM      8  C   UNL     1      28.818 -24.719 -16.204  0.00  0.00    +0.021 C 
ATOM      9  C   UNL     1      28.306 -23.610 -16.861  0.00  0.00    +0.099 C 
ENDBRANCH   3   5
BRANCH   2  10
ATOM     10  C   UNL     1      34.566 -23.176 -15.501  0.00  0.00    +0.094 C 
ATOM     11  C   UNL     1      35.162 -24.535 -15.190  0.00  0.00    +0.023 C 
ENDBRANCH   2  10
BRANCH   2  12
ATOM     12  C   UNL     1      33.151 -23.519 -17.495  0.00  0.00    +0.094 C 
ATOM     13  C   UNL     1      34.097 -22.564 -18.197  0.00  0.00    +0.023 C 
ENDBRANCH   2  12
TORSDOF 3
ENDMDL
