MODEL 1
REMARK VINA RESULT:      -6.1      0.000      0.000
REMARK  Name = 457
REMARK  1 active torsions:
REMARK  status: ('A' for Active; 'I' for Inactive)
REMARK    1  A    between atoms: C_2  and  C_10
REMARK                            x       y       z     vdW  Elec       q    Type
REMARK                         _______ _______ _______ _____ _____    ______ ____
ROOT
ATOM      1  N   UNL     1      35.590 -19.790 -20.574  0.00  0.00    -0.301 N 
ATOM      2  C   UNL     1      33.914 -21.263 -19.797  0.00  0.00    +0.051 C 
ATOM      3  C   UNL     1      35.251 -20.925 -19.947  0.00  0.00    +0.122 C 
ATOM      4  C   UNL     1      34.676 -18.948 -21.076  0.00  0.00    +0.062 C 
ATOM      5  C   UNL     1      32.944 -20.407 -20.308  0.00  0.00    +0.003 C 
ATOM      6  C   UNL     1      33.324 -19.235 -20.955  0.00  0.00    +0.016 C 
ATOM      7  C   UNL     1      37.005 -19.458 -20.717  0.00  0.00    +0.113 C 
ENDROOT
BRANCH   2  10
ATOM      8  O   UNL     1      34.101 -23.572 -19.367  0.00  0.00    -0.271 OA
ATOM      9  N   UNL     1      32.526 -22.420 -18.162  0.00  0.00    -0.326 N 
ATOM     10  C   UNL     1      33.536 -22.492 -19.118  0.00  0.00    +0.240 C 
ATOM     11  H   UNL     1      32.244 -23.233 -17.682  0.00  0.00    +0.145 HD
ATOM     12  H   UNL     1      32.096 -21.557 -17.964  0.00  0.00    +0.145 HD
ENDBRANCH   2  10
TORSDOF 1
ENDMDL
MODEL 2
REMARK VINA RESULT:      -6.0      0.881      2.041
REMARK  Name = 457
REMARK  1 active torsions:
REMARK  status: ('A' for Active; 'I' for Inactive)
REMARK    1  A    between atoms: C_2  and  C_10
REMARK                            x       y       z     vdW  Elec       q    Type
REMARK                         _______ _______ _______ _____ _____    ______ ____
ROOT
ATOM      1  N   UNL     1      34.846 -19.192 -20.979  0.00  0.00    -0.301 N 
ATOM      2  C   UNL     1      34.616 -21.252 -19.843  0.00  0.00    +0.051 C 
ATOM      3  C   UNL     1      34.058 -20.168 -20.507  0.00  0.00    +0.122 C 
ATOM      4  C   UNL     1      36.178 -19.214 -20.835  0.00  0.00    +0.062 C 
ATOM      5  C   UNL     1      35.997 -21.300 -19.679  0.00  0.00    +0.003 C 
ATOM      6  C   UNL     1      36.791 -20.273 -20.180  0.00  0.00    +0.016 C 
ATOM      7  C   UNL     1      34.232 -18.065 -21.675  0.00  0.00    +0.113 C 
ENDROOT
BRANCH   2  10
ATOM      8  O   UNL     1      34.082 -23.513 -19.454  0.00  0.00    -0.271 OA
ATOM      9  N   UNL     1      32.599 -21.951 -18.666  0.00  0.00    -0.326 N 
ATOM     10  C   UNL     1      33.770 -22.315 -19.327  0.00  0.00    +0.240 C 
ATOM     11  H   UNL     1      32.002 -22.645 -18.304  0.00  0.00    +0.145 HD
ATOM     12  H   UNL     1      32.370 -20.999 -18.561  0.00  0.00    +0.145 HD
ENDBRANCH   2  10
TORSDOF 1
ENDMDL
MODEL 3
REMARK VINA RESULT:      -6.0      4.112      5.314
REMARK  Name = 457
REMARK  1 active torsions:
REMARK  status: ('A' for Active; 'I' for Inactive)
REMARK    1  A    between atoms: C_2  and  C_10
REMARK                            x       y       z     vdW  Elec       q    Type
REMARK                         _______ _______ _______ _____ _____    ______ ____
ROOT
ATOM      1  N   UNL     1      34.221 -16.696 -24.481  0.00  0.00    -0.301 N 
ATOM      2  C   UNL     1      35.019 -17.775 -22.536  0.00  0.00    +0.051 C 
ATOM      3  C   UNL     1      34.586 -16.632 -23.193  0.00  0.00    +0.122 C 
ATOM      4  C   UNL     1      34.257 -17.838 -25.181  0.00  0.00    +0.062 C 
ATOM      5  C   UNL     1      35.067 -18.975 -23.239  0.00  0.00    +0.003 C 
ATOM      6  C   UNL     1      34.682 -19.013 -24.575  0.00  0.00    +0.016 C 
ATOM      7  C   UNL     1      33.768 -15.478 -25.147  0.00  0.00    +0.113 C 
ENDROOT
BRANCH   2  10
ATOM      8  O   UNL     1      35.203 -16.707 -20.444  0.00  0.00    -0.271 OA
ATOM      9  N   UNL     1      36.036 -18.838 -20.594  0.00  0.00    -0.326 N 
ATOM     10  C   UNL     1      35.417 -17.716 -21.140  0.00  0.00    +0.240 C 
ATOM     11  H   UNL     1      36.320 -18.835 -19.651  0.00  0.00    +0.145 HD
ATOM     12  H   UNL     1      36.189 -19.636 -21.151  0.00  0.00    +0.145 HD
ENDBRANCH   2  10
TORSDOF 1
ENDMDL
MODEL 4
REMARK VINA RESULT:      -5.9      2.707      4.105
REMARK  Name = 457
REMARK  1 active torsions:
REMARK  status: ('A' for Active; 'I' for Inactive)
REMARK    1  A    between atoms: C_2  and  C_10
REMARK                            x       y       z     vdW  Elec       q    Type
REMARK                         _______ _______ _______ _____ _____    ______ ____
ROOT
ATOM      1  N   UNL     1      35.411 -20.815 -19.870  0.00  0.00    -0.301 N 
ATOM      2  C   UNL     1      34.688 -19.115 -21.345  0.00  0.00    +0.051 C 
ATOM      3  C   UNL     1      35.705 -19.800 -20.696  0.00  0.00    +0.122 C 
ATOM      4  C   UNL     1      34.151 -21.206 -19.636  0.00  0.00    +0.062 C 
ATOM      5  C   UNL     1      33.370 -19.500 -21.120  0.00  0.00    +0.003 C 
ATOM      6  C   UNL     1      33.093 -20.556 -20.258  0.00  0.00    +0.016 C 
ATOM      7  C   UNL     1      36.501 -21.519 -19.201  0.00  0.00    +0.113 C 
ENDROOT
BRANCH   2  10
ATOM      8  O   UNL     1      34.382 -16.934 -22.180  0.00  0.00    -0.271 OA
ATOM      9  N   UNL     1      36.020 -18.198 -23.168  0.00  0.00    -0.326 N 
ATOM     10  C   UNL     1      34.997 -18.014 -22.242  0.00  0.00    +0.240 C 
ATOM     11  H   UNL     1      36.256 -17.474 -23.792  0.00  0.00    +0.145 HD
ATOM     12  H   UNL     1      36.508 -19.053 -23.199  0.00  0.00    +0.145 HD
ENDBRANCH   2  10
TORSDOF 1
ENDMDL
MODEL 5
REMARK VINA RESULT:      -5.7      5.621      7.137
REMARK  Name = 457
REMARK  1 active torsions:
REMARK  status: ('A' for Active; 'I' for Inactive)
REMARK    1  A    between atoms: C_2  and  C_10
REMARK                            x       y       z     vdW  Elec       q    Type
REMARK                         _______ _______ _______ _____ _____    ______ ____
ROOT
ATOM      1  N   UNL     1      34.708 -16.461 -22.338  0.00  0.00    -0.301 N 
ATOM      2  C   UNL     1      34.056 -16.039 -24.570  0.00  0.00    +0.051 C 
ATOM      3  C   UNL     1      34.128 -15.655 -23.239  0.00  0.00    +0.122 C 
ATOM      4  C   UNL     1      35.233 -17.648 -22.672  0.00  0.00    +0.062 C 
ATOM      5  C   UNL     1      34.593 -17.267 -24.944  0.00  0.00    +0.003 C 
ATOM      6  C   UNL     1      35.190 -18.083 -23.989  0.00  0.00    +0.016 C 
ATOM      7  C   UNL     1      34.771 -16.031 -20.944  0.00  0.00    +0.113 C 
ENDROOT
BRANCH   2  10
ATOM      8  O   UNL     1      33.401 -15.473 -26.761  0.00  0.00    -0.271 OA
ATOM      9  N   UNL     1      32.838 -13.995 -25.101  0.00  0.00    -0.326 N 
ATOM     10  C   UNL     1      33.428 -15.173 -25.555  0.00  0.00    +0.240 C 
ATOM     11  H   UNL     1      32.404 -13.384 -25.739  0.00  0.00    +0.145 HD
ATOM     12  H   UNL     1      32.855 -13.775 -24.141  0.00  0.00    +0.145 HD
ENDBRANCH   2  10
TORSDOF 1
ENDMDL
MODEL 6
REMARK VINA RESULT:      -5.7      3.145      4.451
REMARK  Name = 457
REMARK  1 active torsions:
REMARK  status: ('A' for Active; 'I' for Inactive)
REMARK    1  A    between atoms: C_2  and  C_10
REMARK                            x       y       z     vdW  Elec       q    Type
REMARK                         _______ _______ _______ _____ _____    ______ ____
ROOT
ATOM      1  N   UNL     1      34.644 -16.428 -23.382  0.00  0.00    -0.301 N 
ATOM      2  C   UNL     1      34.946 -18.530 -22.344  0.00  0.00    +0.051 C 
ATOM      3  C   UNL     1      34.848 -17.148 -22.270  0.00  0.00    +0.122 C 
ATOM      4  C   UNL     1      34.531 -16.994 -24.591  0.00  0.00    +0.062 C 
ATOM      5  C   UNL     1      34.831 -19.144 -23.587  0.00  0.00    +0.003 C 
ATOM      6  C   UNL     1      34.621 -18.373 -24.726  0.00  0.00    +0.016 C 
ATOM      7  C   UNL     1      34.544 -14.975 -23.274  0.00  0.00    +0.113 C 
ENDROOT
BRANCH   2  10
ATOM      8  O   UNL     1      34.282 -20.064 -20.685  0.00  0.00    -0.271 OA
ATOM      9  N   UNL     1      36.412 -19.229 -20.527  0.00  0.00    -0.326 N 
ATOM     10  C   UNL     1      35.166 -19.319 -21.144  0.00  0.00    +0.240 C 
ATOM     11  H   UNL     1      36.597 -19.750 -19.712  0.00  0.00    +0.145 HD
ATOM     12  H   UNL     1      37.108 -18.645 -20.908  0.00  0.00    +0.145 HD
ENDBRANCH   2  10
TORSDOF 1
ENDMDL
MODEL 7
REMARK VINA RESULT:      -5.7      4.935      6.067
REMARK  Name = 457
REMARK  1 active torsions:
REMARK  status: ('A' for Active; 'I' for Inactive)
REMARK    1  A    between atoms: C_2  and  C_10
REMARK                            x       y       z     vdW  Elec       q    Type
REMARK                         _______ _______ _______ _____ _____    ______ ____
ROOT
ATOM      1  N   UNL     1      33.773 -15.566 -24.550  0.00  0.00    -0.301 N 
ATOM      2  C   UNL     1      34.647 -16.664 -22.649  0.00  0.00    +0.051 C 
ATOM      3  C   UNL     1      34.021 -15.573 -23.233  0.00  0.00    +0.122 C 
ATOM      4  C   UNL     1      34.111 -16.588 -25.348  0.00  0.00    +0.062 C 
ATOM      5  C   UNL     1      35.009 -17.740 -23.454  0.00  0.00    +0.003 C 
ATOM      6  C   UNL     1      34.739 -17.707 -24.819  0.00  0.00    +0.016 C 
ATOM      7  C   UNL     1      33.111 -14.405 -25.138  0.00  0.00    +0.113 C 
ENDROOT
BRANCH   2  10
ATOM      8  O   UNL     1      35.448 -17.665 -20.673  0.00  0.00    -0.271 OA
ATOM      9  N   UNL     1      34.589 -15.547 -20.484  0.00  0.00    -0.326 N 
ATOM     10  C   UNL     1      34.921 -16.681 -21.222  0.00  0.00    +0.240 C 
ATOM     11  H   UNL     1      34.760 -15.523 -19.514  0.00  0.00    +0.145 HD
ATOM     12  H   UNL     1      34.184 -14.769 -20.932  0.00  0.00    +0.145 HD
ENDBRANCH   2  10
TORSDOF 1
ENDMDL
MODEL 8
REMARK VINA RESULT:      -5.6      4.590      6.029
REMARK  Name = 457
REMARK  1 active torsions:
REMARK  status: ('A' for Active; 'I' for Inactive)
REMARK    1  A    between atoms: C_2  and  C_10
REMARK                            x       y       z     vdW  Elec       q    Type
REMARK                         _______ _______ _______ _____ _____    ______ ____
ROOT
ATOM      1  N   UNL     1      33.375 -14.702 -23.296  0.00  0.00    -0.301 N 
ATOM      2  C   UNL     1      34.458 -16.290 -21.922  0.00  0.00    +0.051 C 
ATOM      3  C   UNL     1      34.226 -15.729 -23.170  0.00  0.00    +0.122 C 
ATOM      4  C   UNL     1      32.721 -14.180 -22.250  0.00  0.00    +0.062 C 
ATOM      5  C   UNL     1      33.792 -15.768 -20.818  0.00  0.00    +0.003 C 
ATOM      6  C   UNL     1      32.914 -14.701 -20.978  0.00  0.00    +0.016 C 
ATOM      7  C   UNL     1      33.151 -14.130 -24.621  0.00  0.00    +0.113 C 
ENDROOT
BRANCH   2  10
ATOM      8  O   UNL     1      35.493 -18.014 -20.695  0.00  0.00    -0.271 OA
ATOM      9  N   UNL     1      36.123 -17.784 -22.888  0.00  0.00    -0.326 N 
ATOM     10  C   UNL     1      35.379 -17.405 -21.774  0.00  0.00    +0.240 C 
ATOM     11  H   UNL     1      36.758 -18.535 -22.824  0.00  0.00    +0.145 HD
ATOM     12  H   UNL     1      36.014 -17.302 -23.740  0.00  0.00    +0.145 HD
ENDBRANCH   2  10
TORSDOF 1
ENDMDL
MODEL 9
REMARK VINA RESULT:      -5.6      5.525      7.142
REMARK  Name = 457
REMARK  1 active torsions:
REMARK  status: ('A' for Active; 'I' for Inactive)
REMARK    1  A    between atoms: C_2  and  C_10
REMARK                            x       y       z     vdW  Elec       q    Type
REMARK                         _______ _______ _______ _____ _____    ______ ____
ROOT
ATOM      1  N   UNL     1      35.112 -16.957 -22.408  0.00  0.00    -0.301 N 
ATOM      2  C   UNL     1      34.165 -14.861 -22.950  0.00  0.00    +0.051 C 
ATOM      3  C   UNL     1      34.712 -16.076 -23.336  0.00  0.00    +0.122 C 
ATOM      4  C   UNL     1      35.006 -16.712 -21.094  0.00  0.00    +0.062 C 
ATOM      5  C   UNL     1      34.043 -14.581 -21.593  0.00  0.00    +0.003 C 
ATOM      6  C   UNL     1      34.465 -15.513 -20.651  0.00  0.00    +0.016 C 
ATOM      7  C   UNL     1      35.684 -18.228 -22.842  0.00  0.00    +0.113 C 
ENDROOT
BRANCH   2  10
ATOM      8  O   UNL     1      33.033 -14.242 -24.921  0.00  0.00    -0.271 OA
ATOM      9  N   UNL     1      34.100 -12.568 -23.773  0.00  0.00    -0.326 N 
ATOM     10  C   UNL     1      33.728 -13.899 -23.948  0.00  0.00    +0.240 C 
ATOM     11  H   UNL     1      33.823 -11.889 -24.429  0.00  0.00    +0.145 HD
ATOM     12  H   UNL     1      34.640 -12.307 -22.991  0.00  0.00    +0.145 HD
ENDBRANCH   2  10
TORSDOF 1
ENDMDL
