MODEL 1
REMARK VINA RESULT:      -8.4      0.000      0.000
REMARK  Name = 44126305
REMARK  3 active torsions:
REMARK  status: ('A' for Active; 'I' for Inactive)
REMARK    1  A    between atoms: C_4  and  N_11
REMARK    2  A    between atoms: C_9  and  C_18
REMARK    3  A    between atoms: C_18  and  C_19
REMARK                            x       y       z     vdW  Elec       q    Type
REMARK                         _______ _______ _______ _____ _____    ______ ____
ROOT
ATOM      1  N   UNL     1      34.790 -23.889 -15.128  0.00  0.00    -0.290 N 
ATOM      2  N   UNL     1      34.467 -23.108 -17.341  0.00  0.00    -0.333 NA
ATOM      3  N   UNL     1      32.250 -22.543 -18.096  0.00  0.00    -0.333 NA
ATOM      4  C   UNL     1      36.031 -24.498 -13.626  0.00  0.00    -0.022 C 
ATOM      5  C   UNL     1      36.196 -24.100 -15.096  0.00  0.00    +0.073 C 
ATOM      6  C   UNL     1      34.527 -24.579 -13.912  0.00  0.00    +0.073 C 
ATOM      7  C   UNL     1      33.937 -23.430 -16.143  0.00  0.00    +0.181 C 
ATOM      8  C   UNL     1      32.592 -23.337 -15.849  0.00  0.00    +0.151 C 
ATOM      9  C   UNL     1      33.579 -22.678 -18.258  0.00  0.00    +0.116 C 
ATOM     10  C   UNL     1      31.787 -22.882 -16.874  0.00  0.00    +0.175 C 
ATOM     11  N   UNL     1      30.400 -22.770 -16.614  0.00  0.00    -0.335 N 
ATOM     12  H   UNL     1      29.791 -22.451 -17.319  0.00  0.00    +0.144 HD
ATOM     13  H   UNL     1      30.045 -23.013 -15.728  0.00  0.00    +0.144 HD
ENDROOT
BRANCH   4  14
ATOM     14  N   UNL     1      36.553 -25.844 -13.433  0.00  0.00    +0.386 N 
ATOM     15  C   UNL     1      37.685 -25.837 -12.516  0.00  0.00    -0.105 C 
ATOM     16  H   UNL     1      36.854 -26.217 -14.332  0.00  0.00    -0.084 HD
ATOM     17  H   UNL     1      35.815 -26.424 -13.034  0.00  0.00    -0.084 HD
ENDBRANCH   4  14
BRANCH   9  18
ATOM     18  C   UNL     1      34.135 -22.307 -19.611  0.00  0.00    +0.125 C 
BRANCH  18  19
ATOM     19  C   UNL     1      34.265 -20.788 -19.837  0.00  0.00    +0.017 C 
ATOM     20  C   UNL     1      35.555 -20.426 -20.576  0.00  0.00    +0.001 C 
ATOM     21  C   UNL     1      33.058 -20.276 -20.626  0.00  0.00    +0.001 C 
ENDBRANCH  18  19
ENDBRANCH   9  18
TORSDOF 3
ENDMDL
MODEL 2
REMARK VINA RESULT:      -7.9      1.928      5.109
REMARK  Name = 44126305
REMARK  3 active torsions:
REMARK  status: ('A' for Active; 'I' for Inactive)
REMARK    1  A    between atoms: C_4  and  N_11
REMARK    2  A    between atoms: C_9  and  C_18
REMARK    3  A    between atoms: C_18  and  C_19
REMARK                            x       y       z     vdW  Elec       q    Type
REMARK                         _______ _______ _______ _____ _____    ______ ____
ROOT
ATOM      1  N   UNL     1      30.672 -23.111 -16.144  0.00  0.00    -0.290 N 
ATOM      2  N   UNL     1      32.354 -22.795 -17.781  0.00  0.00    -0.333 NA
ATOM      3  N   UNL     1      34.667 -23.134 -17.196  0.00  0.00    -0.333 NA
ATOM      4  C   UNL     1      28.701 -23.167 -15.616  0.00  0.00    -0.022 C 
ATOM      5  C   UNL     1      29.490 -22.818 -16.881  0.00  0.00    +0.073 C 
ATOM      6  C   UNL     1      30.038 -23.093 -14.870  0.00  0.00    +0.073 C 
ATOM      7  C   UNL     1      32.025 -23.116 -16.513  0.00  0.00    +0.181 C 
ATOM      8  C   UNL     1      32.947 -23.452 -15.543  0.00  0.00    +0.151 C 
ATOM      9  C   UNL     1      33.674 -22.823 -18.050  0.00  0.00    +0.116 C 
ATOM     10  C   UNL     1      34.267 -23.444 -15.945  0.00  0.00    +0.175 C 
ATOM     11  N   UNL     1      35.245 -23.785 -14.980  0.00  0.00    -0.335 N 
ATOM     12  H   UNL     1      36.198 -23.791 -15.226  0.00  0.00    +0.144 HD
ATOM     13  H   UNL     1      34.971 -24.014 -14.062  0.00  0.00    +0.144 HD
ENDROOT
BRANCH   4  14
ATOM     14  N   UNL     1      27.878 -22.027 -15.235  0.00  0.00    +0.386 N 
ATOM     15  C   UNL     1      26.556 -22.111 -15.842  0.00  0.00    -0.105 C 
ATOM     16  H   UNL     1      28.334 -21.169 -15.544  0.00  0.00    -0.084 HD
ATOM     17  H   UNL     1      27.771 -22.029 -14.220  0.00  0.00    -0.084 HD
ENDBRANCH   4  14
BRANCH   9  18
ATOM     18  C   UNL     1      34.082 -22.470 -19.460  0.00  0.00    +0.125 C 
BRANCH  18  19
ATOM     19  C   UNL     1      34.282 -20.960 -19.691  0.00  0.00    +0.017 C 
ATOM     20  C   UNL     1      35.582 -20.661 -20.441  0.00  0.00    +0.001 C 
ATOM     21  C   UNL     1      33.094 -20.393 -20.473  0.00  0.00    +0.001 C 
ENDBRANCH  18  19
ENDBRANCH   9  18
TORSDOF 3
ENDMDL
MODEL 3
REMARK VINA RESULT:      -7.8      1.912      4.097
REMARK  Name = 44126305
REMARK  3 active torsions:
REMARK  status: ('A' for Active; 'I' for Inactive)
REMARK    1  A    between atoms: C_4  and  N_11
REMARK    2  A    between atoms: C_9  and  C_18
REMARK    3  A    between atoms: C_18  and  C_19
REMARK                            x       y       z     vdW  Elec       q    Type
REMARK                         _______ _______ _______ _____ _____    ______ ____
ROOT
ATOM      1  N   UNL     1      34.957 -23.812 -15.181  0.00  0.00    -0.290 N 
ATOM      2  N   UNL     1      32.636 -23.416 -15.443  0.00  0.00    -0.333 NA
ATOM      3  N   UNL     1      31.787 -22.659 -17.568  0.00  0.00    -0.333 NA
ATOM      4  C   UNL     1      36.531 -24.436 -14.042  0.00  0.00    -0.022 C 
ATOM      5  C   UNL     1      35.029 -24.231 -13.824  0.00  0.00    +0.073 C 
ATOM      6  C   UNL     1      36.360 -23.635 -15.337  0.00  0.00    +0.073 C 
ATOM      7  C   UNL     1      33.873 -23.423 -15.982  0.00  0.00    +0.181 C 
ATOM      8  C   UNL     1      34.143 -23.065 -17.287  0.00  0.00    +0.151 C 
ATOM      9  C   UNL     1      31.654 -23.030 -16.280  0.00  0.00    +0.116 C 
ATOM     10  C   UNL     1      33.050 -22.689 -18.042  0.00  0.00    +0.175 C 
ATOM     11  N   UNL     1      33.284 -22.316 -19.388  0.00  0.00    -0.335 N 
ATOM     12  H   UNL     1      32.531 -22.040 -19.959  0.00  0.00    +0.144 HD
ATOM     13  H   UNL     1      34.199 -22.331 -19.750  0.00  0.00    +0.144 HD
ENDROOT
BRANCH   4  14
ATOM     14  N   UNL     1      37.269 -23.632 -13.077  0.00  0.00    +0.386 N 
ATOM     15  C   UNL     1      38.310 -24.418 -12.430  0.00  0.00    -0.105 C 
ATOM     16  H   UNL     1      36.623 -23.285 -12.369  0.00  0.00    -0.084 HD
ATOM     17  H   UNL     1      37.708 -22.854 -13.572  0.00  0.00    -0.084 HD
ENDBRANCH   4  14
BRANCH   9  18
ATOM     18  C   UNL     1      30.255 -23.010 -15.714  0.00  0.00    +0.125 C 
BRANCH  18  19
ATOM     19  C   UNL     1      29.423 -24.259 -16.065  0.00  0.00    +0.017 C 
ATOM     20  C   UNL     1      28.995 -25.034 -14.817  0.00  0.00    +0.001 C 
ATOM     21  C   UNL     1      28.184 -23.848 -16.866  0.00  0.00    +0.001 C 
ENDBRANCH  18  19
ENDBRANCH   9  18
TORSDOF 3
ENDMDL
MODEL 4
REMARK VINA RESULT:      -7.7      8.417     11.497
REMARK  Name = 44126305
REMARK  3 active torsions:
REMARK  status: ('A' for Active; 'I' for Inactive)
REMARK    1  A    between atoms: C_4  and  N_11
REMARK    2  A    between atoms: C_9  and  C_18
REMARK    3  A    between atoms: C_18  and  C_19
REMARK                            x       y       z     vdW  Elec       q    Type
REMARK                         _______ _______ _______ _____ _____    ______ ____
ROOT
ATOM      1  N   UNL     1      33.840 -15.457 -22.199  0.00  0.00    -0.290 N 
ATOM      2  N   UNL     1      32.543 -13.537 -21.705  0.00  0.00    -0.333 NA
ATOM      3  N   UNL     1      32.627 -11.630 -23.176  0.00  0.00    -0.333 NA
ATOM      4  C   UNL     1      34.407 -17.371 -21.773  0.00  0.00    -0.022 C 
ATOM      5  C   UNL     1      33.509 -16.318 -21.116  0.00  0.00    +0.073 C 
ATOM      6  C   UNL     1      34.942 -16.235 -22.651  0.00  0.00    +0.073 C 
ATOM      7  C   UNL     1      33.420 -14.158 -22.521  0.00  0.00    +0.181 C 
ATOM      8  C   UNL     1      33.939 -13.588 -23.666  0.00  0.00    +0.151 C 
ATOM      9  C   UNL     1      32.194 -12.293 -22.087  0.00  0.00    +0.116 C 
ATOM     10  C   UNL     1      33.502 -12.309 -23.946  0.00  0.00    +0.175 C 
ATOM     11  N   UNL     1      34.009 -11.688 -25.114  0.00  0.00    -0.335 N 
ATOM     12  H   UNL     1      33.723 -10.776 -25.349  0.00  0.00    +0.144 HD
ATOM     13  H   UNL     1      34.648 -12.168 -25.688  0.00  0.00    +0.144 HD
ENDROOT
BRANCH   4  14
ATOM     14  N   UNL     1      35.442 -17.773 -20.830  0.00  0.00    +0.386 N 
ATOM     15  C   UNL     1      35.791 -19.176 -21.005  0.00  0.00    -0.105 C 
ATOM     16  H   UNL     1      35.101 -17.629 -19.880  0.00  0.00    -0.084 HD
ATOM     17  H   UNL     1      36.274 -17.207 -21.001  0.00  0.00    -0.084 HD
ENDBRANCH   4  14
BRANCH   9  18
ATOM     18  C   UNL     1      31.214 -11.567 -21.199  0.00  0.00    +0.125 C 
BRANCH  18  19
ATOM     19  C   UNL     1      31.879 -10.642 -20.161  0.00  0.00    +0.017 C 
ATOM     20  C   UNL     1      31.906  -9.184 -20.624  0.00  0.00    +0.001 C 
ATOM     21  C   UNL     1      31.139 -10.745 -18.825  0.00  0.00    +0.001 C 
ENDBRANCH  18  19
ENDBRANCH   9  18
TORSDOF 3
ENDMDL
MODEL 5
REMARK VINA RESULT:      -7.6      6.807     10.840
REMARK  Name = 44126305
REMARK  3 active torsions:
REMARK  status: ('A' for Active; 'I' for Inactive)
REMARK    1  A    between atoms: C_4  and  N_11
REMARK    2  A    between atoms: C_9  and  C_18
REMARK    3  A    between atoms: C_18  and  C_19
REMARK                            x       y       z     vdW  Elec       q    Type
REMARK                         _______ _______ _______ _____ _____    ______ ____
ROOT
ATOM      1  N   UNL     1      33.170 -14.276 -22.266  0.00  0.00    -0.290 N 
ATOM      2  N   UNL     1      34.125 -16.338 -21.597  0.00  0.00    -0.333 NA
ATOM      3  N   UNL     1      34.954 -17.866 -23.265  0.00  0.00    -0.333 NA
ATOM      4  C   UNL     1      32.343 -12.470 -21.796  0.00  0.00    -0.022 C 
ATOM      5  C   UNL     1      32.821 -13.697 -21.014  0.00  0.00    +0.073 C 
ATOM      6  C   UNL     1      32.429 -13.348 -23.049  0.00  0.00    +0.073 C 
ATOM      7  C   UNL     1      33.777 -15.497 -22.593  0.00  0.00    +0.181 C 
ATOM      8  C   UNL     1      33.981 -15.767 -23.931  0.00  0.00    +0.151 C 
ATOM      9  C   UNL     1      34.701 -17.487 -21.998  0.00  0.00    +0.116 C 
ATOM     10  C   UNL     1      34.580 -16.979 -24.211  0.00  0.00    +0.175 C 
ATOM     11  N   UNL     1      34.810 -17.294 -25.572  0.00  0.00    -0.335 N 
ATOM     12  H   UNL     1      35.234 -18.149 -25.814  0.00  0.00    +0.144 HD
ATOM     13  H   UNL     1      34.543 -16.659 -26.275  0.00  0.00    +0.144 HD
ENDROOT
BRANCH   4  14
ATOM     14  N   UNL     1      30.943 -12.218 -21.484  0.00  0.00    +0.386 N 
ATOM     15  C   UNL     1      30.784 -10.948 -20.789  0.00  0.00    -0.105 C 
ATOM     16  H   UNL     1      30.594 -12.970 -20.890  0.00  0.00    -0.084 HD
ATOM     17  H   UNL     1      30.418 -12.179 -22.358  0.00  0.00    -0.084 HD
ENDBRANCH   4  14
BRANCH   9  18
ATOM     18  C   UNL     1      35.105 -18.453 -20.912  0.00  0.00    +0.125 C 
BRANCH  18  19
ATOM     19  C   UNL     1      34.453 -19.844 -21.039  0.00  0.00    +0.017 C 
ATOM     20  C   UNL     1      35.109 -20.873 -20.117  0.00  0.00    +0.001 C 
ATOM     21  C   UNL     1      32.958 -19.747 -20.722  0.00  0.00    +0.001 C 
ENDBRANCH  18  19
ENDBRANCH   9  18
TORSDOF 3
ENDMDL
MODEL 6
REMARK VINA RESULT:      -7.5      8.646     11.510
REMARK  Name = 44126305
REMARK  3 active torsions:
REMARK  status: ('A' for Active; 'I' for Inactive)
REMARK    1  A    between atoms: C_4  and  N_11
REMARK    2  A    between atoms: C_9  and  C_18
REMARK    3  A    between atoms: C_18  and  C_19
REMARK                            x       y       z     vdW  Elec       q    Type
REMARK                         _______ _______ _______ _____ _____    ______ ____
ROOT
ATOM      1  N   UNL     1      33.991 -15.210 -21.997  0.00  0.00    -0.290 N 
ATOM      2  N   UNL     1      33.861 -13.345 -23.451  0.00  0.00    -0.333 NA
ATOM      3  N   UNL     1      32.349 -11.538 -22.943  0.00  0.00    -0.333 NA
ATOM      4  C   UNL     1      34.831 -16.995 -21.475  0.00  0.00    -0.022 C 
ATOM      5  C   UNL     1      34.969 -16.015 -22.644  0.00  0.00    +0.073 C 
ATOM      6  C   UNL     1      33.561 -16.225 -21.097  0.00  0.00    +0.073 C 
ATOM      7  C   UNL     1      33.441 -13.963 -22.328  0.00  0.00    +0.181 C 
ATOM      8  C   UNL     1      32.492 -13.440 -21.474  0.00  0.00    +0.151 C 
ATOM      9  C   UNL     1      33.282 -12.153 -23.695  0.00  0.00    +0.116 C 
ATOM     10  C   UNL     1      31.975 -12.212 -21.835  0.00  0.00    +0.175 C 
ATOM     11  N   UNL     1      30.998 -11.639 -20.985  0.00  0.00    -0.335 N 
ATOM     12  H   UNL     1      30.604 -10.765 -21.207  0.00  0.00    +0.144 HD
ATOM     13  H   UNL     1      30.714 -12.117 -20.172  0.00  0.00    +0.144 HD
ENDROOT
BRANCH   4  14
ATOM     14  N   UNL     1      34.459 -18.306 -21.990  0.00  0.00    +0.386 N 
ATOM     15  C   UNL     1      35.214 -19.361 -21.326  0.00  0.00    -0.105 C 
ATOM     16  H   UNL     1      34.650 -18.337 -22.990  0.00  0.00    -0.084 HD
ATOM     17  H   UNL     1      33.466 -18.455 -21.810  0.00  0.00    -0.084 HD
ENDBRANCH   4  14
BRANCH   9  18
ATOM     18  C   UNL     1      33.726 -11.430 -24.943  0.00  0.00    +0.125 C 
BRANCH  18  19
ATOM     19  C   UNL     1      34.975 -10.549 -24.741  0.00  0.00    +0.017 C 
ATOM     20  C   UNL     1      35.714 -10.291 -26.056  0.00  0.00    +0.001 C 
ATOM     21  C   UNL     1      34.572  -9.216 -24.106  0.00  0.00    +0.001 C 
ENDBRANCH  18  19
ENDBRANCH   9  18
TORSDOF 3
ENDMDL
MODEL 7
REMARK VINA RESULT:      -7.5      6.351     10.638
REMARK  Name = 44126305
REMARK  3 active torsions:
REMARK  status: ('A' for Active; 'I' for Inactive)
REMARK    1  A    between atoms: C_4  and  N_11
REMARK    2  A    between atoms: C_9  and  C_18
REMARK    3  A    between atoms: C_18  and  C_19
REMARK                            x       y       z     vdW  Elec       q    Type
REMARK                         _______ _______ _______ _____ _____    ______ ____
ROOT
ATOM      1  N   UNL     1      34.268 -15.260 -23.333  0.00  0.00    -0.290 N 
ATOM      2  N   UNL     1      34.982 -17.143 -22.086  0.00  0.00    -0.333 NA
ATOM      3  N   UNL     1      35.102 -19.302 -23.150  0.00  0.00    -0.333 NA
ATOM      4  C   UNL     1      33.908 -13.255 -23.467  0.00  0.00    -0.022 C 
ATOM      5  C   UNL     1      34.339 -14.224 -22.362  0.00  0.00    +0.073 C 
ATOM      6  C   UNL     1      33.533 -14.497 -24.283  0.00  0.00    +0.073 C 
ATOM      7  C   UNL     1      34.555 -16.631 -23.259  0.00  0.00    +0.181 C 
ATOM      8  C   UNL     1      34.378 -17.380 -24.404  0.00  0.00    +0.151 C 
ATOM      9  C   UNL     1      35.233 -18.466 -22.102  0.00  0.00    +0.116 C 
ATOM     10  C   UNL     1      34.671 -18.724 -24.290  0.00  0.00    +0.175 C 
ATOM     11  N   UNL     1      34.505 -19.529 -25.443  0.00  0.00    -0.335 N 
ATOM     12  H   UNL     1      34.702 -20.492 -25.403  0.00  0.00    +0.144 HD
ATOM     13  H   UNL     1      34.191 -19.124 -26.284  0.00  0.00    +0.144 HD
ENDROOT
BRANCH   4  14
ATOM     14  N   UNL     1      32.691 -12.569 -23.055  0.00  0.00    +0.386 N 
ATOM     15  C   UNL     1      32.815 -11.130 -23.244  0.00  0.00    -0.105 C 
ATOM     16  H   UNL     1      32.517 -12.763 -22.069  0.00  0.00    -0.084 HD
ATOM     17  H   UNL     1      31.918 -12.907 -23.628  0.00  0.00    -0.084 HD
ENDBRANCH   4  14
BRANCH   9  18
ATOM     18  C   UNL     1      35.714 -19.076 -20.808  0.00  0.00    +0.125 C 
BRANCH  18  19
ATOM     19  C   UNL     1      35.201 -20.509 -20.566  0.00  0.00    +0.017 C 
ATOM     20  C   UNL     1      36.011 -21.235 -19.490  0.00  0.00    +0.001 C 
ATOM     21  C   UNL     1      33.726 -20.470 -20.161  0.00  0.00    +0.001 C 
ENDBRANCH  18  19
ENDBRANCH   9  18
TORSDOF 3
ENDMDL
MODEL 8
REMARK VINA RESULT:      -7.2      2.891      7.203
REMARK  Name = 44126305
REMARK  3 active torsions:
REMARK  status: ('A' for Active; 'I' for Inactive)
REMARK    1  A    between atoms: C_4  and  N_11
REMARK    2  A    between atoms: C_9  and  C_18
REMARK    3  A    between atoms: C_18  and  C_19
REMARK                            x       y       z     vdW  Elec       q    Type
REMARK                         _______ _______ _______ _____ _____    ______ ____
ROOT
ATOM      1  N   UNL     1      35.385 -20.110 -20.560  0.00  0.00    -0.290 N 
ATOM      2  N   UNL     1      36.364 -21.108 -18.648  0.00  0.00    -0.333 NA
ATOM      3  N   UNL     1      35.153 -22.801 -17.433  0.00  0.00    -0.333 NA
ATOM      4  C   UNL     1      35.500 -18.833 -22.148  0.00  0.00    -0.022 C 
ATOM      5  C   UNL     1      36.398 -19.196 -20.962  0.00  0.00    +0.073 C 
ATOM      6  C   UNL     1      34.378 -19.568 -21.406  0.00  0.00    +0.073 C 
ATOM      7  C   UNL     1      35.318 -21.020 -19.495  0.00  0.00    +0.181 C 
ATOM      8  C   UNL     1      34.170 -21.778 -19.377  0.00  0.00    +0.151 C 
ATOM      9  C   UNL     1      36.217 -22.006 -17.654  0.00  0.00    +0.116 C 
ATOM     10  C   UNL     1      34.143 -22.660 -18.317  0.00  0.00    +0.175 C 
ATOM     11  N   UNL     1      32.983 -23.458 -18.161  0.00  0.00    -0.335 N 
ATOM     12  H   UNL     1      32.924 -24.100 -17.417  0.00  0.00    +0.144 HD
ATOM     13  H   UNL     1      32.237 -23.369 -18.797  0.00  0.00    +0.144 HD
ENDROOT
BRANCH   4  14
ATOM     14  N   UNL     1      35.230 -17.402 -22.124  0.00  0.00    +0.386 N 
ATOM     15  C   UNL     1      35.192 -16.856 -23.474  0.00  0.00    -0.105 C 
ATOM     16  H   UNL     1      35.965 -16.933 -21.595  0.00  0.00    -0.084 HD
ATOM     17  H   UNL     1      34.322 -17.250 -21.686  0.00  0.00    -0.084 HD
ENDBRANCH   4  14
BRANCH   9  18
ATOM     18  C   UNL     1      37.367 -22.134 -16.686  0.00  0.00    +0.125 C 
BRANCH  18  19
ATOM     19  C   UNL     1      37.216 -23.299 -15.689  0.00  0.00    +0.017 C 
ATOM     20  C   UNL     1      38.544 -24.020 -15.442  0.00  0.00    +0.001 C 
ATOM     21  C   UNL     1      36.659 -22.778 -14.362  0.00  0.00    +0.001 C 
ENDBRANCH  18  19
ENDBRANCH   9  18
TORSDOF 3
ENDMDL
MODEL 9
REMARK VINA RESULT:      -7.1      1.805      6.032
REMARK  Name = 44126305
REMARK  3 active torsions:
REMARK  status: ('A' for Active; 'I' for Inactive)
REMARK    1  A    between atoms: C_4  and  N_11
REMARK    2  A    between atoms: C_9  and  C_18
REMARK    3  A    between atoms: C_18  and  C_19
REMARK                            x       y       z     vdW  Elec       q    Type
REMARK                         _______ _______ _______ _____ _____    ______ ____
ROOT
ATOM      1  N   UNL     1      34.893 -21.970 -18.645  0.00  0.00    -0.290 N 
ATOM      2  N   UNL     1      35.271 -23.092 -16.593  0.00  0.00    -0.333 NA
ATOM      3  N   UNL     1      33.405 -23.996 -15.366  0.00  0.00    -0.333 NA
ATOM      4  C   UNL     1      35.608 -21.021 -20.305  0.00  0.00    -0.022 C 
ATOM      5  C   UNL     1      36.214 -21.607 -19.026  0.00  0.00    +0.073 C 
ATOM      6  C   UNL     1      34.248 -21.145 -19.608  0.00  0.00    +0.073 C 
ATOM      7  C   UNL     1      34.400 -22.660 -17.528  0.00  0.00    +0.181 C 
ATOM      8  C   UNL     1      33.035 -22.855 -17.452  0.00  0.00    +0.151 C 
ATOM      9  C   UNL     1      34.714 -23.743 -15.554  0.00  0.00    +0.116 C 
ATOM     10  C   UNL     1      32.590 -23.536 -16.338  0.00  0.00    +0.175 C 
ATOM     11  N   UNL     1      31.196 -23.759 -16.222  0.00  0.00    -0.335 N 
ATOM     12  H   UNL     1      30.838 -24.240 -15.442  0.00  0.00    +0.144 HD
ATOM     13  H   UNL     1      30.587 -23.430 -16.922  0.00  0.00    +0.144 HD
ENDROOT
BRANCH   4  14
ATOM     14  N   UNL     1      35.967 -19.613 -20.404  0.00  0.00    +0.386 N 
ATOM     15  C   UNL     1      35.632 -19.081 -21.719  0.00  0.00    -0.105 C 
ATOM     16  H   UNL     1      36.969 -19.514 -20.249  0.00  0.00    -0.084 HD
ATOM     17  H   UNL     1      35.442 -19.094 -19.700  0.00  0.00    -0.084 HD
ENDBRANCH   4  14
BRANCH   9  18
ATOM     18  C   UNL     1      35.658 -24.243 -14.488  0.00  0.00    +0.125 C 
BRANCH  18  19
ATOM     19  C   UNL     1      36.906 -24.955 -15.045  0.00  0.00    +0.017 C 
ATOM     20  C   UNL     1      38.143 -24.709 -14.178  0.00  0.00    +0.001 C 
ATOM     21  C   UNL     1      36.642 -26.459 -15.148  0.00  0.00    +0.001 C 
ENDBRANCH  18  19
ENDBRANCH   9  18
TORSDOF 3
ENDMDL
