MODEL 1
REMARK VINA RESULT:      -5.0      0.000      0.000
REMARK  Name = 6971019
REMARK  4 active torsions:
REMARK  status: ('A' for Active; 'I' for Inactive)
REMARK    1  A    between atoms: CA_1  and  N_2
REMARK    2  A    between atoms: CA_1  and  C_8
REMARK    3  A    between atoms: CA_1  and  CB_9
REMARK    4  A    between atoms: CB_9  and  OG1_11
REMARK                            x       y       z     vdW  Elec       q    Type
REMARK                         _______ _______ _______ _____ _____    ______ ____
ROOT
ATOM      1  CA  THR A   1      38.785 -25.673 -14.523  0.00  0.00    +0.068 C 
ENDROOT
BRANCH   1   2
ATOM      2  N   THR A   1      38.608 -25.964 -13.065  0.00  0.00    +0.390 N 
ATOM      3  H1  THR A   1      37.678 -26.352 -12.906  0.00  0.00    -0.088 HD
ATOM      4  H2  THR A   1      38.712 -25.101 -12.531  0.00  0.00    -0.088 HD
ATOM      5  H3  THR A   1      39.313 -26.636 -12.763  0.00  0.00    -0.088 HD
ENDBRANCH   1   2
BRANCH   1   8
ATOM      6  O   THR A   1      40.660 -26.115 -15.937  0.00  0.00    -0.248 OA
ATOM      7  OXT THR A   1      40.920 -24.729 -14.145  0.00  0.00    -0.248 OA
ATOM      8  C   THR A   1      40.267 -25.498 -14.910  0.00  0.00    +0.347 C 
ENDBRANCH   1   8
BRANCH   1   9
ATOM      9  CB  THR A   1      37.865 -24.502 -14.903  0.00  0.00    +0.101 C 
ATOM     10  CG2 THR A   1      37.306 -23.747 -13.701  0.00  0.00    +0.030 C 
BRANCH   9  11
ATOM     11  OG1 THR A   1      38.584 -23.586 -15.728  0.00  0.00    -0.386 OA
ATOM     12  HG1 THR A   1      39.518 -23.849 -15.766  0.00  0.00    +0.210 HD
ENDBRANCH   9  11
ENDBRANCH   1   9
TORSDOF 4
ENDMDL
MODEL 2
REMARK VINA RESULT:      -4.8      1.961      2.194
REMARK  Name = 6971019
REMARK  4 active torsions:
REMARK  status: ('A' for Active; 'I' for Inactive)
REMARK    1  A    between atoms: CA_1  and  N_2
REMARK    2  A    between atoms: CA_1  and  C_8
REMARK    3  A    between atoms: CA_1  and  CB_9
REMARK    4  A    between atoms: CB_9  and  OG1_11
REMARK                            x       y       z     vdW  Elec       q    Type
REMARK                         _______ _______ _______ _____ _____    ______ ____
ROOT
ATOM      1  CA  THR A   1      38.625 -24.928 -14.624  0.00  0.00    +0.068 C 
ENDROOT
BRANCH   1   2
ATOM      2  N   THR A   1      38.465 -23.912 -15.714  0.00  0.00    +0.390 N 
ATOM      3  H1  THR A   1      37.828 -23.178 -15.404  0.00  0.00    -0.088 HD
ATOM      4  H2  THR A   1      38.084 -24.364 -16.545  0.00  0.00    -0.088 HD
ATOM      5  H3  THR A   1      39.373 -23.504 -15.935  0.00  0.00    -0.088 HD
ENDBRANCH   1   2
BRANCH   1   8
ATOM      6  O   THR A   1      41.012 -24.816 -14.637  0.00  0.00    -0.248 OA
ATOM      7  OXT THR A   1      39.994 -26.856 -14.642  0.00  0.00    -0.248 OA
ATOM      8  C   THR A   1      40.017 -25.591 -14.641  0.00  0.00    +0.347 C 
ENDBRANCH   1   8
BRANCH   1   9
ATOM      9  CB  THR A   1      37.436 -25.899 -14.683  0.00  0.00    +0.101 C 
ATOM     10  CG2 THR A   1      36.076 -25.207 -14.637  0.00  0.00    +0.030 C 
BRANCH   9  11
ATOM     11  OG1 THR A   1      37.517 -26.672 -15.880  0.00  0.00    -0.386 OA
ATOM     12  HG1 THR A   1      36.818 -26.395 -16.493  0.00  0.00    +0.210 HD
ENDBRANCH   9  11
ENDBRANCH   1   9
TORSDOF 4
ENDMDL
MODEL 3
REMARK VINA RESULT:      -4.7      3.889      4.953
REMARK  Name = 6971019
REMARK  4 active torsions:
REMARK  status: ('A' for Active; 'I' for Inactive)
REMARK    1  A    between atoms: CA_1  and  N_2
REMARK    2  A    between atoms: CA_1  and  C_8
REMARK    3  A    between atoms: CA_1  and  CB_9
REMARK    4  A    between atoms: CB_9  and  OG1_11
REMARK                            x       y       z     vdW  Elec       q    Type
REMARK                         _______ _______ _______ _____ _____    ______ ____
ROOT
ATOM      1  CA  THR A   1      36.985 -24.147 -12.176  0.00  0.00    +0.068 C 
ENDROOT
BRANCH   1   2
ATOM      2  N   THR A   1      38.259 -23.608 -11.601  0.00  0.00    +0.390 N 
ATOM      3  H1  THR A   1      38.043 -22.876 -10.924  0.00  0.00    -0.088 HD
ATOM      4  H2  THR A   1      38.832 -23.220 -12.350  0.00  0.00    -0.088 HD
ATOM      5  H3  THR A   1      38.768 -24.361 -11.138  0.00  0.00    -0.088 HD
ENDBRANCH   1   2
BRANCH   1   8
ATOM      6  O   THR A   1      36.194 -24.165  -9.921  0.00  0.00    -0.248 OA
ATOM      7  OXT THR A   1      34.688 -24.274 -11.630  0.00  0.00    -0.248 OA
ATOM      8  C   THR A   1      35.850 -24.206 -11.134  0.00  0.00    +0.347 C 
ENDBRANCH   1   8
BRANCH   1   9
ATOM      9  CB  THR A   1      37.294 -25.475 -12.885  0.00  0.00    +0.101 C 
ATOM     10  CG2 THR A   1      38.771 -25.664 -13.219  0.00  0.00    +0.030 C 
BRANCH   9  11
ATOM     11  OG1 THR A   1      36.866 -26.560 -12.062  0.00  0.00    -0.386 OA
ATOM     12  HG1 THR A   1      36.278 -26.226 -11.366  0.00  0.00    +0.210 HD
ENDBRANCH   9  11
ENDBRANCH   1   9
TORSDOF 4
ENDMDL
MODEL 4
REMARK VINA RESULT:      -4.7      9.290     10.740
REMARK  Name = 6971019
REMARK  4 active torsions:
REMARK  status: ('A' for Active; 'I' for Inactive)
REMARK    1  A    between atoms: CA_1  and  N_2
REMARK    2  A    between atoms: CA_1  and  C_8
REMARK    3  A    between atoms: CA_1  and  CB_9
REMARK    4  A    between atoms: CB_9  and  OG1_11
REMARK                            x       y       z     vdW  Elec       q    Type
REMARK                         _______ _______ _______ _____ _____    ______ ____
ROOT
ATOM      1  CA  THR A   1      28.830 -23.181 -15.699  0.00  0.00    +0.068 C 
ENDROOT
BRANCH   1   2
ATOM      2  N   THR A   1      28.789 -24.627 -15.311  0.00  0.00    +0.390 N 
ATOM      3  H1  THR A   1      27.831 -24.891 -15.081  0.00  0.00    -0.088 HD
ATOM      4  H2  THR A   1      29.387 -24.778 -14.499  0.00  0.00    -0.088 HD
ATOM      5  H3  THR A   1      29.122 -25.198 -16.088  0.00  0.00    -0.088 HD
ENDBRANCH   1   2
BRANCH   1   8
ATOM      6  O   THR A   1      27.540 -21.684 -17.041  0.00  0.00    -0.248 OA
ATOM      7  OXT THR A   1      27.706 -23.872 -17.662  0.00  0.00    -0.248 OA
ATOM      8  C   THR A   1      27.933 -22.875 -16.915  0.00  0.00    +0.347 C 
ENDBRANCH   1   8
BRANCH   1   9
ATOM      9  CB  THR A   1      30.299 -22.756 -15.845  0.00  0.00    +0.101 C 
ATOM     10  CG2 THR A   1      31.295 -23.862 -15.505  0.00  0.00    +0.030 C 
BRANCH   9  11
ATOM     11  OG1 THR A   1      30.534 -22.323 -17.184  0.00  0.00    -0.386 OA
ATOM     12  HG1 THR A   1      29.714 -22.399 -17.697  0.00  0.00    +0.210 HD
ENDBRANCH   9  11
ENDBRANCH   1   9
TORSDOF 4
ENDMDL
MODEL 5
REMARK VINA RESULT:      -4.5      9.561     10.023
REMARK  Name = 6971019
REMARK  4 active torsions:
REMARK  status: ('A' for Active; 'I' for Inactive)
REMARK    1  A    between atoms: CA_1  and  N_2
REMARK    2  A    between atoms: CA_1  and  C_8
REMARK    3  A    between atoms: CA_1  and  CB_9
REMARK    4  A    between atoms: CB_9  and  OG1_11
REMARK                            x       y       z     vdW  Elec       q    Type
REMARK                         _______ _______ _______ _____ _____    ______ ____
ROOT
ATOM      1  CA  THR A   1      41.912 -15.304 -17.004  0.00  0.00    +0.068 C 
ENDROOT
BRANCH   1   2
ATOM      2  N   THR A   1      41.079 -14.327 -17.775  0.00  0.00    +0.390 N 
ATOM      3  H1  THR A   1      40.512 -14.829 -18.459  0.00  0.00    -0.088 HD
ATOM      4  H2  THR A   1      41.688 -13.667 -18.256  0.00  0.00    -0.088 HD
ATOM      5  H3  THR A   1      40.469 -13.820 -17.133  0.00  0.00    -0.088 HD
ENDBRANCH   1   2
BRANCH   1   8
ATOM      6  O   THR A   1      41.975 -17.693 -17.044  0.00  0.00    -0.248 OA
ATOM      7  OXT THR A   1      42.274 -16.540 -18.988  0.00  0.00    -0.248 OA
ATOM      8  C   THR A   1      42.073 -16.648 -17.743  0.00  0.00    +0.347 C 
ENDBRANCH   1   8
BRANCH   1   9
ATOM      9  CB  THR A   1      41.353 -15.404 -15.576  0.00  0.00    +0.101 C 
ATOM     10  CG2 THR A   1      40.968 -14.056 -14.972  0.00  0.00    +0.030 C 
BRANCH   9  11
ATOM     11  OG1 THR A   1      40.205 -16.252 -15.578  0.00  0.00    -0.386 OA
ATOM     12  HG1 THR A   1      40.058 -16.600 -14.684  0.00  0.00    +0.210 HD
ENDBRANCH   9  11
ENDBRANCH   1   9
TORSDOF 4
ENDMDL
MODEL 6
REMARK VINA RESULT:      -4.4      2.416      2.755
REMARK  Name = 6971019
REMARK  4 active torsions:
REMARK  status: ('A' for Active; 'I' for Inactive)
REMARK    1  A    between atoms: CA_1  and  N_2
REMARK    2  A    between atoms: CA_1  and  C_8
REMARK    3  A    between atoms: CA_1  and  CB_9
REMARK    4  A    between atoms: CB_9  and  OG1_11
REMARK                            x       y       z     vdW  Elec       q    Type
REMARK                         _______ _______ _______ _____ _____    ______ ____
ROOT
ATOM      1  CA  THR A   1      36.334 -25.550 -14.772  0.00  0.00    +0.068 C 
ENDROOT
BRANCH   1   2
ATOM      2  N   THR A   1      36.185 -25.534 -13.281  0.00  0.00    +0.390 N 
ATOM      3  H1  THR A   1      35.373 -24.972 -13.027  0.00  0.00    -0.088 HD
ATOM      4  H2  THR A   1      37.022 -25.132 -12.861  0.00  0.00    -0.088 HD
ATOM      5  H3  THR A   1      36.059 -26.488 -12.942  0.00  0.00    -0.088 HD
ENDBRANCH   1   2
BRANCH   1   8
ATOM      6  O   THR A   1      36.663 -27.368 -16.287  0.00  0.00    -0.248 OA
ATOM      7  OXT THR A   1      38.155 -27.048 -14.592  0.00  0.00    -0.248 OA
ATOM      8  C   THR A   1      37.120 -26.780 -15.269  0.00  0.00    +0.347 C 
ENDBRANCH   1   8
BRANCH   1   9
ATOM      9  CB  THR A   1      36.892 -24.191 -15.221  0.00  0.00    +0.101 C 
ATOM     10  CG2 THR A   1      36.027 -23.004 -14.803  0.00  0.00    +0.030 C 
BRANCH   9  11
ATOM     11  OG1 THR A   1      38.202 -24.017 -14.682  0.00  0.00    -0.386 OA
ATOM     12  HG1 THR A   1      38.639 -24.880 -14.610  0.00  0.00    +0.210 HD
ENDBRANCH   9  11
ENDBRANCH   1   9
TORSDOF 4
ENDMDL
MODEL 7
REMARK VINA RESULT:      -4.4      3.082      3.768
REMARK  Name = 6971019
REMARK  4 active torsions:
REMARK  status: ('A' for Active; 'I' for Inactive)
REMARK    1  A    between atoms: CA_1  and  N_2
REMARK    2  A    between atoms: CA_1  and  C_8
REMARK    3  A    between atoms: CA_1  and  CB_9
REMARK    4  A    between atoms: CB_9  and  OG1_11
REMARK                            x       y       z     vdW  Elec       q    Type
REMARK                         _______ _______ _______ _____ _____    ______ ____
ROOT
ATOM      1  CA  THR A   1      37.884 -24.491 -13.233  0.00  0.00    +0.068 C 
ENDROOT
BRANCH   1   2
ATOM      2  N   THR A   1      39.158 -25.270 -13.346  0.00  0.00    +0.390 N 
ATOM      3  H1  THR A   1      38.946 -26.230 -13.619  0.00  0.00    -0.088 HD
ATOM      4  H2  THR A   1      39.636 -25.271 -12.446  0.00  0.00    -0.088 HD
ATOM      5  H3  THR A   1      39.758 -24.840 -14.050  0.00  0.00    -0.088 HD
ENDBRANCH   1   2
BRANCH   1   8
ATOM      6  O   THR A   1      38.231 -22.503 -11.953  0.00  0.00    -0.248 OA
ATOM      7  OXT THR A   1      37.291 -24.323 -10.950  0.00  0.00    -0.248 OA
ATOM      8  C   THR A   1      37.802 -23.689 -11.919  0.00  0.00    +0.347 C 
ENDBRANCH   1   8
BRANCH   1   9
ATOM      9  CB  THR A   1      36.705 -25.441 -13.496  0.00  0.00    +0.101 C 
ATOM     10  CG2 THR A   1      36.575 -25.869 -14.955  0.00  0.00    +0.030 C 
BRANCH   9  11
ATOM     11  OG1 THR A   1      36.850 -26.607 -12.686  0.00  0.00    -0.386 OA
ATOM     12  HG1 THR A   1      37.786 -26.731 -12.462  0.00  0.00    +0.210 HD
ENDBRANCH   9  11
ENDBRANCH   1   9
TORSDOF 4
ENDMDL
MODEL 8
REMARK VINA RESULT:      -4.4      9.631     10.610
REMARK  Name = 6971019
REMARK  4 active torsions:
REMARK  status: ('A' for Active; 'I' for Inactive)
REMARK    1  A    between atoms: CA_1  and  N_2
REMARK    2  A    between atoms: CA_1  and  C_8
REMARK    3  A    between atoms: CA_1  and  CB_9
REMARK    4  A    between atoms: CB_9  and  OG1_11
REMARK                            x       y       z     vdW  Elec       q    Type
REMARK                         _______ _______ _______ _____ _____    ______ ____
ROOT
ATOM      1  CA  THR A   1      29.591 -23.926 -15.887  0.00  0.00    +0.068 C 
ENDROOT
BRANCH   1   2
ATOM      2  N   THR A   1      30.168 -22.760 -15.144  0.00  0.00    +0.390 N 
ATOM      3  H1  THR A   1      29.649 -21.915 -15.383  0.00  0.00    -0.088 HD
ATOM      4  H2  THR A   1      31.147 -22.643 -15.403  0.00  0.00    -0.088 HD
ATOM      5  H3  THR A   1      30.100 -22.929 -14.141  0.00  0.00    -0.088 HD
ENDBRANCH   1   2
BRANCH   1   8
ATOM      6  O   THR A   1      27.825 -24.197 -17.475  0.00  0.00    -0.248 OA
ATOM      7  OXT THR A   1      27.471 -22.912 -15.625  0.00  0.00    -0.248 OA
ATOM      8  C   THR A   1      28.158 -23.652 -16.387  0.00  0.00    +0.347 C 
ENDBRANCH   1   8
BRANCH   1   9
ATOM      9  CB  THR A   1      29.754 -25.185 -15.022  0.00  0.00    +0.101 C 
ATOM     10  CG2 THR A   1      30.878 -25.083 -13.995  0.00  0.00    +0.030 C 
BRANCH   9  11
ATOM     11  OG1 THR A   1      28.529 -25.449 -14.338  0.00  0.00    -0.386 OA
ATOM     12  HG1 THR A   1      27.973 -26.029 -14.882  0.00  0.00    +0.210 HD
ENDBRANCH   9  11
ENDBRANCH   1   9
TORSDOF 4
ENDMDL
MODEL 9
REMARK VINA RESULT:      -4.4     10.189     10.598
REMARK  Name = 6971019
REMARK  4 active torsions:
REMARK  status: ('A' for Active; 'I' for Inactive)
REMARK    1  A    between atoms: CA_1  and  N_2
REMARK    2  A    between atoms: CA_1  and  C_8
REMARK    3  A    between atoms: CA_1  and  CB_9
REMARK    4  A    between atoms: CB_9  and  OG1_11
REMARK                            x       y       z     vdW  Elec       q    Type
REMARK                         _______ _______ _______ _____ _____    ______ ____
ROOT
ATOM      1  CA  THR A   1      41.283 -15.137 -16.350  0.00  0.00    +0.068 C 
ENDROOT
BRANCH   1   2
ATOM      2  N   THR A   1      40.398 -15.301 -15.153  0.00  0.00    +0.390 N 
ATOM      3  H1  THR A   1      40.954 -15.205 -14.303  0.00  0.00    -0.088 HD
ATOM      4  H2  THR A   1      39.966 -16.225 -15.174  0.00  0.00    -0.088 HD
ATOM      5  H3  THR A   1      39.670 -14.586 -15.167  0.00  0.00    -0.088 HD
ENDBRANCH   1   2
BRANCH   1   8
ATOM      6  O   THR A   1      41.538 -17.427 -16.985  0.00  0.00    -0.248 OA
ATOM      7  OXT THR A   1      43.389 -16.209 -16.442  0.00  0.00    -0.248 OA
ATOM      8  C   THR A   1      42.147 -16.386 -16.616  0.00  0.00    +0.347 C 
ENDBRANCH   1   8
BRANCH   1   9
ATOM      9  CB  THR A   1      42.061 -13.820 -16.204  0.00  0.00    +0.101 C 
ATOM     10  CG2 THR A   1      42.029 -12.946 -17.455  0.00  0.00    +0.030 C 
BRANCH   9  11
ATOM     11  OG1 THR A   1      41.528 -13.076 -15.109  0.00  0.00    -0.386 OA
ATOM     12  HG1 THR A   1      40.895 -12.420 -15.442  0.00  0.00    +0.210 HD
ENDBRANCH   9  11
ENDBRANCH   1   9
TORSDOF 4
ENDMDL
