MODEL 1
REMARK VINA RESULT:      -6.9      0.000      0.000
REMARK  Name = 854498
REMARK  3 active torsions:
REMARK  status: ('A' for Active; 'I' for Inactive)
REMARK    1  A    between atoms: C_1  and  C_8
REMARK    2  A    between atoms: C_4  and  O_13
REMARK    3  A    between atoms: C_8  and  O_11
REMARK                            x       y       z     vdW  Elec       q    Type
REMARK                         _______ _______ _______ _____ _____    ______ ____
ROOT
ATOM      1  C   UNL     1      34.996 -19.561 -21.744  0.00  0.00    +0.032 C 
ATOM      2  C   UNL     1      35.881 -19.755 -20.506  0.00  0.00    +0.036 C 
ATOM      3  C   UNL     1      33.517 -19.495 -21.331  0.00  0.00    +0.028 C 
ATOM      4  C   UNL     1      35.513 -21.042 -19.754  0.00  0.00    +0.129 C 
ATOM      5  C   UNL     1      34.026 -21.260 -19.619  0.00  0.00    -0.022 C 
ATOM      6  C   UNL     1      33.136 -20.540 -20.324  0.00  0.00    -0.032 C 
ATOM      7  C   UNL     1      33.589 -22.316 -18.645  0.00  0.00    +0.028 C 
ENDROOT
BRANCH   1   8
ATOM      8  C   UNL     1      35.397 -18.308 -22.519  0.00  0.00    +0.089 C 
ATOM      9  C   UNL     1      34.913 -17.046 -21.805  0.00  0.00    +0.029 C 
ATOM     10  C   UNL     1      34.853 -18.361 -23.945  0.00  0.00    +0.029 C 
BRANCH   8  11
ATOM     11  O   UNL     1      36.822 -18.262 -22.604  0.00  0.00    -0.387 OA
ATOM     12  H   UNL     1      37.129 -18.926 -23.241  0.00  0.00    +0.210 HD
ENDBRANCH   8  11
ENDBRANCH   1   8
BRANCH   4  13
ATOM     13  O   UNL     1      36.063 -22.168 -20.438  0.00  0.00    -0.380 OA
ATOM     14  H   UNL     1      36.800 -22.531 -19.922  0.00  0.00    +0.211 HD
ENDBRANCH   4  13
TORSDOF 3
ENDMDL
MODEL 2
REMARK VINA RESULT:      -6.8      1.634      4.981
REMARK  Name = 854498
REMARK  3 active torsions:
REMARK  status: ('A' for Active; 'I' for Inactive)
REMARK    1  A    between atoms: C_1  and  C_8
REMARK    2  A    between atoms: C_4  and  O_13
REMARK    3  A    between atoms: C_8  and  O_11
REMARK                            x       y       z     vdW  Elec       q    Type
REMARK                         _______ _______ _______ _____ _____    ______ ____
ROOT
ATOM      1  C   UNL     1      34.172 -21.683 -18.737  0.00  0.00    +0.032 C 
ATOM      2  C   UNL     1      35.357 -22.017 -19.653  0.00  0.00    +0.036 C 
ATOM      3  C   UNL     1      32.999 -21.137 -19.568  0.00  0.00    +0.028 C 
ATOM      4  C   UNL     1      35.826 -20.779 -20.430  0.00  0.00    +0.129 C 
ATOM      5  C   UNL     1      34.697 -19.948 -20.986  0.00  0.00    -0.022 C 
ATOM      6  C   UNL     1      33.422 -20.135 -20.602  0.00  0.00    -0.032 C 
ATOM      7  C   UNL     1      35.067 -18.908 -22.004  0.00  0.00    +0.028 C 
ENDROOT
BRANCH   1   8
ATOM      8  C   UNL     1      33.739 -22.903 -17.928  0.00  0.00    +0.089 C 
ATOM      9  C   UNL     1      32.304 -22.744 -17.425  0.00  0.00    +0.029 C 
ATOM     10  C   UNL     1      34.694 -23.140 -16.760  0.00  0.00    +0.029 C 
BRANCH   8  11
ATOM     11  O   UNL     1      33.799 -24.054 -18.772  0.00  0.00    -0.387 OA
ATOM     12  H   UNL     1      34.716 -24.366 -18.829  0.00  0.00    +0.210 HD
ENDBRANCH   8  11
ENDBRANCH   1   8
BRANCH   4  13
ATOM     13  O   UNL     1      36.605 -19.945 -19.572  0.00  0.00    -0.380 OA
ATOM     14  H   UNL     1      36.027 -19.301 -19.135  0.00  0.00    +0.211 HD
ENDBRANCH   4  13
TORSDOF 3
ENDMDL
MODEL 3
REMARK VINA RESULT:      -6.6      2.765      5.618
REMARK  Name = 854498
REMARK  3 active torsions:
REMARK  status: ('A' for Active; 'I' for Inactive)
REMARK    1  A    between atoms: C_1  and  C_8
REMARK    2  A    between atoms: C_4  and  O_13
REMARK    3  A    between atoms: C_8  and  O_11
REMARK                            x       y       z     vdW  Elec       q    Type
REMARK                         _______ _______ _______ _____ _____    ______ ____
ROOT
ATOM      1  C   UNL     1      34.641 -16.506 -22.516  0.00  0.00    +0.032 C 
ATOM      2  C   UNL     1      33.812 -15.782 -23.584  0.00  0.00    +0.036 C 
ATOM      3  C   UNL     1      33.821 -16.656 -21.223  0.00  0.00    +0.028 C 
ATOM      4  C   UNL     1      33.375 -14.391 -23.103  0.00  0.00    +0.129 C 
ATOM      5  C   UNL     1      32.889 -14.369 -21.675  0.00  0.00    -0.022 C 
ATOM      6  C   UNL     1      33.080 -15.408 -20.844  0.00  0.00    -0.032 C 
ATOM      7  C   UNL     1      32.165 -13.130 -21.232  0.00  0.00    +0.028 C 
ENDROOT
BRANCH   1   8
ATOM      8  C   UNL     1      35.116 -17.868 -23.015  0.00  0.00    +0.089 C 
ATOM      9  C   UNL     1      34.786 -18.052 -24.497  0.00  0.00    +0.029 C 
ATOM     10  C   UNL     1      34.498 -18.991 -22.185  0.00  0.00    +0.029 C 
BRANCH   8  11
ATOM     11  O   UNL     1      36.532 -17.944 -22.854  0.00  0.00    -0.387 OA
ATOM     12  H   UNL     1      36.920 -18.411 -23.611  0.00  0.00    +0.210 HD
ENDBRANCH   8  11
ENDBRANCH   1   8
BRANCH   4  13
ATOM     13  O   UNL     1      34.473 -13.484 -23.207  0.00  0.00    -0.380 OA
ATOM     14  H   UNL     1      34.644 -13.290 -24.142  0.00  0.00    +0.211 HD
ENDBRANCH   4  13
TORSDOF 3
ENDMDL
MODEL 4
REMARK VINA RESULT:      -6.5      3.503      5.287
REMARK  Name = 854498
REMARK  3 active torsions:
REMARK  status: ('A' for Active; 'I' for Inactive)
REMARK    1  A    between atoms: C_1  and  C_8
REMARK    2  A    between atoms: C_4  and  O_13
REMARK    3  A    between atoms: C_8  and  O_11
REMARK                            x       y       z     vdW  Elec       q    Type
REMARK                         _______ _______ _______ _____ _____    ______ ____
ROOT
ATOM      1  C   UNL     1      34.211 -14.642 -22.904  0.00  0.00    +0.032 C 
ATOM      2  C   UNL     1      33.348 -15.281 -21.810  0.00  0.00    +0.036 C 
ATOM      3  C   UNL     1      34.747 -15.725 -23.855  0.00  0.00    +0.028 C 
ATOM      4  C   UNL     1      34.148 -16.310 -20.998  0.00  0.00    +0.129 C 
ATOM      5  C   UNL     1      35.019 -17.205 -21.845  0.00  0.00    -0.022 C 
ATOM      6  C   UNL     1      35.264 -16.938 -23.140  0.00  0.00    -0.032 C 
ATOM      7  C   UNL     1      35.587 -18.420 -21.170  0.00  0.00    +0.028 C 
ENDROOT
BRANCH   1   8
ATOM      8  C   UNL     1      33.428 -13.584 -23.677  0.00  0.00    +0.089 C 
ATOM      9  C   UNL     1      32.225 -13.096 -22.870  0.00  0.00    +0.029 C 
ATOM     10  C   UNL     1      32.979 -14.129 -25.031  0.00  0.00    +0.029 C 
BRANCH   8  11
ATOM     11  O   UNL     1      34.288 -12.471 -23.927  0.00  0.00    -0.387 OA
ATOM     12  H   UNL     1      34.791 -12.265 -23.123  0.00  0.00    +0.210 HD
ENDBRANCH   8  11
ENDBRANCH   1   8
BRANCH   4  13
ATOM     13  O   UNL     1      34.989 -15.631 -20.066  0.00  0.00    -0.380 OA
ATOM     14  H   UNL     1      35.830 -15.405 -20.494  0.00  0.00    +0.211 HD
ENDBRANCH   4  13
TORSDOF 3
ENDMDL
MODEL 5
REMARK VINA RESULT:      -6.5      2.732      5.676
REMARK  Name = 854498
REMARK  3 active torsions:
REMARK  status: ('A' for Active; 'I' for Inactive)
REMARK    1  A    between atoms: C_1  and  C_8
REMARK    2  A    between atoms: C_4  and  O_13
REMARK    3  A    between atoms: C_8  and  O_11
REMARK                            x       y       z     vdW  Elec       q    Type
REMARK                         _______ _______ _______ _____ _____    ______ ____
ROOT
ATOM      1  C   UNL     1      35.006 -16.930 -22.770  0.00  0.00    +0.032 C 
ATOM      2  C   UNL     1      34.357 -17.754 -23.889  0.00  0.00    +0.036 C 
ATOM      3  C   UNL     1      34.127 -15.715 -22.430  0.00  0.00    +0.028 C 
ATOM      4  C   UNL     1      34.155 -16.911 -25.156  0.00  0.00    +0.129 C 
ATOM      5  C   UNL     1      33.628 -15.524 -24.884  0.00  0.00    -0.022 C 
ATOM      6  C   UNL     1      33.603 -15.005 -23.644  0.00  0.00    -0.032 C 
ATOM      7  C   UNL     1      33.118 -14.756 -26.068  0.00  0.00    +0.028 C 
ENDROOT
BRANCH   1   8
ATOM      8  C   UNL     1      35.252 -17.783 -21.528  0.00  0.00    +0.089 C 
ATOM      9  C   UNL     1      36.545 -18.588 -21.665  0.00  0.00    +0.029 C 
ATOM     10  C   UNL     1      34.068 -18.712 -21.271  0.00  0.00    +0.029 C 
BRANCH   8  11
ATOM     11  O   UNL     1      35.374 -16.919 -20.398  0.00  0.00    -0.387 OA
ATOM     12  H   UNL     1      34.794 -17.234 -19.686  0.00  0.00    +0.210 HD
ENDBRANCH   8  11
ENDBRANCH   1   8
BRANCH   4  13
ATOM     13  O   UNL     1      35.398 -16.782 -25.846  0.00  0.00    -0.380 OA
ATOM     14  H   UNL     1      35.282 -16.207 -26.618  0.00  0.00    +0.211 HD
ENDBRANCH   4  13
TORSDOF 3
ENDMDL
MODEL 6
REMARK VINA RESULT:      -6.3      3.728      4.962
REMARK  Name = 854498
REMARK  3 active torsions:
REMARK  status: ('A' for Active; 'I' for Inactive)
REMARK    1  A    between atoms: C_1  and  C_8
REMARK    2  A    between atoms: C_4  and  O_13
REMARK    3  A    between atoms: C_8  and  O_11
REMARK                            x       y       z     vdW  Elec       q    Type
REMARK                         _______ _______ _______ _____ _____    ______ ____
ROOT
ATOM      1  C   UNL     1      33.934 -16.164 -22.784  0.00  0.00    +0.032 C 
ATOM      2  C   UNL     1      34.891 -16.072 -23.979  0.00  0.00    +0.036 C 
ATOM      3  C   UNL     1      34.293 -17.378 -21.911  0.00  0.00    +0.028 C 
ATOM      4  C   UNL     1      34.833 -17.343 -24.839  0.00  0.00    +0.129 C 
ATOM      5  C   UNL     1      34.805 -18.618 -24.034  0.00  0.00    -0.022 C 
ATOM      6  C   UNL     1      34.580 -18.616 -22.708  0.00  0.00    -0.032 C 
ATOM      7  C   UNL     1      35.057 -19.892 -24.787  0.00  0.00    +0.028 C 
ENDROOT
BRANCH   1   8
ATOM      8  C   UNL     1      33.956 -14.880 -21.959  0.00  0.00    +0.089 C 
ATOM      9  C   UNL     1      34.552 -15.130 -20.574  0.00  0.00    +0.029 C 
ATOM     10  C   UNL     1      32.550 -14.293 -21.840  0.00  0.00    +0.029 C 
BRANCH   8  11
ATOM     11  O   UNL     1      34.766 -13.918 -22.635  0.00  0.00    -0.387 OA
ATOM     12  H   UNL     1      35.478 -14.373 -23.112  0.00  0.00    +0.210 HD
ENDBRANCH   8  11
ENDBRANCH   1   8
BRANCH   4  13
ATOM     13  O   UNL     1      33.663 -17.312 -25.656  0.00  0.00    -0.380 OA
ATOM     14  H   UNL     1      33.469 -18.207 -25.977  0.00  0.00    +0.211 HD
ENDBRANCH   4  13
TORSDOF 3
ENDMDL
MODEL 7
REMARK VINA RESULT:      -6.3      7.592      8.958
REMARK  Name = 854498
REMARK  3 active torsions:
REMARK  status: ('A' for Active; 'I' for Inactive)
REMARK    1  A    between atoms: C_1  and  C_8
REMARK    2  A    between atoms: C_4  and  O_13
REMARK    3  A    between atoms: C_8  and  O_11
REMARK                            x       y       z     vdW  Elec       q    Type
REMARK                         _______ _______ _______ _____ _____    ______ ____
ROOT
ATOM      1  C   UNL     1      29.773 -23.292 -15.278  0.00  0.00    +0.032 C 
ATOM      2  C   UNL     1      29.915 -24.779 -14.928  0.00  0.00    +0.036 C 
ATOM      3  C   UNL     1      31.093 -22.757 -15.856  0.00  0.00    +0.028 C 
ATOM      4  C   UNL     1      31.039 -25.007 -13.907  0.00  0.00    +0.129 C 
ATOM      5  C   UNL     1      32.288 -24.211 -14.193  0.00  0.00    -0.022 C 
ATOM      6  C   UNL     1      32.302 -23.210 -15.092  0.00  0.00    -0.032 C 
ATOM      7  C   UNL     1      33.522 -24.603 -13.433  0.00  0.00    +0.028 C 
ENDROOT
BRANCH   1   8
ATOM      8  C   UNL     1      28.623 -23.063 -16.254  0.00  0.00    +0.089 C 
ATOM      9  C   UNL     1      27.440 -22.390 -15.557  0.00  0.00    +0.029 C 
ATOM     10  C   UNL     1      28.190 -24.380 -16.894  0.00  0.00    +0.029 C 
BRANCH   8  11
ATOM     11  O   UNL     1      29.078 -22.206 -17.302  0.00  0.00    -0.387 OA
ATOM     12  H   UNL     1      28.380 -21.570 -17.526  0.00  0.00    +0.210 HD
ENDBRANCH   8  11
ENDBRANCH   1   8
BRANCH   4  13
ATOM     13  O   UNL     1      30.578 -24.649 -12.604  0.00  0.00    -0.380 OA
ATOM     14  H   UNL     1      29.678 -24.985 -12.476  0.00  0.00    +0.211 HD
ENDBRANCH   4  13
TORSDOF 3
ENDMDL
MODEL 8
REMARK VINA RESULT:      -6.3      2.714      5.642
REMARK  Name = 854498
REMARK  3 active torsions:
REMARK  status: ('A' for Active; 'I' for Inactive)
REMARK    1  A    between atoms: C_1  and  C_8
REMARK    2  A    between atoms: C_4  and  O_13
REMARK    3  A    between atoms: C_8  and  O_11
REMARK                            x       y       z     vdW  Elec       q    Type
REMARK                         _______ _______ _______ _____ _____    ______ ____
ROOT
ATOM      1  C   UNL     1      34.200 -17.135 -22.008  0.00  0.00    +0.032 C 
ATOM      2  C   UNL     1      34.617 -16.019 -21.041  0.00  0.00    +0.036 C 
ATOM      3  C   UNL     1      34.655 -16.794 -23.436  0.00  0.00    +0.028 C 
ATOM      4  C   UNL     1      34.011 -14.670 -21.453  0.00  0.00    +0.129 C 
ATOM      5  C   UNL     1      34.078 -14.402 -22.936  0.00  0.00    -0.022 C 
ATOM      6  C   UNL     1      34.391 -15.368 -23.818  0.00  0.00    -0.032 C 
ATOM      7  C   UNL     1      33.794 -12.996 -23.377  0.00  0.00    +0.028 C 
ENDROOT
BRANCH   1   8
ATOM      8  C   UNL     1      34.762 -18.484 -21.568  0.00  0.00    +0.089 C 
ATOM      9  C   UNL     1      35.354 -19.243 -22.756  0.00  0.00    +0.029 C 
ATOM     10  C   UNL     1      33.682 -19.319 -20.883  0.00  0.00    +0.029 C 
BRANCH   8  11
ATOM     11  O   UNL     1      35.799 -18.257 -20.614  0.00  0.00    -0.387 OA
ATOM     12  H   UNL     1      36.442 -18.983 -20.656  0.00  0.00    +0.210 HD
ENDBRANCH   8  11
ENDBRANCH   1   8
BRANCH   4  13
ATOM     13  O   UNL     1      32.639 -14.624 -21.060  0.00  0.00    -0.380 OA
ATOM     14  H   UNL     1      32.226 -15.485 -21.227  0.00  0.00    +0.211 HD
ENDBRANCH   4  13
TORSDOF 3
ENDMDL
MODEL 9
REMARK VINA RESULT:      -6.3      2.983      4.703
REMARK  Name = 854498
REMARK  3 active torsions:
REMARK  status: ('A' for Active; 'I' for Inactive)
REMARK    1  A    between atoms: C_1  and  C_8
REMARK    2  A    between atoms: C_4  and  O_13
REMARK    3  A    between atoms: C_8  and  O_11
REMARK                            x       y       z     vdW  Elec       q    Type
REMARK                         _______ _______ _______ _____ _____    ______ ____
ROOT
ATOM      1  C   UNL     1      33.817 -15.536 -22.862  0.00  0.00    +0.032 C 
ATOM      2  C   UNL     1      34.994 -16.103 -23.666  0.00  0.00    +0.036 C 
ATOM      3  C   UNL     1      34.183 -15.463 -21.371  0.00  0.00    +0.028 C 
ATOM      4  C   UNL     1      35.380 -17.506 -23.176  0.00  0.00    +0.129 C 
ATOM      5  C   UNL     1      35.404 -17.636 -21.673  0.00  0.00    -0.022 C 
ATOM      6  C   UNL     1      34.877 -16.695 -20.870  0.00  0.00    -0.032 C 
ATOM      7  C   UNL     1      36.062 -18.866 -21.117  0.00  0.00    +0.028 C 
ENDROOT
BRANCH   1   8
ATOM      8  C   UNL     1      33.402 -14.163 -23.385  0.00  0.00    +0.089 C 
ATOM      9  C   UNL     1      32.286 -13.566 -22.527  0.00  0.00    +0.029 C 
ATOM     10  C   UNL     1      32.966 -14.253 -24.845  0.00  0.00    +0.029 C 
BRANCH   8  11
ATOM     11  O   UNL     1      34.533 -13.292 -23.327  0.00  0.00    -0.387 OA
ATOM     12  H   UNL     1      34.446 -12.605 -24.006  0.00  0.00    +0.210 HD
ENDBRANCH   8  11
ENDBRANCH   1   8
BRANCH   4  13
ATOM     13  O   UNL     1      34.451 -18.461 -23.685  0.00  0.00    -0.380 OA
ATOM     14  H   UNL     1      34.289 -18.286 -24.625  0.00  0.00    +0.211 HD
ENDBRANCH   4  13
TORSDOF 3
ENDMDL
