MODEL 1
REMARK VINA RESULT:     -10.1      0.000      0.000
REMARK  Name = 16040268
REMARK  5 active torsions:
REMARK  status: ('A' for Active; 'I' for Inactive)
REMARK    1  A    between atoms: C_3  and  C_20
REMARK    2  A    between atoms: C_7  and  C_19
REMARK    3  A    between atoms: C_9  and  C_12
REMARK    4  A    between atoms: C_20  and  C_21
REMARK    5  A    between atoms: C_26  and  C_28
REMARK                            x       y       z     vdW  Elec       q    Type
REMARK                         _______ _______ _______ _____ _____    ______ ____
ROOT
ATOM      1  O   UNL     1      33.739 -15.821 -26.325  0.00  0.00    -0.270 OA
ATOM      2  N   UNL     1      33.271 -13.852 -25.140  0.00  0.00    -0.275 N 
ATOM      3  C   UNL     1      33.339 -13.392 -23.774  0.00  0.00    +0.093 C 
ATOM      4  C   UNL     1      34.221 -12.147 -23.913  0.00  0.00    +0.025 C 
ATOM      5  C   UNL     1      33.783 -11.567 -25.268  0.00  0.00    +0.024 C 
ATOM      6  C   UNL     1      33.458 -12.797 -26.118  0.00  0.00    +0.094 C 
ATOM      7  C   UNL     1      33.927 -14.605 -23.107  0.00  0.00    +0.067 C 
ATOM      8  C   UNL     1      33.647 -15.175 -25.295  0.00  0.00    +0.250 C 
ATOM      9  C   UNL     1      34.039 -15.660 -23.939  0.00  0.00    +0.061 C 
ENDROOT
BRANCH   9  12
ATOM     10 CL   UNL     1      36.441 -18.875 -20.659  0.00  0.00    -0.082 Cl
ATOM     11 CL   UNL     1      34.755 -20.547 -25.507  0.00  0.00    -0.082 Cl
ATOM     12  C   UNL     1      34.554 -16.999 -23.655  0.00  0.00    +0.006 C 
ATOM     13  C   UNL     1      34.426 -18.021 -24.604  0.00  0.00    +0.012 C 
ATOM     14  C   UNL     1      35.181 -17.272 -22.434  0.00  0.00    +0.012 C 
ATOM     15  C   UNL     1      35.672 -18.549 -22.165  0.00  0.00    +0.059 C 
ATOM     16  C   UNL     1      34.917 -19.298 -24.334  0.00  0.00    +0.059 C 
ATOM     17  C   UNL     1      35.541 -19.562 -23.115  0.00  0.00    +0.023 C 
ENDBRANCH   9  12
BRANCH   7  19
ATOM     18  N   UNL     1      34.618 -14.630 -20.621  0.00  0.00    -0.191 NA
ATOM     19  C   UNL     1      34.307 -14.619 -21.738  0.00  0.00    +0.098 C 
ENDBRANCH   7  19
BRANCH   3  20
ATOM     20  C   UNL     1      31.942 -13.071 -23.229  0.00  0.00    +0.049 C 
BRANCH  20  21
ATOM     21  C   UNL     1      31.947 -11.860 -22.353  0.00  0.00    -0.020 C 
ATOM     22  C   UNL     1      31.926 -12.003 -20.967  0.00  0.00    -0.004 C 
ATOM     23  C   UNL     1      31.971 -10.590 -22.926  0.00  0.00    -0.004 C 
ATOM     24  C   UNL     1      31.931 -10.871 -20.151  0.00  0.00    +0.010 C 
ATOM     25  C   UNL     1      31.976  -9.458 -22.110  0.00  0.00    +0.010 C 
ATOM     26  C   UNL     1      31.955  -9.600 -20.723  0.00  0.00    +0.068 C 
BRANCH  26  28
ATOM     27  N   UNL     1      31.962  -7.496 -19.206  0.00  0.00    -0.191 NA
ATOM     28  C   UNL     1      31.959  -8.440 -19.886  0.00  0.00    +0.100 C 
ENDBRANCH  26  28
ENDBRANCH  20  21
ENDBRANCH   3  20
TORSDOF 5
ENDMDL
MODEL 2
REMARK VINA RESULT:      -9.5      3.946      8.283
REMARK  Name = 16040268
REMARK  5 active torsions:
REMARK  status: ('A' for Active; 'I' for Inactive)
REMARK    1  A    between atoms: C_3  and  C_20
REMARK    2  A    between atoms: C_7  and  C_19
REMARK    3  A    between atoms: C_9  and  C_12
REMARK    4  A    between atoms: C_20  and  C_21
REMARK    5  A    between atoms: C_26  and  C_28
REMARK                            x       y       z     vdW  Elec       q    Type
REMARK                         _______ _______ _______ _____ _____    ______ ____
ROOT
ATOM      1  O   UNL     1      34.690 -15.784 -19.892  0.00  0.00    -0.270 OA
ATOM      2  N   UNL     1      35.258 -17.670 -21.165  0.00  0.00    -0.275 N 
ATOM      3  C   UNL     1      35.195 -18.077 -22.548  0.00  0.00    +0.093 C 
ATOM      4  C   UNL     1      36.657 -18.444 -22.825  0.00  0.00    +0.025 C 
ATOM      5  C   UNL     1      37.113 -19.067 -21.495  0.00  0.00    +0.024 C 
ATOM      6  C   UNL     1      36.350 -18.279 -20.429  0.00  0.00    +0.094 C 
ATOM      7  C   UNL     1      34.648 -16.825 -23.176  0.00  0.00    +0.067 C 
ATOM      8  C   UNL     1      34.731 -16.411 -20.938  0.00  0.00    +0.250 C 
ATOM      9  C   UNL     1      34.303 -15.890 -22.269  0.00  0.00    +0.061 C 
ENDROOT
BRANCH   9  12
ATOM     10 CL   UNL     1      31.076 -12.135 -20.735  0.00  0.00    -0.082 Cl
ATOM     11 CL   UNL     1      34.101 -11.603 -25.174  0.00  0.00    -0.082 Cl
ATOM     12  C   UNL     1      33.736 -14.561 -22.495  0.00  0.00    +0.006 C 
ATOM     13  C   UNL     1      34.140 -13.799 -23.599  0.00  0.00    +0.012 C 
ATOM     14  C   UNL     1      32.785 -14.037 -21.612  0.00  0.00    +0.012 C 
ATOM     15  C   UNL     1      32.245 -12.770 -21.828  0.00  0.00    +0.059 C 
ATOM     16  C   UNL     1      33.599 -12.532 -23.814  0.00  0.00    +0.059 C 
ATOM     17  C   UNL     1      32.652 -12.017 -22.930  0.00  0.00    +0.023 C 
ENDBRANCH   9  12
BRANCH   7  19
ATOM     18  N   UNL     1      34.391 -16.544 -25.729  0.00  0.00    -0.191 NA
ATOM     19  C   UNL     1      34.507 -16.671 -24.582  0.00  0.00    +0.098 C 
ENDBRANCH   7  19
BRANCH   3  20
ATOM     20  C   UNL     1      34.241 -19.264 -22.732  0.00  0.00    +0.049 C 
BRANCH  20  21
ATOM     21  C   UNL     1      34.174 -20.124 -21.511  0.00  0.00    -0.020 C 
ATOM     22  C   UNL     1      33.068 -20.047 -20.666  0.00  0.00    -0.004 C 
ATOM     23  C   UNL     1      35.218 -21.000 -21.222  0.00  0.00    -0.004 C 
ATOM     24  C   UNL     1      33.007 -20.850 -19.527  0.00  0.00    +0.010 C 
ATOM     25  C   UNL     1      35.156 -21.803 -20.083  0.00  0.00    +0.010 C 
ATOM     26  C   UNL     1      34.051 -21.727 -19.235  0.00  0.00    +0.068 C 
BRANCH  26  28
ATOM     27  N   UNL     1      33.937 -23.219 -17.117  0.00  0.00    -0.191 NA
ATOM     28  C   UNL     1      33.988 -22.549 -18.068  0.00  0.00    +0.100 C 
ENDBRANCH  26  28
ENDBRANCH  20  21
ENDBRANCH   3  20
TORSDOF 5
ENDMDL
MODEL 3
REMARK VINA RESULT:      -9.5      3.948      8.377
REMARK  Name = 16040268
REMARK  5 active torsions:
REMARK  status: ('A' for Active; 'I' for Inactive)
REMARK    1  A    between atoms: C_3  and  C_20
REMARK    2  A    between atoms: C_7  and  C_19
REMARK    3  A    between atoms: C_9  and  C_12
REMARK    4  A    between atoms: C_20  and  C_21
REMARK    5  A    between atoms: C_26  and  C_28
REMARK                            x       y       z     vdW  Elec       q    Type
REMARK                         _______ _______ _______ _____ _____    ______ ____
ROOT
ATOM      1  O   UNL     1      34.680 -15.785 -19.894  0.00  0.00    -0.270 OA
ATOM      2  N   UNL     1      35.249 -17.671 -21.166  0.00  0.00    -0.275 N 
ATOM      3  C   UNL     1      35.189 -18.079 -22.548  0.00  0.00    +0.093 C 
ATOM      4  C   UNL     1      36.651 -18.445 -22.824  0.00  0.00    +0.025 C 
ATOM      5  C   UNL     1      37.105 -19.068 -21.493  0.00  0.00    +0.024 C 
ATOM      6  C   UNL     1      36.340 -18.280 -20.428  0.00  0.00    +0.094 C 
ATOM      7  C   UNL     1      34.643 -16.827 -23.178  0.00  0.00    +0.067 C 
ATOM      8  C   UNL     1      34.722 -16.412 -20.939  0.00  0.00    +0.250 C 
ATOM      9  C   UNL     1      34.296 -15.891 -22.271  0.00  0.00    +0.061 C 
ENDROOT
BRANCH   9  12
ATOM     10 CL   UNL     1      34.088 -11.606 -25.179  0.00  0.00    -0.082 Cl
ATOM     11 CL   UNL     1      31.078 -12.133 -20.731  0.00  0.00    -0.082 Cl
ATOM     12  C   UNL     1      33.730 -14.562 -22.498  0.00  0.00    +0.006 C 
ATOM     13  C   UNL     1      32.782 -14.038 -21.610  0.00  0.00    +0.012 C 
ATOM     14  C   UNL     1      34.130 -13.801 -23.602  0.00  0.00    +0.012 C 
ATOM     15  C   UNL     1      33.590 -12.534 -23.817  0.00  0.00    +0.059 C 
ATOM     16  C   UNL     1      32.242 -12.769 -21.827  0.00  0.00    +0.059 C 
ATOM     17  C   UNL     1      32.646 -12.018 -22.929  0.00  0.00    +0.023 C 
ENDBRANCH   9  12
BRANCH   7  19
ATOM     18  N   UNL     1      34.389 -16.547 -25.731  0.00  0.00    -0.191 NA
ATOM     19  C   UNL     1      34.503 -16.672 -24.584  0.00  0.00    +0.098 C 
ENDBRANCH   7  19
BRANCH   3  20
ATOM     20  C   UNL     1      34.235 -19.265 -22.734  0.00  0.00    +0.049 C 
BRANCH  20  21
ATOM     21  C   UNL     1      34.170 -20.128 -21.515  0.00  0.00    -0.020 C 
ATOM     22  C   UNL     1      35.214 -21.006 -21.227  0.00  0.00    -0.004 C 
ATOM     23  C   UNL     1      33.064 -20.053 -20.671  0.00  0.00    -0.004 C 
ATOM     24  C   UNL     1      35.151 -21.810 -20.089  0.00  0.00    +0.010 C 
ATOM     25  C   UNL     1      33.002 -20.857 -19.533  0.00  0.00    +0.010 C 
ATOM     26  C   UNL     1      34.045 -21.736 -19.242  0.00  0.00    +0.068 C 
BRANCH  26  28
ATOM     27  N   UNL     1      33.929 -23.232 -17.128  0.00  0.00    -0.191 NA
ATOM     28  C   UNL     1      33.981 -22.561 -18.077  0.00  0.00    +0.100 C 
ENDBRANCH  26  28
ENDBRANCH  20  21
ENDBRANCH   3  20
TORSDOF 5
ENDMDL
MODEL 4
REMARK VINA RESULT:      -9.1      3.532      7.883
REMARK  Name = 16040268
REMARK  5 active torsions:
REMARK  status: ('A' for Active; 'I' for Inactive)
REMARK    1  A    between atoms: C_3  and  C_20
REMARK    2  A    between atoms: C_7  and  C_19
REMARK    3  A    between atoms: C_9  and  C_12
REMARK    4  A    between atoms: C_20  and  C_21
REMARK    5  A    between atoms: C_26  and  C_28
REMARK                            x       y       z     vdW  Elec       q    Type
REMARK                         _______ _______ _______ _____ _____    ______ ____
ROOT
ATOM      1  O   UNL     1      34.477 -15.064 -25.891  0.00  0.00    -0.270 OA
ATOM      2  N   UNL     1      34.746 -16.962 -24.540  0.00  0.00    -0.275 N 
ATOM      3  C   UNL     1      34.549 -17.317 -23.156  0.00  0.00    +0.093 C 
ATOM      4  C   UNL     1      33.614 -18.525 -23.280  0.00  0.00    +0.025 C 
ATOM      5  C   UNL     1      34.123 -19.223 -24.552  0.00  0.00    +0.024 C 
ATOM      6  C   UNL     1      34.578 -18.075 -25.455  0.00  0.00    +0.094 C 
ATOM      7  C   UNL     1      33.977 -16.033 -22.623  0.00  0.00    +0.067 C 
ATOM      8  C   UNL     1      34.455 -15.638 -24.815  0.00  0.00    +0.250 C 
ATOM      9  C   UNL     1      33.987 -15.037 -23.532  0.00  0.00    +0.061 C 
ENDROOT
BRANCH   9  12
ATOM     10 CL   UNL     1      34.519 -10.032 -24.771  0.00  0.00    -0.082 Cl
ATOM     11 CL   UNL     1      30.655 -11.695 -21.389  0.00  0.00    -0.082 Cl
ATOM     12  C   UNL     1      33.524 -13.657 -23.383  0.00  0.00    +0.006 C 
ATOM     13  C   UNL     1      32.435 -13.363 -22.553  0.00  0.00    +0.012 C 
ATOM     14  C   UNL     1      34.165 -12.618 -24.067  0.00  0.00    +0.012 C 
ATOM     15  C   UNL     1      33.724 -11.303 -23.924  0.00  0.00    +0.059 C 
ATOM     16  C   UNL     1      31.994 -12.047 -22.411  0.00  0.00    +0.059 C 
ATOM     17  C   UNL     1      32.639 -11.017 -23.096  0.00  0.00    +0.023 C 
ENDBRANCH   9  12
BRANCH   7  19
ATOM     18  N   UNL     1      33.101 -15.792 -20.208  0.00  0.00    -0.191 NA
ATOM     19  C   UNL     1      33.494 -15.900 -21.293  0.00  0.00    +0.098 C 
ENDBRANCH   7  19
BRANCH   3  20
ATOM     20  C   UNL     1      35.881 -17.665 -22.479  0.00  0.00    +0.049 C 
BRANCH  20  21
ATOM     21  C   UNL     1      35.734 -18.778 -21.492  0.00  0.00    -0.020 C 
ATOM     22  C   UNL     1      34.464 -19.226 -21.132  0.00  0.00    -0.004 C 
ATOM     23  C   UNL     1      36.868 -19.364 -20.934  0.00  0.00    -0.004 C 
ATOM     24  C   UNL     1      34.329 -20.264 -20.211  0.00  0.00    +0.010 C 
ATOM     25  C   UNL     1      36.732 -20.403 -20.013  0.00  0.00    +0.010 C 
ATOM     26  C   UNL     1      35.462 -20.852 -19.651  0.00  0.00    +0.068 C 
BRANCH  26  28
ATOM     27  N   UNL     1      35.210 -22.782 -17.938  0.00  0.00    -0.191 NA
ATOM     28  C   UNL     1      35.323 -21.916 -18.707  0.00  0.00    +0.100 C 
ENDBRANCH  26  28
ENDBRANCH  20  21
ENDBRANCH   3  20
TORSDOF 5
ENDMDL
MODEL 5
REMARK VINA RESULT:      -9.1      3.527      7.819
REMARK  Name = 16040268
REMARK  5 active torsions:
REMARK  status: ('A' for Active; 'I' for Inactive)
REMARK    1  A    between atoms: C_3  and  C_20
REMARK    2  A    between atoms: C_7  and  C_19
REMARK    3  A    between atoms: C_9  and  C_12
REMARK    4  A    between atoms: C_20  and  C_21
REMARK    5  A    between atoms: C_26  and  C_28
REMARK                            x       y       z     vdW  Elec       q    Type
REMARK                         _______ _______ _______ _____ _____    ______ ____
ROOT
ATOM      1  O   UNL     1      34.508 -14.886 -25.874  0.00  0.00    -0.270 OA
ATOM      2  N   UNL     1      34.761 -16.800 -24.543  0.00  0.00    -0.275 N 
ATOM      3  C   UNL     1      34.539 -17.176 -23.168  0.00  0.00    +0.093 C 
ATOM      4  C   UNL     1      33.614 -18.387 -23.327  0.00  0.00    +0.025 C 
ATOM      5  C   UNL     1      34.152 -19.065 -24.598  0.00  0.00    +0.024 C 
ATOM      6  C   UNL     1      34.618 -17.902 -25.477  0.00  0.00    +0.094 C 
ATOM      7  C   UNL     1      33.949 -15.902 -22.629  0.00  0.00    +0.067 C 
ATOM      8  C   UNL     1      34.468 -15.474 -24.806  0.00  0.00    +0.250 C 
ATOM      9  C   UNL     1      33.971 -14.893 -23.524  0.00  0.00    +0.061 C 
ENDROOT
BRANCH   9  12
ATOM     10 CL   UNL     1      30.580 -11.596 -21.405  0.00  0.00    -0.082 Cl
ATOM     11 CL   UNL     1      34.499  -9.872 -24.691  0.00  0.00    -0.082 Cl
ATOM     12  C   UNL     1      33.498 -13.519 -23.366  0.00  0.00    +0.006 C 
ATOM     13  C   UNL     1      34.147 -12.468 -24.026  0.00  0.00    +0.012 C 
ATOM     14  C   UNL     1      32.392 -13.240 -22.555  0.00  0.00    +0.012 C 
ATOM     15  C   UNL     1      31.940 -11.929 -22.405  0.00  0.00    +0.059 C 
ATOM     16  C   UNL     1      33.695 -11.157 -23.876  0.00  0.00    +0.059 C 
ATOM     17  C   UNL     1      32.592 -10.887 -23.066  0.00  0.00    +0.023 C 
ENDBRANCH   9  12
BRANCH   7  19
ATOM     18  N   UNL     1      33.023 -15.700 -20.229  0.00  0.00    -0.191 NA
ATOM     19  C   UNL     1      33.439 -15.790 -21.308  0.00  0.00    +0.098 C 
ENDBRANCH   7  19
BRANCH   3  20
ATOM     20  C   UNL     1      35.859 -17.525 -22.470  0.00  0.00    +0.049 C 
BRANCH  20  21
ATOM     21  C   UNL     1      35.704 -18.667 -21.517  0.00  0.00    -0.020 C 
ATOM     22  C   UNL     1      36.833 -19.311 -21.014  0.00  0.00    -0.004 C 
ATOM     23  C   UNL     1      34.430 -19.084 -21.136  0.00  0.00    -0.004 C 
ATOM     24  C   UNL     1      36.686 -20.376 -20.125  0.00  0.00    +0.010 C 
ATOM     25  C   UNL     1      34.285 -20.149 -20.247  0.00  0.00    +0.010 C 
ATOM     26  C   UNL     1      35.413 -20.795 -19.742  0.00  0.00    +0.068 C 
BRANCH  26  28
ATOM     27  N   UNL     1      35.141 -22.776 -18.091  0.00  0.00    -0.191 NA
ATOM     28  C   UNL     1      35.263 -21.887 -18.832  0.00  0.00    +0.100 C 
ENDBRANCH  26  28
ENDBRANCH  20  21
ENDBRANCH   3  20
TORSDOF 5
ENDMDL
MODEL 6
REMARK VINA RESULT:      -8.9      6.158      9.582
REMARK  Name = 16040268
REMARK  5 active torsions:
REMARK  status: ('A' for Active; 'I' for Inactive)
REMARK    1  A    between atoms: C_3  and  C_20
REMARK    2  A    between atoms: C_7  and  C_19
REMARK    3  A    between atoms: C_9  and  C_12
REMARK    4  A    between atoms: C_20  and  C_21
REMARK    5  A    between atoms: C_26  and  C_28
REMARK                            x       y       z     vdW  Elec       q    Type
REMARK                         _______ _______ _______ _____ _____    ______ ____
ROOT
ATOM      1  O   UNL     1      31.622  -4.438 -23.275  0.00  0.00    -0.270 OA
ATOM      2  N   UNL     1      31.710  -6.564 -22.290  0.00  0.00    -0.275 N 
ATOM      3  C   UNL     1      32.293  -7.850 -22.587  0.00  0.00    +0.093 C 
ATOM      4  C   UNL     1      33.119  -8.111 -21.323  0.00  0.00    +0.025 C 
ATOM      5  C   UNL     1      32.242  -7.511 -20.211  0.00  0.00    +0.024 C 
ATOM      6  C   UNL     1      31.573  -6.302 -20.870  0.00  0.00    +0.094 C 
ATOM      7  C   UNL     1      33.029  -7.528 -23.858  0.00  0.00    +0.067 C 
ATOM      8  C   UNL     1      31.942  -5.615 -23.269  0.00  0.00    +0.250 C 
ATOM      9  C   UNL     1      32.781  -6.282 -24.308  0.00  0.00    +0.061 C 
ENDROOT
BRANCH   9  12
ATOM     10 CL   UNL     1      36.826  -5.216 -27.368  0.00  0.00    -0.082 Cl
ATOM     11 CL   UNL     1      31.891  -3.330 -28.474  0.00  0.00    -0.082 Cl
ATOM     12  C   UNL     1      33.303  -5.618 -25.502  0.00  0.00    +0.006 C 
ATOM     13  C   UNL     1      32.449  -4.875 -26.327  0.00  0.00    +0.012 C 
ATOM     14  C   UNL     1      34.659  -5.719 -25.832  0.00  0.00    +0.012 C 
ATOM     15  C   UNL     1      35.156  -5.086 -26.971  0.00  0.00    +0.059 C 
ATOM     16  C   UNL     1      32.947  -4.242 -27.466  0.00  0.00    +0.059 C 
ATOM     17  C   UNL     1      34.300  -4.347 -27.788  0.00  0.00    +0.023 C 
ENDBRANCH   9  12
BRANCH   7  19
ATOM     18  N   UNL     1      34.580  -9.220 -25.038  0.00  0.00    -0.191 NA
ATOM     19  C   UNL     1      33.883  -8.460 -24.508  0.00  0.00    +0.098 C 
ENDBRANCH   7  19
BRANCH   3  20
ATOM     20  C   UNL     1      31.208  -8.910 -22.817  0.00  0.00    +0.049 C 
BRANCH  20  21
ATOM     21  C   UNL     1      31.609 -10.247 -22.281  0.00  0.00    -0.020 C 
ATOM     22  C   UNL     1      32.369 -11.112 -23.067  0.00  0.00    -0.004 C 
ATOM     23  C   UNL     1      31.221 -10.625 -20.998  0.00  0.00    -0.004 C 
ATOM     24  C   UNL     1      32.742 -12.359 -22.566  0.00  0.00    +0.010 C 
ATOM     25  C   UNL     1      31.595 -11.872 -20.497  0.00  0.00    +0.010 C 
ATOM     26  C   UNL     1      32.355 -12.739 -21.282  0.00  0.00    +0.068 C 
BRANCH  26  28
ATOM     27  N   UNL     1      33.048 -15.059 -20.352  0.00  0.00    -0.191 NA
ATOM     28  C   UNL     1      32.737 -14.018 -20.770  0.00  0.00    +0.100 C 
ENDBRANCH  26  28
ENDBRANCH  20  21
ENDBRANCH   3  20
TORSDOF 5
ENDMDL
MODEL 7
REMARK VINA RESULT:      -8.1      8.442     12.296
REMARK  Name = 16040268
REMARK  5 active torsions:
REMARK  status: ('A' for Active; 'I' for Inactive)
REMARK    1  A    between atoms: C_3  and  C_20
REMARK    2  A    between atoms: C_7  and  C_19
REMARK    3  A    between atoms: C_9  and  C_12
REMARK    4  A    between atoms: C_20  and  C_21
REMARK    5  A    between atoms: C_26  and  C_28
REMARK                            x       y       z     vdW  Elec       q    Type
REMARK                         _______ _______ _______ _____ _____    ______ ____
ROOT
ATOM      1  O   UNL     1      37.937 -21.462 -16.864  0.00  0.00    -0.270 OA
ATOM      2  N   UNL     1      36.704 -22.941 -15.525  0.00  0.00    -0.275 N 
ATOM      3  C   UNL     1      35.390 -23.537 -15.531  0.00  0.00    +0.093 C 
ATOM      4  C   UNL     1      35.731 -25.030 -15.468  0.00  0.00    +0.025 C 
ATOM      5  C   UNL     1      36.969 -25.061 -14.556  0.00  0.00    +0.024 C 
ATOM      6  C   UNL     1      37.714 -23.766 -14.888  0.00  0.00    +0.094 C 
ATOM      7  C   UNL     1      34.849 -22.990 -16.823  0.00  0.00    +0.067 C 
ATOM      8  C   UNL     1      36.919 -22.071 -16.579  0.00  0.00    +0.250 C 
ATOM      9  C   UNL     1      35.672 -22.090 -17.398  0.00  0.00    +0.061 C 
ENDROOT
BRANCH   9  12
ATOM     10 CL   UNL     1      37.763 -19.343 -21.264  0.00  0.00    -0.082 Cl
ATOM     11 CL   UNL     1      32.461 -20.332 -21.067  0.00  0.00    -0.082 Cl
ATOM     12  C   UNL     1      35.488 -21.346 -18.644  0.00  0.00    +0.006 C 
ATOM     13  C   UNL     1      34.210 -21.208 -19.201  0.00  0.00    +0.012 C 
ATOM     14  C   UNL     1      36.584 -20.764 -19.289  0.00  0.00    +0.012 C 
ATOM     15  C   UNL     1      36.408 -20.054 -20.477  0.00  0.00    +0.059 C 
ATOM     16  C   UNL     1      34.035 -20.497 -20.389  0.00  0.00    +0.059 C 
ATOM     17  C   UNL     1      35.133 -19.921 -21.027  0.00  0.00    +0.023 C 
ENDBRANCH   9  12
BRANCH   7  19
ATOM     18  N   UNL     1      32.567 -23.705 -17.793  0.00  0.00    -0.191 NA
ATOM     19  C   UNL     1      33.592 -23.384 -17.357  0.00  0.00    +0.098 C 
ENDBRANCH   7  19
BRANCH   3  20
ATOM     20  C   UNL     1      34.564 -23.066 -14.329  0.00  0.00    +0.049 C 
BRANCH  20  21
ATOM     21  C   UNL     1      33.149 -23.544 -14.399  0.00  0.00    -0.020 C 
ATOM     22  C   UNL     1      32.122 -22.642 -14.673  0.00  0.00    -0.004 C 
ATOM     23  C   UNL     1      32.861 -24.891 -14.189  0.00  0.00    -0.004 C 
ATOM     24  C   UNL     1      30.803 -23.090 -14.738  0.00  0.00    +0.010 C 
ATOM     25  C   UNL     1      31.541 -25.339 -14.254  0.00  0.00    +0.010 C 
ATOM     26  C   UNL     1      30.513 -24.438 -14.528  0.00  0.00    +0.068 C 
BRANCH  26  28
ATOM     27  N   UNL     1      28.059 -25.269 -14.647  0.00  0.00    -0.191 NA
ATOM     28  C   UNL     1      29.160 -24.896 -14.594  0.00  0.00    +0.100 C 
ENDBRANCH  26  28
ENDBRANCH  20  21
ENDBRANCH   3  20
TORSDOF 5
ENDMDL
MODEL 8
REMARK VINA RESULT:      -8.1      3.648      7.752
REMARK  Name = 16040268
REMARK  5 active torsions:
REMARK  status: ('A' for Active; 'I' for Inactive)
REMARK    1  A    between atoms: C_3  and  C_20
REMARK    2  A    between atoms: C_7  and  C_19
REMARK    3  A    between atoms: C_9  and  C_12
REMARK    4  A    between atoms: C_20  and  C_21
REMARK    5  A    between atoms: C_26  and  C_28
REMARK                            x       y       z     vdW  Elec       q    Type
REMARK                         _______ _______ _______ _____ _____    ______ ____
ROOT
ATOM      1  O   UNL     1      33.969 -12.908 -24.743  0.00  0.00    -0.270 OA
ATOM      2  N   UNL     1      34.376 -15.127 -24.102  0.00  0.00    -0.275 N 
ATOM      3  C   UNL     1      34.106 -15.971 -22.964  0.00  0.00    +0.093 C 
ATOM      4  C   UNL     1      33.364 -17.141 -23.619  0.00  0.00    +0.025 C 
ATOM      5  C   UNL     1      34.080 -17.285 -24.973  0.00  0.00    +0.024 C 
ATOM      6  C   UNL     1      34.450 -15.850 -25.358  0.00  0.00    +0.094 C 
ATOM      7  C   UNL     1      33.314 -15.024 -22.105  0.00  0.00    +0.067 C 
ATOM      8  C   UNL     1      33.929 -13.827 -23.943  0.00  0.00    +0.250 C 
ATOM      9  C   UNL     1      33.267 -13.774 -22.606  0.00  0.00    +0.061 C 
ENDROOT
BRANCH   9  12
ATOM     10 CL   UNL     1      31.249 -11.337 -18.501  0.00  0.00    -0.082 Cl
ATOM     11 CL   UNL     1      31.275  -9.055 -23.392  0.00  0.00    -0.082 Cl
ATOM     12  C   UNL     1      32.605 -12.591 -22.057  0.00  0.00    +0.006 C 
ATOM     13  C   UNL     1      32.290 -11.508 -22.887  0.00  0.00    +0.012 C 
ATOM     14  C   UNL     1      32.278 -12.530 -20.698  0.00  0.00    +0.012 C 
ATOM     15  C   UNL     1      31.646 -11.403 -20.175  0.00  0.00    +0.059 C 
ATOM     16  C   UNL     1      31.658 -10.380 -22.363  0.00  0.00    +0.059 C 
ATOM     17  C   UNL     1      31.336 -10.328 -21.008  0.00  0.00    +0.023 C 
ENDBRANCH   9  12
BRANCH   7  19
ATOM     18  N   UNL     1      32.197 -15.750 -19.894  0.00  0.00    -0.191 NA
ATOM     19  C   UNL     1      32.698 -15.424 -20.888  0.00  0.00    +0.098 C 
ENDBRANCH   7  19
BRANCH   3  20
ATOM     20  C   UNL     1      35.406 -16.404 -22.275  0.00  0.00    +0.049 C 
BRANCH  20  21
ATOM     21  C   UNL     1      35.287 -17.759 -21.656  0.00  0.00    -0.020 C 
ATOM     22  C   UNL     1      36.436 -18.466 -21.303  0.00  0.00    -0.004 C 
ATOM     23  C   UNL     1      34.028 -18.314 -21.435  0.00  0.00    -0.004 C 
ATOM     24  C   UNL     1      36.324 -19.731 -20.725  0.00  0.00    +0.010 C 
ATOM     25  C   UNL     1      33.917 -19.578 -20.857  0.00  0.00    +0.010 C 
ATOM     26  C   UNL     1      35.065 -20.287 -20.503  0.00  0.00    +0.068 C 
BRANCH  26  28
ATOM     27  N   UNL     1      34.857 -22.639 -19.430  0.00  0.00    -0.191 NA
ATOM     28  C   UNL     1      34.950 -21.583 -19.911  0.00  0.00    +0.100 C 
ENDBRANCH  26  28
ENDBRANCH  20  21
ENDBRANCH   3  20
TORSDOF 5
ENDMDL
MODEL 9
REMARK VINA RESULT:      -7.9      8.953     13.292
REMARK  Name = 16040268
REMARK  5 active torsions:
REMARK  status: ('A' for Active; 'I' for Inactive)
REMARK    1  A    between atoms: C_3  and  C_20
REMARK    2  A    between atoms: C_7  and  C_19
REMARK    3  A    between atoms: C_9  and  C_12
REMARK    4  A    between atoms: C_20  and  C_21
REMARK    5  A    between atoms: C_26  and  C_28
REMARK                            x       y       z     vdW  Elec       q    Type
REMARK                         _______ _______ _______ _____ _____    ______ ____
ROOT
ATOM      1  O   UNL     1      31.355 -22.869 -17.447  0.00  0.00    -0.270 OA
ATOM      2  N   UNL     1      32.409 -23.788 -15.565  0.00  0.00    -0.275 N 
ATOM      3  C   UNL     1      33.752 -23.912 -15.053  0.00  0.00    +0.093 C 
ATOM      4  C   UNL     1      33.613 -23.272 -13.668  0.00  0.00    +0.025 C 
ATOM      5  C   UNL     1      32.204 -23.708 -13.229  0.00  0.00    +0.024 C 
ATOM      6  C   UNL     1      31.395 -23.729 -14.528  0.00  0.00    +0.094 C 
ATOM      7  C   UNL     1      34.516 -23.158 -16.107  0.00  0.00    +0.067 C 
ATOM      8  C   UNL     1      32.344 -23.159 -16.795  0.00  0.00    +0.250 C 
ATOM      9  C   UNL     1      33.746 -22.787 -17.149  0.00  0.00    +0.061 C 
ENDROOT
BRANCH   9  12
ATOM     10 CL   UNL     1      37.475 -21.282 -20.419  0.00  0.00    -0.082 Cl
ATOM     11 CL   UNL     1      32.329 -19.840 -21.170  0.00  0.00    -0.082 Cl
ATOM     12  C   UNL     1      34.128 -22.052 -18.354  0.00  0.00    +0.006 C 
ATOM     13  C   UNL     1      33.160 -21.373 -19.105  0.00  0.00    +0.012 C 
ATOM     14  C   UNL     1      35.464 -22.018 -18.768  0.00  0.00    +0.012 C 
ATOM     15  C   UNL     1      35.829 -21.317 -19.917  0.00  0.00    +0.059 C 
ATOM     16  C   UNL     1      33.525 -20.671 -20.254  0.00  0.00    +0.059 C 
ATOM     17  C   UNL     1      34.859 -20.643 -20.660  0.00  0.00    +0.023 C 
ENDBRANCH   9  12
BRANCH   7  19
ATOM     18  N   UNL     1      37.042 -22.665 -15.914  0.00  0.00    -0.191 NA
ATOM     19  C   UNL     1      35.907 -22.887 -16.000  0.00  0.00    +0.098 C 
ENDBRANCH   7  19
BRANCH   3  20
ATOM     20  C   UNL     1      34.185 -25.382 -14.986  0.00  0.00    +0.049 C 
BRANCH  20  21
ATOM     21  C   UNL     1      35.645 -25.523 -14.697  0.00  0.00    -0.020 C 
ATOM     22  C   UNL     1      36.190 -24.932 -13.558  0.00  0.00    -0.004 C 
ATOM     23  C   UNL     1      36.458 -26.245 -15.569  0.00  0.00    -0.004 C 
ATOM     24  C   UNL     1      37.552 -25.065 -13.290  0.00  0.00    +0.010 C 
ATOM     25  C   UNL     1      37.820 -26.378 -15.299  0.00  0.00    +0.010 C 
ATOM     26  C   UNL     1      38.367 -25.788 -14.160  0.00  0.00    +0.068 C 
BRANCH  26  28
ATOM     27  N   UNL     1      40.900 -26.033 -13.662  0.00  0.00    -0.191 NA
ATOM     28  C   UNL     1      39.763 -25.923 -13.885  0.00  0.00    +0.100 C 
ENDBRANCH  26  28
ENDBRANCH  20  21
ENDBRANCH   3  20
TORSDOF 5
ENDMDL
