MODEL 1
REMARK VINA RESULT:      -9.6      0.000      0.000
REMARK  Name = 65718
REMARK  10 active torsions:
REMARK  status: ('A' for Active; 'I' for Inactive)
REMARK    1  A    between atoms: C_1  and  C_17
REMARK    2  A    between atoms: C_4  and  O_7
REMARK    3  A    between atoms: O_7  and  C_8
REMARK    4  A    between atoms: C_11  and  N_16
REMARK    5  A    between atoms: C_17  and  N_19
REMARK    6  A    between atoms: N_19  and  C_24
REMARK    7  A    between atoms: C_20  and  C_23
REMARK    8  A    between atoms: C_24  and  C_25
REMARK    9  A    between atoms: C_25  and  O_26
REMARK   10  A    between atoms: O_26  and  C_27
REMARK                            x       y       z     vdW  Elec       q    Type
REMARK                         _______ _______ _______ _____ _____    ______ ____
ROOT
ATOM      1  C   UNL     1      34.256 -14.979 -22.431  0.00  0.00    -0.002 C 
ATOM      2  C   UNL     1      33.365 -15.190 -21.379  0.00  0.00    +0.001 C 
ATOM      3  C   UNL     1      34.099 -13.876 -23.269  0.00  0.00    +0.001 C 
ATOM      4  C   UNL     1      32.159 -13.191 -22.003  0.00  0.00    +0.145 C 
ATOM      5  C   UNL     1      32.316 -14.296 -21.165  0.00  0.00    +0.037 C 
ATOM      6  C   UNL     1      33.051 -12.982 -23.055  0.00  0.00    +0.037 C 
ENDROOT
BRANCH   4   7
ATOM      7  O   UNL     1      31.135 -12.319 -21.795  0.00  0.00    -0.453 OA
BRANCH   7   8
ATOM      8  C   UNL     1      31.458 -11.017 -21.451  0.00  0.00    +0.145 C 
ATOM      9  C   UNL     1      31.612 -10.669 -20.109  0.00  0.00    +0.039 C 
ATOM     10  C   UNL     1      31.628 -10.054 -22.445  0.00  0.00    +0.039 C 
ATOM     11  C   UNL     1      32.108  -8.394 -20.756  0.00  0.00    +0.143 C 
ATOM     12  C   UNL     1      31.937  -9.358 -19.762  0.00  0.00    +0.027 C 
ATOM     13  C   UNL     1      31.953  -8.743 -22.098  0.00  0.00    +0.027 C 
BRANCH  11  16
ATOM     14  O   UNL     1      33.020  -6.846 -19.311  0.00  0.00    -0.126 OA
ATOM     15  O   UNL     1      32.141  -6.130 -21.191  0.00  0.00    -0.126 OA
ATOM     16  N   UNL     1      32.439  -7.060 -20.403  0.00  0.00    +0.058 N 
ENDBRANCH  11  16
ENDBRANCH   7   8
ENDBRANCH   4   7
BRANCH   1  17
ATOM     17  C   UNL     1      35.385 -15.943 -22.661  0.00  0.00    +0.120 C 
BRANCH  17  19
ATOM     18  O   UNL     1      34.279 -19.281 -23.691  0.00  0.00    -0.272 OA
ATOM     19  N   UNL     1      34.972 -17.082 -23.474  0.00  0.00    -0.271 N 
ATOM     20  C   UNL     1      34.624 -18.340 -22.970  0.00  0.00    +0.256 C 
BRANCH  20  23
ATOM     21 CL   UNL     1      33.493 -19.748 -21.017  0.00  0.00    -0.087 Cl
ATOM     22 CL   UNL     1      36.320 -19.033 -21.005  0.00  0.00    -0.087 Cl
ATOM     23  C   UNL     1      34.682 -18.513 -21.463  0.00  0.00    +0.234 C 
ENDBRANCH  20  23
BRANCH  19  24
ATOM     24  C   UNL     1      34.982 -16.863 -24.915  0.00  0.00    +0.126 C 
BRANCH  24  25
ATOM     25  C   UNL     1      33.598 -16.522 -25.438  0.00  0.00    +0.164 C 
BRANCH  25  26
ATOM     26  O   UNL     1      33.716 -15.627 -26.536  0.00  0.00    -0.352 OA
BRANCH  26  27
ATOM     27  C   UNL     1      32.750 -14.587 -26.467  0.00  0.00    +0.142 C 
ATOM     28  C   UNL     1      33.327 -13.335 -27.091  0.00  0.00    +0.035 C 
ENDBRANCH  26  27
ENDBRANCH  25  26
ENDBRANCH  24  25
ENDBRANCH  19  24
ENDBRANCH  17  19
ENDBRANCH   1  17
TORSDOF 10
ENDMDL
MODEL 2
REMARK VINA RESULT:      -9.1      3.799      9.028
REMARK  Name = 65718
REMARK  10 active torsions:
REMARK  status: ('A' for Active; 'I' for Inactive)
REMARK    1  A    between atoms: C_1  and  C_17
REMARK    2  A    between atoms: C_4  and  O_7
REMARK    3  A    between atoms: O_7  and  C_8
REMARK    4  A    between atoms: C_11  and  N_16
REMARK    5  A    between atoms: C_17  and  N_19
REMARK    6  A    between atoms: N_19  and  C_24
REMARK    7  A    between atoms: C_20  and  C_23
REMARK    8  A    between atoms: C_24  and  C_25
REMARK    9  A    between atoms: C_25  and  O_26
REMARK   10  A    between atoms: O_26  and  C_27
REMARK                            x       y       z     vdW  Elec       q    Type
REMARK                         _______ _______ _______ _____ _____    ______ ____
ROOT
ATOM      1  C   UNL     1      33.437 -14.803 -23.268  0.00  0.00    -0.002 C 
ATOM      2  C   UNL     1      34.093 -15.677 -24.135  0.00  0.00    +0.001 C 
ATOM      3  C   UNL     1      33.620 -14.918 -21.891  0.00  0.00    +0.001 C 
ATOM      4  C   UNL     1      35.117 -16.780 -22.246  0.00  0.00    +0.145 C 
ATOM      5  C   UNL     1      34.933 -16.666 -23.624  0.00  0.00    +0.037 C 
ATOM      6  C   UNL     1      34.461 -15.906 -21.380  0.00  0.00    +0.037 C 
ENDROOT
BRANCH   4   7
ATOM      7  O   UNL     1      35.936 -17.746 -21.746  0.00  0.00    -0.453 OA
BRANCH   7   8
ATOM      8  C   UNL     1      35.344 -18.847 -21.149  0.00  0.00    +0.145 C 
ATOM      9  C   UNL     1      36.133 -19.798 -20.501  0.00  0.00    +0.039 C 
ATOM     10  C   UNL     1      33.959 -19.005 -21.196  0.00  0.00    +0.039 C 
ATOM     11  C   UNL     1      34.151 -21.064 -19.947  0.00  0.00    +0.143 C 
ATOM     12  C   UNL     1      35.536 -20.905 -19.901  0.00  0.00    +0.027 C 
ATOM     13  C   UNL     1      33.363 -20.113 -20.595  0.00  0.00    +0.027 C 
BRANCH  11  16
ATOM     14  O   UNL     1      34.061 -23.324 -19.499  0.00  0.00    -0.126 OA
ATOM     15  O   UNL     1      32.508 -22.027 -18.647  0.00  0.00    -0.126 OA
ATOM     16  N   UNL     1      33.544 -22.192 -19.335  0.00  0.00    +0.058 N 
ENDBRANCH  11  16
ENDBRANCH   7   8
ENDBRANCH   4   7
BRANCH   1  17
ATOM     17  C   UNL     1      32.533 -13.739 -23.820  0.00  0.00    +0.120 C 
BRANCH  17  19
ATOM     18  O   UNL     1      33.982 -10.390 -23.487  0.00  0.00    -0.272 OA
ATOM     19  N   UNL     1      32.872 -12.415 -23.309  0.00  0.00    -0.271 N 
ATOM     20  C   UNL     1      33.717 -11.503 -23.952  0.00  0.00    +0.256 C 
BRANCH  20  23
ATOM     21 CL   UNL     1      32.967 -12.235 -26.396  0.00  0.00    -0.087 Cl
ATOM     22 CL   UNL     1      35.354 -10.637 -25.897  0.00  0.00    -0.087 Cl
ATOM     23  C   UNL     1      34.310 -11.938 -25.280  0.00  0.00    +0.234 C 
ENDBRANCH  20  23
BRANCH  19  24
ATOM     24  C   UNL     1      32.308 -12.078 -22.008  0.00  0.00    +0.126 C 
BRANCH  24  25
ATOM     25  C   UNL     1      31.085 -11.188 -22.145  0.00  0.00    +0.164 C 
BRANCH  25  26
ATOM     26  O   UNL     1      31.434  -9.852 -21.812  0.00  0.00    -0.352 OA
BRANCH  26  27
ATOM     27  C   UNL     1      31.858  -9.745 -20.459  0.00  0.00    +0.142 C 
ATOM     28  C   UNL     1      32.189  -8.299 -20.158  0.00  0.00    +0.035 C 
ENDBRANCH  26  27
ENDBRANCH  25  26
ENDBRANCH  24  25
ENDBRANCH  19  24
ENDBRANCH  17  19
ENDBRANCH   1  17
TORSDOF 10
ENDMDL
MODEL 3
REMARK VINA RESULT:      -9.0      5.698      9.608
REMARK  Name = 65718
REMARK  10 active torsions:
REMARK  status: ('A' for Active; 'I' for Inactive)
REMARK    1  A    between atoms: C_1  and  C_17
REMARK    2  A    between atoms: C_4  and  O_7
REMARK    3  A    between atoms: O_7  and  C_8
REMARK    4  A    between atoms: C_11  and  N_16
REMARK    5  A    between atoms: C_17  and  N_19
REMARK    6  A    between atoms: N_19  and  C_24
REMARK    7  A    between atoms: C_20  and  C_23
REMARK    8  A    between atoms: C_24  and  C_25
REMARK    9  A    between atoms: C_25  and  O_26
REMARK   10  A    between atoms: O_26  and  C_27
REMARK                            x       y       z     vdW  Elec       q    Type
REMARK                         _______ _______ _______ _____ _____    ______ ____
ROOT
ATOM      1  C   UNL     1      34.376 -22.123 -19.101  0.00  0.00    -0.002 C 
ATOM      2  C   UNL     1      33.672 -21.180 -19.850  0.00  0.00    +0.001 C 
ATOM      3  C   UNL     1      35.750 -21.982 -18.916  0.00  0.00    +0.001 C 
ATOM      4  C   UNL     1      35.720 -19.954 -20.227  0.00  0.00    +0.145 C 
ATOM      5  C   UNL     1      34.344 -20.095 -20.413  0.00  0.00    +0.037 C 
ATOM      6  C   UNL     1      36.422 -20.898 -19.478  0.00  0.00    +0.037 C 
ENDROOT
BRANCH   4   7
ATOM      7  O   UNL     1      36.376 -18.896 -20.778  0.00  0.00    -0.453 OA
BRANCH   7   8
ATOM      8  C   UNL     1      35.732 -18.190 -21.781  0.00  0.00    +0.145 C 
ATOM      9  C   UNL     1      35.107 -16.978 -21.488  0.00  0.00    +0.039 C 
ATOM     10  C   UNL     1      35.708 -18.692 -23.082  0.00  0.00    +0.039 C 
ATOM     11  C   UNL     1      34.435 -16.768 -23.799  0.00  0.00    +0.143 C 
ATOM     12  C   UNL     1      34.459 -16.268 -22.498  0.00  0.00    +0.027 C 
ATOM     13  C   UNL     1      35.060 -17.981 -24.091  0.00  0.00    +0.027 C 
BRANCH  11  16
ATOM     14  O   UNL     1      33.291 -14.916 -24.562  0.00  0.00    -0.126 OA
ATOM     15  O   UNL     1      33.691 -16.552 -25.971  0.00  0.00    -0.126 OA
ATOM     16  N   UNL     1      33.774 -16.044 -24.827  0.00  0.00    +0.058 N 
ENDBRANCH  11  16
ENDBRANCH   7   8
ENDBRANCH   4   7
BRANCH   1  17
ATOM     17  C   UNL     1      33.651 -23.291 -18.496  0.00  0.00    +0.120 C 
BRANCH  17  19
ATOM     18  O   UNL     1      33.286 -22.929 -14.868  0.00  0.00    -0.272 OA
ATOM     19  N   UNL     1      33.113 -22.974 -17.177  0.00  0.00    -0.271 N 
ATOM     20  C   UNL     1      33.774 -23.211 -15.967  0.00  0.00    +0.256 C 
BRANCH  20  23
ATOM     21 CL   UNL     1      36.336 -22.605 -15.590  0.00  0.00    -0.087 Cl
ATOM     22 CL   UNL     1      35.227 -25.220 -14.933  0.00  0.00    -0.087 Cl
ATOM     23  C   UNL     1      35.153 -23.840 -16.052  0.00  0.00    +0.234 C 
ENDBRANCH  20  23
BRANCH  19  24
ATOM     24  C   UNL     1      31.767 -22.415 -17.163  0.00  0.00    +0.126 C 
BRANCH  24  25
ATOM     25  C   UNL     1      30.771 -23.376 -16.538  0.00  0.00    +0.164 C 
BRANCH  25  26
ATOM     26  O   UNL     1      29.454 -23.012 -16.931  0.00  0.00    -0.352 OA
BRANCH  26  27
ATOM     27  C   UNL     1      28.485 -23.474 -16.000  0.00  0.00    +0.142 C 
ATOM     28  C   UNL     1      27.416 -22.416 -15.833  0.00  0.00    +0.035 C 
ENDBRANCH  26  27
ENDBRANCH  25  26
ENDBRANCH  24  25
ENDBRANCH  19  24
ENDBRANCH  17  19
ENDBRANCH   1  17
TORSDOF 10
ENDMDL
MODEL 4
REMARK VINA RESULT:      -9.0      7.234     11.129
REMARK  Name = 65718
REMARK  10 active torsions:
REMARK  status: ('A' for Active; 'I' for Inactive)
REMARK    1  A    between atoms: C_1  and  C_17
REMARK    2  A    between atoms: C_4  and  O_7
REMARK    3  A    between atoms: O_7  and  C_8
REMARK    4  A    between atoms: C_11  and  N_16
REMARK    5  A    between atoms: C_17  and  N_19
REMARK    6  A    between atoms: N_19  and  C_24
REMARK    7  A    between atoms: C_20  and  C_23
REMARK    8  A    between atoms: C_24  and  C_25
REMARK    9  A    between atoms: C_25  and  O_26
REMARK   10  A    between atoms: O_26  and  C_27
REMARK                            x       y       z     vdW  Elec       q    Type
REMARK                         _______ _______ _______ _____ _____    ______ ____
ROOT
ATOM      1  C   UNL     1      35.666 -22.608 -16.119  0.00  0.00    -0.002 C 
ATOM      2  C   UNL     1      34.534 -22.889 -16.884  0.00  0.00    +0.001 C 
ATOM      3  C   UNL     1      36.782 -22.021 -16.715  0.00  0.00    +0.001 C 
ATOM      4  C   UNL     1      35.634 -21.995 -18.840  0.00  0.00    +0.145 C 
ATOM      5  C   UNL     1      34.518 -22.583 -18.244  0.00  0.00    +0.037 C 
ATOM      6  C   UNL     1      36.766 -21.714 -18.075  0.00  0.00    +0.037 C 
ENDROOT
BRANCH   4   7
ATOM      7  O   UNL     1      35.619 -21.697 -20.168  0.00  0.00    -0.453 OA
BRANCH   7   8
ATOM      8  C   UNL     1      35.249 -20.413 -20.536  0.00  0.00    +0.145 C 
ATOM      9  C   UNL     1      36.227 -19.465 -20.835  0.00  0.00    +0.039 C 
ATOM     10  C   UNL     1      33.900 -20.070 -20.605  0.00  0.00    +0.039 C 
ATOM     11  C   UNL     1      34.505 -17.828 -21.274  0.00  0.00    +0.143 C 
ATOM     12  C   UNL     1      35.855 -18.173 -21.204  0.00  0.00    +0.027 C 
ATOM     13  C   UNL     1      33.527 -18.777 -20.974  0.00  0.00    +0.027 C 
BRANCH  11  16
ATOM     14  O   UNL     1      34.861 -15.870 -22.439  0.00  0.00    -0.126 OA
ATOM     15  O   UNL     1      33.067 -16.028 -21.183  0.00  0.00    -0.126 OA
ATOM     16  N   UNL     1      34.126 -16.513 -21.650  0.00  0.00    +0.058 N 
ENDBRANCH  11  16
ENDBRANCH   7   8
ENDBRANCH   4   7
BRANCH   1  17
ATOM     17  C   UNL     1      35.682 -22.939 -14.655  0.00  0.00    +0.120 C 
BRANCH  17  19
ATOM     18  O   UNL     1      36.739 -26.373 -13.934  0.00  0.00    -0.272 OA
ATOM     19  N   UNL     1      35.665 -24.379 -14.421  0.00  0.00    -0.271 N 
ATOM     20  C   UNL     1      36.793 -25.154 -14.126  0.00  0.00    +0.256 C 
BRANCH  20  23
ATOM     21 CL   UNL     1      38.522 -24.236 -12.325  0.00  0.00    -0.087 Cl
ATOM     22 CL   UNL     1      39.364 -25.394 -14.865  0.00  0.00    -0.087 Cl
ATOM     23  C   UNL     1      38.121 -24.424 -14.040  0.00  0.00    +0.234 C 
ENDBRANCH  20  23
BRANCH  19  24
ATOM     24  C   UNL     1      34.366 -25.025 -14.563  0.00  0.00    +0.126 C 
BRANCH  24  25
ATOM     25  C   UNL     1      33.306 -24.335 -13.724  0.00  0.00    +0.164 C 
BRANCH  25  26
ATOM     26  O   UNL     1      32.076 -24.321 -14.436  0.00  0.00    -0.352 OA
BRANCH  26  27
ATOM     27  C   UNL     1      31.615 -22.994 -14.653  0.00  0.00    +0.142 C 
ATOM     28  C   UNL     1      30.888 -22.934 -15.979  0.00  0.00    +0.035 C 
ENDBRANCH  26  27
ENDBRANCH  25  26
ENDBRANCH  24  25
ENDBRANCH  19  24
ENDBRANCH  17  19
ENDBRANCH   1  17
TORSDOF 10
ENDMDL
MODEL 5
REMARK VINA RESULT:      -9.0      3.753      8.683
REMARK  Name = 65718
REMARK  10 active torsions:
REMARK  status: ('A' for Active; 'I' for Inactive)
REMARK    1  A    between atoms: C_1  and  C_17
REMARK    2  A    between atoms: C_4  and  O_7
REMARK    3  A    between atoms: O_7  and  C_8
REMARK    4  A    between atoms: C_11  and  N_16
REMARK    5  A    between atoms: C_17  and  N_19
REMARK    6  A    between atoms: N_19  and  C_24
REMARK    7  A    between atoms: C_20  and  C_23
REMARK    8  A    between atoms: C_24  and  C_25
REMARK    9  A    between atoms: C_25  and  O_26
REMARK   10  A    between atoms: O_26  and  C_27
REMARK                            x       y       z     vdW  Elec       q    Type
REMARK                         _______ _______ _______ _____ _____    ______ ____
ROOT
ATOM      1  C   UNL     1      33.306 -14.882 -22.908  0.00  0.00    -0.002 C 
ATOM      2  C   UNL     1      33.864 -15.781 -23.817  0.00  0.00    +0.001 C 
ATOM      3  C   UNL     1      33.606 -14.986 -21.551  0.00  0.00    +0.001 C 
ATOM      4  C   UNL     1      35.026 -16.886 -22.010  0.00  0.00    +0.145 C 
ATOM      5  C   UNL     1      34.724 -16.782 -23.369  0.00  0.00    +0.037 C 
ATOM      6  C   UNL     1      34.467 -15.987 -21.102  0.00  0.00    +0.037 C 
ENDROOT
BRANCH   4   7
ATOM      7  O   UNL     1      35.864 -17.864 -21.572  0.00  0.00    -0.453 OA
BRANCH   7   8
ATOM      8  C   UNL     1      35.296 -18.989 -20.996  0.00  0.00    +0.145 C 
ATOM      9  C   UNL     1      33.913 -19.168 -21.034  0.00  0.00    +0.039 C 
ATOM     10  C   UNL     1      36.106 -19.940 -20.377  0.00  0.00    +0.039 C 
ATOM     11  C   UNL     1      34.150 -21.253 -19.836  0.00  0.00    +0.143 C 
ATOM     12  C   UNL     1      33.341 -20.300 -20.454  0.00  0.00    +0.027 C 
ATOM     13  C   UNL     1      35.533 -21.072 -19.797  0.00  0.00    +0.027 C 
BRANCH  11  16
ATOM     14  O   UNL     1      32.602 -22.261 -18.456  0.00  0.00    -0.126 OA
ATOM     15  O   UNL     1      34.033 -23.535 -19.529  0.00  0.00    -0.126 OA
ATOM     16  N   UNL     1      33.567 -22.405 -19.245  0.00  0.00    +0.058 N 
ENDBRANCH  11  16
ENDBRANCH   7   8
ENDBRANCH   4   7
BRANCH   1  17
ATOM     17  C   UNL     1      32.379 -13.804 -23.393  0.00  0.00    +0.120 C 
BRANCH  17  19
ATOM     18  O   UNL     1      33.226 -10.287 -22.811  0.00  0.00    -0.272 OA
ATOM     19  N   UNL     1      33.039 -12.504 -23.453  0.00  0.00    -0.271 N 
ATOM     20  C   UNL     1      32.641 -11.372 -22.734  0.00  0.00    +0.256 C 
BRANCH  20  23
ATOM     21 CL   UNL     1      31.996 -12.257 -20.310  0.00  0.00    -0.087 Cl
ATOM     22 CL   UNL     1      30.735  -9.922 -21.519  0.00  0.00    -0.087 Cl
ATOM     23  C   UNL     1      31.436 -11.528 -21.824  0.00  0.00    +0.234 C 
ENDBRANCH  20  23
BRANCH  19  24
ATOM     24  C   UNL     1      34.161 -12.410 -24.379  0.00  0.00    +0.126 C 
BRANCH  24  25
ATOM     25  C   UNL     1      33.757 -11.736 -25.678  0.00  0.00    +0.164 C 
BRANCH  25  26
ATOM     26  O   UNL     1      34.033 -12.607 -26.767  0.00  0.00    -0.352 OA
BRANCH  26  27
ATOM     27  C   UNL     1      32.853 -13.247 -27.235  0.00  0.00    +0.142 C 
ATOM     28  C   UNL     1      32.898 -14.709 -26.847  0.00  0.00    +0.035 C 
ENDBRANCH  26  27
ENDBRANCH  25  26
ENDBRANCH  24  25
ENDBRANCH  19  24
ENDBRANCH  17  19
ENDBRANCH   1  17
TORSDOF 10
ENDMDL
MODEL 6
REMARK VINA RESULT:      -8.9      5.630     10.232
REMARK  Name = 65718
REMARK  10 active torsions:
REMARK  status: ('A' for Active; 'I' for Inactive)
REMARK    1  A    between atoms: C_1  and  C_17
REMARK    2  A    between atoms: C_4  and  O_7
REMARK    3  A    between atoms: O_7  and  C_8
REMARK    4  A    between atoms: C_11  and  N_16
REMARK    5  A    between atoms: C_17  and  N_19
REMARK    6  A    between atoms: N_19  and  C_24
REMARK    7  A    between atoms: C_20  and  C_23
REMARK    8  A    between atoms: C_24  and  C_25
REMARK    9  A    between atoms: C_25  and  O_26
REMARK   10  A    between atoms: O_26  and  C_27
REMARK                            x       y       z     vdW  Elec       q    Type
REMARK                         _______ _______ _______ _____ _____    ______ ____
ROOT
ATOM      1  C   UNL     1      35.114 -19.531 -20.665  0.00  0.00    -0.002 C 
ATOM      2  C   UNL     1      35.931 -20.546 -20.167  0.00  0.00    +0.001 C 
ATOM      3  C   UNL     1      33.728 -19.684 -20.657  0.00  0.00    +0.001 C 
ATOM      4  C   UNL     1      33.975 -21.866 -19.650  0.00  0.00    +0.145 C 
ATOM      5  C   UNL     1      35.362 -21.713 -19.659  0.00  0.00    +0.037 C 
ATOM      6  C   UNL     1      33.158 -20.851 -20.148  0.00  0.00    +0.037 C 
ENDROOT
BRANCH   4   7
ATOM      7  O   UNL     1      33.419 -23.006 -19.155  0.00  0.00    -0.453 OA
BRANCH   7   8
ATOM      8  C   UNL     1      33.296 -23.118 -17.780  0.00  0.00    +0.145 C 
ATOM      9  C   UNL     1      34.431 -23.308 -16.991  0.00  0.00    +0.039 C 
ATOM     10  C   UNL     1      32.037 -23.042 -17.184  0.00  0.00    +0.039 C 
ATOM     11  C   UNL     1      33.049 -23.345 -15.010  0.00  0.00    +0.143 C 
ATOM     12  C   UNL     1      34.307 -23.421 -15.608  0.00  0.00    +0.027 C 
ATOM     13  C   UNL     1      31.914 -23.156 -15.799  0.00  0.00    +0.027 C 
BRANCH  11  16
ATOM     14  O   UNL     1      31.838 -23.140 -13.059  0.00  0.00    -0.126 OA
ATOM     15  O   UNL     1      33.901 -23.880 -12.936  0.00  0.00    -0.126 OA
ATOM     16  N   UNL     1      32.923 -23.461 -13.601  0.00  0.00    +0.058 N 
ENDBRANCH  11  16
ENDBRANCH   7   8
ENDBRANCH   4   7
BRANCH   1  17
ATOM     17  C   UNL     1      35.728 -18.275 -21.212  0.00  0.00    +0.120 C 
BRANCH  17  19
ATOM     18  O   UNL     1      33.570 -16.265 -23.387  0.00  0.00    -0.272 OA
ATOM     19  N   UNL     1      34.717 -17.333 -21.682  0.00  0.00    -0.271 N 
ATOM     20  C   UNL     1      34.434 -17.070 -23.027  0.00  0.00    +0.256 C 
BRANCH  20  23
ATOM     21 CL   UNL     1      34.584 -19.475 -24.154  0.00  0.00    -0.087 Cl
ATOM     22 CL   UNL     1      35.096 -17.013 -25.630  0.00  0.00    -0.087 Cl
ATOM     23  C   UNL     1      35.245 -17.834 -24.059  0.00  0.00    +0.234 C 
ENDBRANCH  20  23
BRANCH  19  24
ATOM     24  C   UNL     1      34.007 -16.600 -20.641  0.00  0.00    +0.126 C 
BRANCH  24  25
ATOM     25  C   UNL     1      34.710 -15.299 -20.298  0.00  0.00    +0.164 C 
BRANCH  25  26
ATOM     26  O   UNL     1      34.122 -14.236 -21.036  0.00  0.00    -0.352 OA
BRANCH  26  27
ATOM     27  C   UNL     1      32.728 -14.131 -20.780  0.00  0.00    +0.142 C 
ATOM     28  C   UNL     1      32.127 -13.117 -21.729  0.00  0.00    +0.035 C 
ENDBRANCH  26  27
ENDBRANCH  25  26
ENDBRANCH  24  25
ENDBRANCH  19  24
ENDBRANCH  17  19
ENDBRANCH   1  17
TORSDOF 10
ENDMDL
MODEL 7
REMARK VINA RESULT:      -8.8      6.066     10.383
REMARK  Name = 65718
REMARK  10 active torsions:
REMARK  status: ('A' for Active; 'I' for Inactive)
REMARK    1  A    between atoms: C_1  and  C_17
REMARK    2  A    between atoms: C_4  and  O_7
REMARK    3  A    between atoms: O_7  and  C_8
REMARK    4  A    between atoms: C_11  and  N_16
REMARK    5  A    between atoms: C_17  and  N_19
REMARK    6  A    between atoms: N_19  and  C_24
REMARK    7  A    between atoms: C_20  and  C_23
REMARK    8  A    between atoms: C_24  and  C_25
REMARK    9  A    between atoms: C_25  and  O_26
REMARK   10  A    between atoms: O_26  and  C_27
REMARK                            x       y       z     vdW  Elec       q    Type
REMARK                         _______ _______ _______ _____ _____    ______ ____
ROOT
ATOM      1  C   UNL     1      33.957 -22.327 -18.610  0.00  0.00    -0.002 C 
ATOM      2  C   UNL     1      33.381 -21.380 -19.457  0.00  0.00    +0.001 C 
ATOM      3  C   UNL     1      35.338 -22.347 -18.423  0.00  0.00    +0.001 C 
ATOM      4  C   UNL     1      35.569 -20.471 -19.928  0.00  0.00    +0.145 C 
ATOM      5  C   UNL     1      34.187 -20.452 -20.116  0.00  0.00    +0.037 C 
ATOM      6  C   UNL     1      36.145 -21.418 -19.080  0.00  0.00    +0.037 C 
ENDROOT
BRANCH   4   7
ATOM      7  O   UNL     1      36.357 -19.566 -20.571  0.00  0.00    -0.453 OA
BRANCH   7   8
ATOM      8  C   UNL     1      35.770 -18.787 -21.555  0.00  0.00    +0.145 C 
ATOM      9  C   UNL     1      35.345 -17.492 -21.258  0.00  0.00    +0.039 C 
ATOM     10  C   UNL     1      35.604 -19.298 -22.842  0.00  0.00    +0.039 C 
ATOM     11  C   UNL     1      34.588 -17.219 -23.536  0.00  0.00    +0.143 C 
ATOM     12  C   UNL     1      34.755 -16.709 -22.248  0.00  0.00    +0.027 C 
ATOM     13  C   UNL     1      35.012 -18.514 -23.832  0.00  0.00    +0.027 C 
BRANCH  11  16
ATOM     14  O   UNL     1      33.489 -15.313 -24.226  0.00  0.00    -0.126 OA
ATOM     15  O   UNL     1      33.968 -16.844 -25.725  0.00  0.00    -0.126 OA
ATOM     16  N   UNL     1      33.986 -16.420 -24.544  0.00  0.00    +0.058 N 
ENDBRANCH  11  16
ENDBRANCH   7   8
ENDBRANCH   4   7
BRANCH   1  17
ATOM     17  C   UNL     1      33.087 -23.326 -17.902  0.00  0.00    +0.120 C 
BRANCH  17  19
ATOM     18  O   UNL     1      32.206 -23.072 -14.355  0.00  0.00    -0.272 OA
ATOM     19  N   UNL     1      33.181 -23.199 -16.452  0.00  0.00    -0.271 N 
ATOM     20  C   UNL     1      32.087 -23.182 -15.579  0.00  0.00    +0.256 C 
BRANCH  20  23
ATOM     21 CL   UNL     1      30.183 -24.991 -15.997  0.00  0.00    -0.087 Cl
ATOM     22 CL   UNL     1      29.594 -22.203 -15.376  0.00  0.00    -0.087 Cl
ATOM     23  C   UNL     1      30.710 -23.313 -16.205  0.00  0.00    +0.234 C 
ENDBRANCH  20  23
BRANCH  19  24
ATOM     24  C   UNL     1      34.527 -23.031 -15.919  0.00  0.00    +0.126 C 
BRANCH  24  25
ATOM     25  C   UNL     1      35.080 -24.337 -15.379  0.00  0.00    +0.164 C 
BRANCH  25  26
ATOM     26  O   UNL     1      36.484 -24.382 -15.596  0.00  0.00    -0.352 OA
BRANCH  26  27
ATOM     27  C   UNL     1      37.111 -25.346 -14.762  0.00  0.00    +0.142 C 
ATOM     28  C   UNL     1      36.778 -26.732 -15.272  0.00  0.00    +0.035 C 
ENDBRANCH  26  27
ENDBRANCH  25  26
ENDBRANCH  24  25
ENDBRANCH  19  24
ENDBRANCH  17  19
ENDBRANCH   1  17
TORSDOF 10
ENDMDL
MODEL 8
REMARK VINA RESULT:      -8.7      7.180     11.339
REMARK  Name = 65718
REMARK  10 active torsions:
REMARK  status: ('A' for Active; 'I' for Inactive)
REMARK    1  A    between atoms: C_1  and  C_17
REMARK    2  A    between atoms: C_4  and  O_7
REMARK    3  A    between atoms: O_7  and  C_8
REMARK    4  A    between atoms: C_11  and  N_16
REMARK    5  A    between atoms: C_17  and  N_19
REMARK    6  A    between atoms: N_19  and  C_24
REMARK    7  A    between atoms: C_20  and  C_23
REMARK    8  A    between atoms: C_24  and  C_25
REMARK    9  A    between atoms: C_25  and  O_26
REMARK   10  A    between atoms: O_26  and  C_27
REMARK                            x       y       z     vdW  Elec       q    Type
REMARK                         _______ _______ _______ _____ _____    ______ ____
ROOT
ATOM      1  C   UNL     1      35.148 -22.639 -16.332  0.00  0.00    -0.002 C 
ATOM      2  C   UNL     1      34.130 -22.903 -17.248  0.00  0.00    +0.001 C 
ATOM      3  C   UNL     1      36.341 -22.058 -16.761  0.00  0.00    +0.001 C 
ATOM      4  C   UNL     1      35.497 -22.003 -19.025  0.00  0.00    +0.145 C 
ATOM      5  C   UNL     1      34.305 -22.585 -18.594  0.00  0.00    +0.037 C 
ATOM      6  C   UNL     1      36.515 -21.739 -18.108  0.00  0.00    +0.037 C 
ENDROOT
BRANCH   4   7
ATOM      7  O   UNL     1      35.669 -21.693 -20.339  0.00  0.00    -0.453 OA
BRANCH   7   8
ATOM      8  C   UNL     1      35.493 -20.372 -20.717  0.00  0.00    +0.145 C 
ATOM      9  C   UNL     1      36.601 -19.574 -21.002  0.00  0.00    +0.039 C 
ATOM     10  C   UNL     1      34.207 -19.839 -20.812  0.00  0.00    +0.039 C 
ATOM     11  C   UNL     1      35.138 -17.712 -21.478  0.00  0.00    +0.143 C 
ATOM     12  C   UNL     1      36.423 -18.245 -21.382  0.00  0.00    +0.027 C 
ATOM     13  C   UNL     1      34.030 -18.509 -21.192  0.00  0.00    +0.027 C 
BRANCH  11  16
ATOM     14  O   UNL     1      35.287 -16.008 -23.025  0.00  0.00    -0.126 OA
ATOM     15  O   UNL     1      34.475 -15.547 -21.037  0.00  0.00    -0.126 OA
ATOM     16  N   UNL     1      34.958 -16.357 -21.865  0.00  0.00    +0.058 N 
ENDBRANCH  11  16
ENDBRANCH   7   8
ENDBRANCH   4   7
BRANCH   1  17
ATOM     17  C   UNL     1      34.959 -22.983 -14.882  0.00  0.00    +0.120 C 
BRANCH  17  19
ATOM     18  O   UNL     1      32.472 -25.593 -14.230  0.00  0.00    -0.272 OA
ATOM     19  N   UNL     1      34.321 -24.284 -14.709  0.00  0.00    -0.271 N 
ATOM     20  C   UNL     1      32.977 -24.475 -14.368  0.00  0.00    +0.256 C 
BRANCH  20  23
ATOM     21 CL   UNL     1      31.307 -22.893 -15.702  0.00  0.00    -0.087 Cl
ATOM     22 CL   UNL     1      30.954 -23.526 -12.877  0.00  0.00    -0.087 Cl
ATOM     23  C   UNL     1      32.136 -23.227 -14.172  0.00  0.00    +0.234 C 
ENDBRANCH  20  23
BRANCH  19  24
ATOM     24  C   UNL     1      35.195 -25.439 -14.866  0.00  0.00    +0.126 C 
BRANCH  24  25
ATOM     25  C   UNL     1      36.433 -25.325 -13.995  0.00  0.00    +0.164 C 
BRANCH  25  26
ATOM     26  O   UNL     1      37.593 -25.400 -14.813  0.00  0.00    -0.352 OA
BRANCH  26  27
ATOM     27  C   UNL     1      38.772 -25.115 -14.072  0.00  0.00    +0.142 C 
ATOM     28  C   UNL     1      39.980 -25.487 -14.905  0.00  0.00    +0.035 C 
ENDBRANCH  26  27
ENDBRANCH  25  26
ENDBRANCH  24  25
ENDBRANCH  19  24
ENDBRANCH  17  19
ENDBRANCH   1  17
TORSDOF 10
ENDMDL
MODEL 9
REMARK VINA RESULT:      -8.6      4.459      9.110
REMARK  Name = 65718
REMARK  10 active torsions:
REMARK  status: ('A' for Active; 'I' for Inactive)
REMARK    1  A    between atoms: C_1  and  C_17
REMARK    2  A    between atoms: C_4  and  O_7
REMARK    3  A    between atoms: O_7  and  C_8
REMARK    4  A    between atoms: C_11  and  N_16
REMARK    5  A    between atoms: C_17  and  N_19
REMARK    6  A    between atoms: N_19  and  C_24
REMARK    7  A    between atoms: C_20  and  C_23
REMARK    8  A    between atoms: C_24  and  C_25
REMARK    9  A    between atoms: C_25  and  O_26
REMARK   10  A    between atoms: O_26  and  C_27
REMARK                            x       y       z     vdW  Elec       q    Type
REMARK                         _______ _______ _______ _____ _____    ______ ____
ROOT
ATOM      1  C   UNL     1      33.947  -8.954 -23.443  0.00  0.00    -0.002 C 
ATOM      2  C   UNL     1      34.894  -9.507 -24.305  0.00  0.00    +0.001 C 
ATOM      3  C   UNL     1      32.825  -9.694 -23.072  0.00  0.00    +0.001 C 
ATOM      4  C   UNL     1      33.596 -11.541 -24.425  0.00  0.00    +0.145 C 
ATOM      5  C   UNL     1      34.718 -10.800 -24.796  0.00  0.00    +0.037 C 
ATOM      6  C   UNL     1      32.650 -10.987 -23.562  0.00  0.00    +0.037 C 
ENDROOT
BRANCH   4   7
ATOM      7  O   UNL     1      33.424 -12.803 -24.904  0.00  0.00    -0.453 OA
BRANCH   7   8
ATOM      8  C   UNL     1      33.793 -13.859 -24.086  0.00  0.00    +0.145 C 
ATOM      9  C   UNL     1      34.056 -13.634 -22.735  0.00  0.00    +0.039 C 
ATOM     10  C   UNL     1      33.902 -15.145 -24.614  0.00  0.00    +0.039 C 
ATOM     11  C   UNL     1      34.537 -15.983 -22.439  0.00  0.00    +0.143 C 
ATOM     12  C   UNL     1      34.429 -14.696 -21.912  0.00  0.00    +0.027 C 
ATOM     13  C   UNL     1      34.275 -16.207 -23.791  0.00  0.00    +0.027 C 
BRANCH  11  16
ATOM     14  O   UNL     1      35.266 -16.825 -20.419  0.00  0.00    -0.126 OA
ATOM     15  O   UNL     1      34.892 -18.231 -22.064  0.00  0.00    -0.126 OA
ATOM     16  N   UNL     1      34.916 -17.065 -21.601  0.00  0.00    +0.058 N 
ENDBRANCH  11  16
ENDBRANCH   7   8
ENDBRANCH   4   7
BRANCH   1  17
ATOM     17  C   UNL     1      34.137  -7.561 -22.916  0.00  0.00    +0.120 C 
BRANCH  17  19
ATOM     18  O   UNL     1      31.100  -6.073 -21.504  0.00  0.00    -0.272 OA
ATOM     19  N   UNL     1      33.076  -7.179 -21.989  0.00  0.00    -0.271 N 
ATOM     20  C   UNL     1      31.980  -6.375 -22.317  0.00  0.00    +0.256 C 
BRANCH  20  23
ATOM     21 CL   UNL     1      30.901  -7.020 -24.662  0.00  0.00    -0.087 Cl
ATOM     22 CL   UNL     1      31.157  -4.261 -23.755  0.00  0.00    -0.087 Cl
ATOM     23  C   UNL     1      31.900  -5.877 -23.749  0.00  0.00    +0.234 C 
ENDBRANCH  20  23
BRANCH  19  24
ATOM     24  C   UNL     1      33.237  -7.653 -20.620  0.00  0.00    +0.126 C 
BRANCH  24  25
ATOM     25  C   UNL     1      32.049  -8.486 -20.175  0.00  0.00    +0.164 C 
BRANCH  25  26
ATOM     26  O   UNL     1      32.486  -9.479 -19.257  0.00  0.00    -0.352 OA
BRANCH  26  27
ATOM     27  C   UNL     1      31.472 -10.444 -19.010  0.00  0.00    +0.142 C 
ATOM     28  C   UNL     1      31.610 -11.573 -20.010  0.00  0.00    +0.035 C 
ENDBRANCH  26  27
ENDBRANCH  25  26
ENDBRANCH  24  25
ENDBRANCH  19  24
ENDBRANCH  17  19
ENDBRANCH   1  17
TORSDOF 10
ENDMDL
