MODEL 1
REMARK VINA RESULT:      -7.8      0.000      0.000
REMARK  Name = 4369380
REMARK  8 active torsions:
REMARK  status: ('A' for Active; 'I' for Inactive)
REMARK    1  A    between atoms: C_1  and  C_4
REMARK    2  A    between atoms: C_1  and  C_11
REMARK    3  A    between atoms: C_1  and  C_18
REMARK    4  A    between atoms: N_3  and  C_6
REMARK    5  A    between atoms: C_6  and  C_8
REMARK    6  A    between atoms: C_8  and  O_9
REMARK    7  A    between atoms: C_11  and  C_12
REMARK    8  A    between atoms: C_18  and  S_19
REMARK                            x       y       z     vdW  Elec       q    Type
REMARK                         _______ _______ _______ _____ _____    ______ ____
ROOT
ATOM      1  C   UNL     1      35.539 -24.277 -15.164  0.00  0.00    +0.091 C 
ENDROOT
BRANCH   1   4
ATOM      2  O   UNL     1      36.326 -26.515 -15.686  0.00  0.00    -0.275 OA
ATOM      3  N   UNL     1      37.711 -25.115 -14.463  0.00  0.00    -0.295 N 
ATOM      4  C   UNL     1      36.547 -25.433 -15.145  0.00  0.00    +0.224 C 
ATOM      5  H   UNL     1      37.793 -24.219 -14.062  0.00  0.00    +0.150 HD
BRANCH   3   6
ATOM      6  C   UNL     1      38.810 -26.040 -14.314  0.00  0.00    +0.200 C 
BRANCH   6   8
ATOM      7  O   UNL     1      40.871 -24.798 -14.242  0.00  0.00    -0.248 OA
ATOM      8  C   UNL     1      40.104 -25.511 -14.877  0.00  0.00    +0.334 C 
BRANCH   8   9
ATOM      9  O   UNL     1      40.337 -25.897 -16.153  0.00  0.00    -0.479 OA
ATOM     10  H   UNL     1      41.119 -25.623 -16.591  0.00  0.00    +0.295 HD
ENDBRANCH   8   9
ENDBRANCH   6   8
ENDBRANCH   3   6
ENDBRANCH   1   4
BRANCH   1  11
ATOM     11  C   UNL     1      36.224 -22.969 -15.620  0.00  0.00    +0.036 C 
BRANCH  11  12
ATOM     12  C   UNL     1      35.809 -22.505 -16.994  0.00  0.00    -0.022 C 
ATOM     13  C   UNL     1      36.703 -21.778 -17.766  0.00  0.00    -0.004 C 
ATOM     14  C   UNL     1      34.542 -22.812 -17.462  0.00  0.00    -0.004 C 
ATOM     15  C   UNL     1      36.320 -21.349 -19.036  0.00  0.00    -0.000 C 
ATOM     16  C   UNL     1      34.157 -22.383 -18.732  0.00  0.00    -0.000 C 
ATOM     17  C   UNL     1      35.047 -21.651 -19.520  0.00  0.00    -0.000 C 
ENDBRANCH  11  12
ENDBRANCH   1  11
BRANCH   1  18
ATOM     18  C   UNL     1      34.790 -24.174 -13.820  0.00  0.00    +0.063 C 
BRANCH  18  19
ATOM     19  S   UNL     1      32.979 -24.321 -13.940  0.00  0.00    -0.167 S 
ATOM     20  H   UNL     1      32.565 -23.842 -15.144  0.00  0.00    +0.102 HD
ENDBRANCH  18  19
ENDBRANCH   1  18
TORSDOF 8
ENDMDL
MODEL 2
REMARK VINA RESULT:      -7.7      8.542     10.773
REMARK  Name = 4369380
REMARK  8 active torsions:
REMARK  status: ('A' for Active; 'I' for Inactive)
REMARK    1  A    between atoms: C_1  and  C_4
REMARK    2  A    between atoms: C_1  and  C_11
REMARK    3  A    between atoms: C_1  and  C_18
REMARK    4  A    between atoms: N_3  and  C_6
REMARK    5  A    between atoms: C_6  and  C_8
REMARK    6  A    between atoms: C_8  and  O_9
REMARK    7  A    between atoms: C_11  and  C_12
REMARK    8  A    between atoms: C_18  and  S_19
REMARK                            x       y       z     vdW  Elec       q    Type
REMARK                         _______ _______ _______ _____ _____    ______ ____
ROOT
ATOM      1  C   UNL     1      35.022 -17.926 -22.262  0.00  0.00    +0.091 C 
ENDROOT
BRANCH   1   4
ATOM      2  O   UNL     1      35.032 -16.190 -20.562  0.00  0.00    -0.275 OA
ATOM      3  N   UNL     1      34.508 -15.598 -22.742  0.00  0.00    -0.295 N 
ATOM      4  C   UNL     1      34.860 -16.492 -21.742  0.00  0.00    +0.224 C 
ATOM      5  H   UNL     1      34.393 -15.937 -23.659  0.00  0.00    +0.150 HD
BRANCH   3   6
ATOM      6  C   UNL     1      34.304 -14.189 -22.497  0.00  0.00    +0.200 C 
BRANCH   6   8
ATOM      7  O   UNL     1      32.836 -13.935 -24.388  0.00  0.00    -0.248 OA
ATOM      8  C   UNL     1      33.721 -13.465 -23.684  0.00  0.00    +0.334 C 
BRANCH   8   9
ATOM      9  O   UNL     1      34.270 -12.247 -23.898  0.00  0.00    -0.479 OA
ATOM     10  H   UNL     1      35.201 -12.148 -23.906  0.00  0.00    +0.295 HD
ENDBRANCH   8   9
ENDBRANCH   6   8
ENDBRANCH   3   6
ENDBRANCH   1   4
BRANCH   1  11
ATOM     11  C   UNL     1      35.925 -18.746 -21.314  0.00  0.00    +0.036 C 
BRANCH  11  12
ATOM     12  C   UNL     1      35.213 -19.879 -20.616  0.00  0.00    -0.022 C 
ATOM     13  C   UNL     1      35.958 -20.856 -19.973  0.00  0.00    -0.004 C 
ATOM     14  C   UNL     1      33.829 -19.923 -20.629  0.00  0.00    -0.004 C 
ATOM     15  C   UNL     1      35.300 -21.903 -19.328  0.00  0.00    -0.000 C 
ATOM     16  C   UNL     1      33.171 -20.970 -19.984  0.00  0.00    -0.000 C 
ATOM     17  C   UNL     1      33.907 -21.961 -19.333  0.00  0.00    -0.000 C 
ENDBRANCH  11  12
ENDBRANCH   1  11
BRANCH   1  18
ATOM     18  C   UNL     1      35.469 -17.931 -23.738  0.00  0.00    +0.063 C 
BRANCH  18  19
ATOM     19  S   UNL     1      34.287 -18.699 -24.892  0.00  0.00    -0.167 S 
ATOM     20  H   UNL     1      34.843 -18.766 -26.132  0.00  0.00    +0.102 HD
ENDBRANCH  18  19
ENDBRANCH   1  18
TORSDOF 8
ENDMDL
MODEL 3
REMARK VINA RESULT:      -7.7      8.120     10.464
REMARK  Name = 4369380
REMARK  8 active torsions:
REMARK  status: ('A' for Active; 'I' for Inactive)
REMARK    1  A    between atoms: C_1  and  C_4
REMARK    2  A    between atoms: C_1  and  C_11
REMARK    3  A    between atoms: C_1  and  C_18
REMARK    4  A    between atoms: N_3  and  C_6
REMARK    5  A    between atoms: C_6  and  C_8
REMARK    6  A    between atoms: C_8  and  O_9
REMARK    7  A    between atoms: C_11  and  C_12
REMARK    8  A    between atoms: C_18  and  S_19
REMARK                            x       y       z     vdW  Elec       q    Type
REMARK                         _______ _______ _______ _____ _____    ______ ____
ROOT
ATOM      1  C   UNL     1      35.031 -17.950 -22.226  0.00  0.00    +0.091 C 
ENDROOT
BRANCH   1   4
ATOM      2  O   UNL     1      35.096 -16.306 -20.438  0.00  0.00    -0.275 OA
ATOM      3  N   UNL     1      34.479 -15.606 -22.561  0.00  0.00    -0.295 N 
ATOM      4  C   UNL     1      34.879 -16.547 -21.624  0.00  0.00    +0.224 C 
ATOM      5  H   UNL     1      34.329 -15.898 -23.489  0.00  0.00    +0.150 HD
BRANCH   3   6
ATOM      6  C   UNL     1      34.273 -14.214 -22.234  0.00  0.00    +0.200 C 
BRANCH   6   8
ATOM      7  O   UNL     1      32.547 -14.011 -20.567  0.00  0.00    -0.248 OA
ATOM      8  C   UNL     1      32.876 -13.926 -21.744  0.00  0.00    +0.334 C 
BRANCH   8   9
ATOM      9  O   UNL     1      32.021 -13.567 -22.729  0.00  0.00    -0.479 OA
ATOM     10  H   UNL     1      31.849 -14.156 -23.438  0.00  0.00    +0.295 HD
ENDBRANCH   8   9
ENDBRANCH   6   8
ENDBRANCH   3   6
ENDBRANCH   1   4
BRANCH   1  11
ATOM     11  C   UNL     1      35.948 -18.822 -21.339  0.00  0.00    +0.036 C 
BRANCH  11  12
ATOM     12  C   UNL     1      35.229 -19.938 -20.622  0.00  0.00    -0.022 C 
ATOM     13  C   UNL     1      33.843 -19.986 -20.655  0.00  0.00    -0.004 C 
ATOM     14  C   UNL     1      35.965 -20.896 -19.944  0.00  0.00    -0.004 C 
ATOM     15  C   UNL     1      33.179 -21.018 -19.993  0.00  0.00    -0.000 C 
ATOM     16  C   UNL     1      35.300 -21.929 -19.282  0.00  0.00    -0.000 C 
ATOM     17  C   UNL     1      33.906 -21.989 -19.306  0.00  0.00    -0.000 C 
ENDBRANCH  11  12
ENDBRANCH   1  11
BRANCH   1  18
ATOM     18  C   UNL     1      35.454 -17.874 -23.706  0.00  0.00    +0.063 C 
BRANCH  18  19
ATOM     19  S   UNL     1      34.350 -18.747 -24.863  0.00  0.00    -0.167 S 
ATOM     20  H   UNL     1      34.503 -18.230 -26.112  0.00  0.00    +0.102 HD
ENDBRANCH  18  19
ENDBRANCH   1  18
TORSDOF 8
ENDMDL
MODEL 4
REMARK VINA RESULT:      -7.6      8.082     10.394
REMARK  Name = 4369380
REMARK  8 active torsions:
REMARK  status: ('A' for Active; 'I' for Inactive)
REMARK    1  A    between atoms: C_1  and  C_4
REMARK    2  A    between atoms: C_1  and  C_11
REMARK    3  A    between atoms: C_1  and  C_18
REMARK    4  A    between atoms: N_3  and  C_6
REMARK    5  A    between atoms: C_6  and  C_8
REMARK    6  A    between atoms: C_8  and  O_9
REMARK    7  A    between atoms: C_11  and  C_12
REMARK    8  A    between atoms: C_18  and  S_19
REMARK                            x       y       z     vdW  Elec       q    Type
REMARK                         _______ _______ _______ _____ _____    ______ ____
ROOT
ATOM      1  C   UNL     1      34.904 -18.353 -21.900  0.00  0.00    +0.091 C 
ENDROOT
BRANCH   1   4
ATOM      2  O   UNL     1      34.903 -19.364 -24.109  0.00  0.00    -0.275 OA
ATOM      3  N   UNL     1      34.670 -17.063 -23.947  0.00  0.00    -0.295 N 
ATOM      4  C   UNL     1      34.829 -18.340 -23.432  0.00  0.00    +0.224 C 
ATOM      5  H   UNL     1      34.622 -16.304 -23.321  0.00  0.00    +0.150 HD
BRANCH   3   6
ATOM      6  C   UNL     1      34.570 -16.797 -25.363  0.00  0.00    +0.200 C 
BRANCH   6   8
ATOM      7  O   UNL     1      33.485 -15.213 -26.816  0.00  0.00    -0.248 OA
ATOM      8  C   UNL     1      33.722 -15.589 -25.676  0.00  0.00    +0.334 C 
BRANCH   8   9
ATOM      9  O   UNL     1      33.250 -14.961 -24.574  0.00  0.00    -0.479 OA
ATOM     10  H   UNL     1      32.536 -14.358 -24.648  0.00  0.00    +0.295 HD
ENDBRANCH   8   9
ENDBRANCH   6   8
ENDBRANCH   3   6
ENDBRANCH   1   4
BRANCH   1  11
ATOM     11  C   UNL     1      33.716 -19.145 -21.308  0.00  0.00    +0.036 C 
BRANCH  11  12
ATOM     12  C   UNL     1      34.126 -20.275 -20.395  0.00  0.00    -0.022 C 
ATOM     13  C   UNL     1      35.473 -20.550 -20.215  0.00  0.00    -0.004 C 
ATOM     14  C   UNL     1      33.149 -21.018 -19.752  0.00  0.00    -0.004 C 
ATOM     15  C   UNL     1      35.851 -21.594 -19.371  0.00  0.00    -0.000 C 
ATOM     16  C   UNL     1      33.527 -22.063 -18.908  0.00  0.00    -0.000 C 
ATOM     17  C   UNL     1      34.879 -22.351 -18.718  0.00  0.00    -0.000 C 
ENDBRANCH  11  12
ENDBRANCH   1  11
BRANCH   1  18
ATOM     18  C   UNL     1      35.063 -16.925 -21.341  0.00  0.00    +0.063 C 
BRANCH  18  19
ATOM     19  S   UNL     1      33.504 -16.106 -20.877  0.00  0.00    -0.167 S 
ATOM     20  H   UNL     1      33.096 -15.300 -21.894  0.00  0.00    +0.102 HD
ENDBRANCH  18  19
ENDBRANCH   1  18
TORSDOF 8
ENDMDL
MODEL 5
REMARK VINA RESULT:      -7.6      4.820      5.899
REMARK  Name = 4369380
REMARK  8 active torsions:
REMARK  status: ('A' for Active; 'I' for Inactive)
REMARK    1  A    between atoms: C_1  and  C_4
REMARK    2  A    between atoms: C_1  and  C_11
REMARK    3  A    between atoms: C_1  and  C_18
REMARK    4  A    between atoms: N_3  and  C_6
REMARK    5  A    between atoms: C_6  and  C_8
REMARK    6  A    between atoms: C_8  and  O_9
REMARK    7  A    between atoms: C_11  and  C_12
REMARK    8  A    between atoms: C_18  and  S_19
REMARK                            x       y       z     vdW  Elec       q    Type
REMARK                         _______ _______ _______ _____ _____    ______ ____
ROOT
ATOM      1  C   UNL     1      33.540 -22.812 -17.031  0.00  0.00    +0.091 C 
ENDROOT
BRANCH   1   4
ATOM      2  O   UNL     1      31.148 -22.542 -17.359  0.00  0.00    -0.275 OA
ATOM      3  N   UNL     1      31.896 -23.399 -15.339  0.00  0.00    -0.295 N 
ATOM      4  C   UNL     1      32.065 -22.892 -16.618  0.00  0.00    +0.224 C 
ATOM      5  H   UNL     1      32.695 -23.651 -14.822  0.00  0.00    +0.150 HD
BRANCH   3   6
ATOM      6  C   UNL     1      30.597 -23.573 -14.731  0.00  0.00    +0.200 C 
BRANCH   6   8
ATOM      7  O   UNL     1      30.148 -25.937 -14.817  0.00  0.00    -0.248 OA
ATOM      8  C   UNL     1      30.404 -24.948 -14.142  0.00  0.00    +0.334 C 
BRANCH   8   9
ATOM      9  O   UNL     1      30.539 -24.984 -12.796  0.00  0.00    -0.479 OA
ATOM     10  H   UNL     1      31.342 -25.276 -12.413  0.00  0.00    +0.295 HD
ENDBRANCH   8   9
ENDBRANCH   6   8
ENDBRANCH   3   6
ENDBRANCH   1   4
BRANCH   1  11
ATOM     11  C   UNL     1      33.695 -23.102 -18.541  0.00  0.00    +0.036 C 
BRANCH  11  12
ATOM     12  C   UNL     1      34.139 -21.910 -19.353  0.00  0.00    -0.022 C 
ATOM     13  C   UNL     1      35.494 -21.679 -19.536  0.00  0.00    -0.004 C 
ATOM     14  C   UNL     1      33.186 -21.067 -19.901  0.00  0.00    -0.004 C 
ATOM     15  C   UNL     1      35.905 -20.577 -20.286  0.00  0.00    -0.000 C 
ATOM     16  C   UNL     1      33.596 -19.965 -20.651  0.00  0.00    -0.000 C 
ATOM     17  C   UNL     1      34.956 -19.719 -20.844  0.00  0.00    -0.000 C 
ENDBRANCH  11  12
ENDBRANCH   1  11
BRANCH   1  18
ATOM     18  C   UNL     1      34.419 -23.689 -16.117  0.00  0.00    +0.063 C 
BRANCH  18  19
ATOM     19  S   UNL     1      36.055 -22.989 -15.728  0.00  0.00    -0.167 S 
ATOM     20  H   UNL     1      36.843 -23.955 -15.185  0.00  0.00    +0.102 HD
ENDBRANCH  18  19
ENDBRANCH   1  18
TORSDOF 8
ENDMDL
MODEL 6
REMARK VINA RESULT:      -7.2      4.877      6.955
REMARK  Name = 4369380
REMARK  8 active torsions:
REMARK  status: ('A' for Active; 'I' for Inactive)
REMARK    1  A    between atoms: C_1  and  C_4
REMARK    2  A    between atoms: C_1  and  C_11
REMARK    3  A    between atoms: C_1  and  C_18
REMARK    4  A    between atoms: N_3  and  C_6
REMARK    5  A    between atoms: C_6  and  C_8
REMARK    6  A    between atoms: C_8  and  O_9
REMARK    7  A    between atoms: C_11  and  C_12
REMARK    8  A    between atoms: C_18  and  S_19
REMARK                            x       y       z     vdW  Elec       q    Type
REMARK                         _______ _______ _______ _____ _____    ______ ____
ROOT
ATOM      1  C   UNL     1      32.685 -22.922 -16.214  0.00  0.00    +0.091 C 
ENDROOT
BRANCH   1   4
ATOM      2  O   UNL     1      31.177 -24.646 -15.404  0.00  0.00    -0.275 OA
ATOM      3  N   UNL     1      30.274 -22.627 -16.101  0.00  0.00    -0.295 N 
ATOM      4  C   UNL     1      31.314 -23.511 -15.857  0.00  0.00    +0.224 C 
ATOM      5  H   UNL     1      30.487 -21.738 -16.467  0.00  0.00    +0.150 HD
BRANCH   3   6
ATOM      6  C   UNL     1      28.892 -22.954 -15.839  0.00  0.00    +0.200 C 
BRANCH   6   8
ATOM      7  O   UNL     1      27.432 -21.486 -17.070  0.00  0.00    -0.248 OA
ATOM      8  C   UNL     1      27.975 -22.580 -16.977  0.00  0.00    +0.334 C 
BRANCH   8   9
ATOM      9  O   UNL     1      27.809 -23.570 -17.884  0.00  0.00    -0.479 OA
ATOM     10  H   UNL     1      27.318 -23.411 -18.666  0.00  0.00    +0.295 HD
ENDBRANCH   8   9
ENDBRANCH   6   8
ENDBRANCH   3   6
ENDBRANCH   1   4
BRANCH   1  11
ATOM     11  C   UNL     1      33.173 -23.473 -17.573  0.00  0.00    +0.036 C 
BRANCH  11  12
ATOM     12  C   UNL     1      33.696 -22.414 -18.512  0.00  0.00    -0.022 C 
ATOM     13  C   UNL     1      35.064 -22.284 -18.697  0.00  0.00    -0.004 C 
ATOM     14  C   UNL     1      32.800 -21.591 -19.175  0.00  0.00    -0.004 C 
ATOM     15  C   UNL     1      35.547 -21.305 -19.565  0.00  0.00    -0.000 C 
ATOM     16  C   UNL     1      33.282 -20.612 -20.043  0.00  0.00    -0.000 C 
ATOM     17  C   UNL     1      34.657 -20.469 -20.239  0.00  0.00    -0.000 C 
ENDBRANCH  11  12
ENDBRANCH   1  11
BRANCH   1  18
ATOM     18  C   UNL     1      33.684 -23.103 -15.053  0.00  0.00    +0.063 C 
BRANCH  18  19
ATOM     19  S   UNL     1      35.036 -24.278 -15.383  0.00  0.00    -0.167 S 
ATOM     20  H   UNL     1      34.692 -25.083 -16.424  0.00  0.00    +0.102 HD
ENDBRANCH  18  19
ENDBRANCH   1  18
TORSDOF 8
ENDMDL
MODEL 7
REMARK VINA RESULT:      -7.1      9.386     11.811
REMARK  Name = 4369380
REMARK  8 active torsions:
REMARK  status: ('A' for Active; 'I' for Inactive)
REMARK    1  A    between atoms: C_1  and  C_4
REMARK    2  A    between atoms: C_1  and  C_11
REMARK    3  A    between atoms: C_1  and  C_18
REMARK    4  A    between atoms: N_3  and  C_6
REMARK    5  A    between atoms: C_6  and  C_8
REMARK    6  A    between atoms: C_8  and  O_9
REMARK    7  A    between atoms: C_11  and  C_12
REMARK    8  A    between atoms: C_18  and  S_19
REMARK                            x       y       z     vdW  Elec       q    Type
REMARK                         _______ _______ _______ _____ _____    ______ ____
ROOT
ATOM      1  C   UNL     1      34.834 -15.814 -22.048  0.00  0.00    +0.091 C 
ENDROOT
BRANCH   1   4
ATOM      2  O   UNL     1      34.437 -13.497 -22.662  0.00  0.00    -0.275 OA
ATOM      3  N   UNL     1      33.614 -15.163 -24.048  0.00  0.00    -0.295 N 
ATOM      4  C   UNL     1      34.285 -14.687 -22.932  0.00  0.00    +0.224 C 
ATOM      5  H   UNL     1      33.544 -16.137 -24.176  0.00  0.00    +0.150 HD
BRANCH   3   6
ATOM      6  C   UNL     1      33.012 -14.293 -25.031  0.00  0.00    +0.200 C 
BRANCH   6   8
ATOM      7  O   UNL     1      33.598 -14.012 -27.349  0.00  0.00    -0.248 OA
ATOM      8  C   UNL     1      33.242 -14.759 -26.447  0.00  0.00    +0.334 C 
BRANCH   8   9
ATOM      9  O   UNL     1      33.014 -16.080 -26.625  0.00  0.00    -0.479 OA
ATOM     10  H   UNL     1      32.992 -16.656 -25.886  0.00  0.00    +0.295 HD
ENDBRANCH   8   9
ENDBRANCH   6   8
ENDBRANCH   3   6
ENDBRANCH   1   4
BRANCH   1  11
ATOM     11  C   UNL     1      34.554 -17.191 -22.691  0.00  0.00    +0.036 C 
BRANCH  11  12
ATOM     12  C   UNL     1      34.890 -18.363 -21.803  0.00  0.00    -0.022 C 
ATOM     13  C   UNL     1      33.871 -19.183 -21.344  0.00  0.00    -0.004 C 
ATOM     14  C   UNL     1      36.212 -18.600 -21.461  0.00  0.00    -0.004 C 
ATOM     15  C   UNL     1      34.181 -20.267 -20.523  0.00  0.00    -0.000 C 
ATOM     16  C   UNL     1      36.523 -19.684 -20.639  0.00  0.00    -0.000 C 
ATOM     17  C   UNL     1      35.507 -20.518 -20.170  0.00  0.00    -0.000 C 
ENDBRANCH  11  12
ENDBRANCH   1  11
BRANCH   1  18
ATOM     18  C   UNL     1      34.336 -15.671 -20.596  0.00  0.00    +0.063 C 
BRANCH  18  19
ATOM     19  S   UNL     1      32.540 -15.417 -20.426  0.00  0.00    -0.167 S 
ATOM     20  H   UNL     1      32.002 -16.446 -19.717  0.00  0.00    +0.102 HD
ENDBRANCH  18  19
ENDBRANCH   1  18
TORSDOF 8
ENDMDL
MODEL 8
REMARK VINA RESULT:      -7.0     11.026     13.366
REMARK  Name = 4369380
REMARK  8 active torsions:
REMARK  status: ('A' for Active; 'I' for Inactive)
REMARK    1  A    between atoms: C_1  and  C_4
REMARK    2  A    between atoms: C_1  and  C_11
REMARK    3  A    between atoms: C_1  and  C_18
REMARK    4  A    between atoms: N_3  and  C_6
REMARK    5  A    between atoms: C_6  and  C_8
REMARK    6  A    between atoms: C_8  and  O_9
REMARK    7  A    between atoms: C_11  and  C_12
REMARK    8  A    between atoms: C_18  and  S_19
REMARK                            x       y       z     vdW  Elec       q    Type
REMARK                         _______ _______ _______ _____ _____    ______ ____
ROOT
ATOM      1  C   UNL     1      33.146 -14.561 -23.149  0.00  0.00    +0.091 C 
ENDROOT
BRANCH   1   4
ATOM      2  O   UNL     1      32.663 -14.109 -20.812  0.00  0.00    -0.275 OA
ATOM      3  N   UNL     1      31.866 -12.630 -22.409  0.00  0.00    -0.295 N 
ATOM      4  C   UNL     1      32.544 -13.763 -21.986  0.00  0.00    +0.224 C 
ATOM      5  H   UNL     1      31.825 -12.438 -23.374  0.00  0.00    +0.150 HD
BRANCH   3   6
ATOM      6  C   UNL     1      31.218 -11.717 -21.496  0.00  0.00    +0.200 C 
BRANCH   6   8
ATOM      7  O   UNL     1      31.555  -9.761 -22.859  0.00  0.00    -0.248 OA
ATOM      8  C   UNL     1      31.583 -10.276 -21.749  0.00  0.00    +0.334 C 
BRANCH   8   9
ATOM      9  O   UNL     1      31.947  -9.607 -20.630  0.00  0.00    -0.479 OA
ATOM     10  H   UNL     1      31.338  -9.032 -20.210  0.00  0.00    +0.295 HD
ENDBRANCH   8   9
ENDBRANCH   6   8
ENDBRANCH   3   6
ENDBRANCH   1   4
BRANCH   1  11
ATOM     11  C   UNL     1      34.556 -15.074 -22.780  0.00  0.00    +0.036 C 
BRANCH  11  12
ATOM     12  C   UNL     1      34.649 -16.575 -22.657  0.00  0.00    -0.022 C 
ATOM     13  C   UNL     1      34.910 -17.336 -23.786  0.00  0.00    -0.004 C 
ATOM     14  C   UNL     1      34.474 -17.168 -21.416  0.00  0.00    -0.004 C 
ATOM     15  C   UNL     1      34.997 -18.723 -23.673  0.00  0.00    -0.000 C 
ATOM     16  C   UNL     1      34.560 -18.556 -21.302  0.00  0.00    -0.000 C 
ATOM     17  C   UNL     1      34.821 -19.334 -22.431  0.00  0.00    -0.000 C 
ENDBRANCH  11  12
ENDBRANCH   1  11
BRANCH   1  18
ATOM     18  C   UNL     1      33.080 -13.756 -24.463  0.00  0.00    +0.063 C 
BRANCH  18  19
ATOM     19  S   UNL     1      33.052 -14.768 -25.978  0.00  0.00    -0.167 S 
ATOM     20  H   UNL     1      34.325 -14.962 -26.417  0.00  0.00    +0.102 HD
ENDBRANCH  18  19
ENDBRANCH   1  18
TORSDOF 8
ENDMDL
MODEL 9
REMARK VINA RESULT:      -7.0     13.196     15.268
REMARK  Name = 4369380
REMARK  8 active torsions:
REMARK  status: ('A' for Active; 'I' for Inactive)
REMARK    1  A    between atoms: C_1  and  C_4
REMARK    2  A    between atoms: C_1  and  C_11
REMARK    3  A    between atoms: C_1  and  C_18
REMARK    4  A    between atoms: N_3  and  C_6
REMARK    5  A    between atoms: C_6  and  C_8
REMARK    6  A    between atoms: C_8  and  O_9
REMARK    7  A    between atoms: C_11  and  C_12
REMARK    8  A    between atoms: C_18  and  S_19
REMARK                            x       y       z     vdW  Elec       q    Type
REMARK                         _______ _______ _______ _____ _____    ______ ____
ROOT
ATOM      1  C   UNL     1      33.924 -10.243 -23.711  0.00  0.00    +0.091 C 
ENDROOT
BRANCH   1   4
ATOM      2  O   UNL     1      33.958 -11.656 -25.686  0.00  0.00    -0.275 OA
ATOM      3  N   UNL     1      33.942 -12.672 -23.602  0.00  0.00    -0.295 N 
ATOM      4  C   UNL     1      33.942 -11.582 -24.459  0.00  0.00    +0.224 C 
ATOM      5  H   UNL     1      33.928 -12.508 -22.631  0.00  0.00    +0.150 HD
BRANCH   3   6
ATOM      6  C   UNL     1      33.962 -14.037 -24.071  0.00  0.00    +0.200 C 
BRANCH   6   8
ATOM      7  O   UNL     1      34.398 -14.954 -21.888  0.00  0.00    -0.248 OA
ATOM      8  C   UNL     1      34.610 -14.985 -23.094  0.00  0.00    +0.334 C 
BRANCH   8   9
ATOM      9  O   UNL     1      35.448 -15.873 -23.676  0.00  0.00    -0.479 OA
ATOM     10  H   UNL     1      35.883 -16.519 -23.154  0.00  0.00    +0.295 HD
ENDBRANCH   8   9
ENDBRANCH   6   8
ENDBRANCH   3   6
ENDBRANCH   1   4
BRANCH   1  11
ATOM     11  C   UNL     1      32.471  -9.785 -23.456  0.00  0.00    +0.036 C 
BRANCH  11  12
ATOM     12  C   UNL     1      32.015  -9.954 -22.028  0.00  0.00    -0.022 C 
ATOM     13  C   UNL     1      32.338  -8.985 -21.091  0.00  0.00    -0.004 C 
ATOM     14  C   UNL     1      31.280 -11.076 -21.677  0.00  0.00    -0.004 C 
ATOM     15  C   UNL     1      31.917  -9.141 -19.771  0.00  0.00    -0.000 C 
ATOM     16  C   UNL     1      30.859 -11.233 -20.356  0.00  0.00    -0.000 C 
ATOM     17  C   UNL     1      31.177 -10.265 -19.403  0.00  0.00    -0.000 C 
ENDBRANCH  11  12
ENDBRANCH   1  11
BRANCH   1  18
ATOM     18  C   UNL     1      34.810  -9.200 -24.422  0.00  0.00    +0.063 C 
BRANCH  18  19
ATOM     19  S   UNL     1      34.691  -7.511 -23.751  0.00  0.00    -0.167 S 
ATOM     20  H   UNL     1      33.384  -7.142 -23.681  0.00  0.00    +0.102 HD
ENDBRANCH  18  19
ENDBRANCH   1  18
TORSDOF 8
ENDMDL
