MODEL 1
REMARK VINA RESULT:      -9.2      0.000      0.000
REMARK  Name = 16095349
REMARK  1 active torsions:
REMARK  status: ('A' for Active; 'I' for Inactive)
REMARK    1  A    between atoms: C_1  and  C_12
REMARK                            x       y       z     vdW  Elec       q    Type
REMARK                         _______ _______ _______ _____ _____    ______ ____
ROOT
ATOM      1  C   UNL     1      34.416 -17.691 -21.479  0.00  0.00    -0.025 C 
ATOM      2  C   UNL     1      33.551 -18.659 -20.970  0.00  0.00    -0.004 C 
ATOM      3  C   UNL     1      35.789 -17.920 -21.490  0.00  0.00    -0.004 C 
ATOM      4  C   UNL     1      34.049 -19.870 -20.463  0.00  0.00    -0.000 C 
ATOM      5  C   UNL     1      36.301 -19.118 -20.991  0.00  0.00    -0.000 C 
ATOM      6  C   UNL     1      35.445 -20.103 -20.474  0.00  0.00    -0.000 C 
ATOM      7  C   UNL     1      33.192 -20.855 -19.946  0.00  0.00    -0.000 C 
ATOM      8  C   UNL     1      35.943 -21.315 -19.967  0.00  0.00    -0.000 C 
ATOM      9  C   UNL     1      33.703 -22.054 -19.447  0.00  0.00    -0.000 C 
ATOM     10  C   UNL     1      35.076 -22.282 -19.457  0.00  0.00    -0.000 C 
ENDROOT
BRANCH   1  12
ATOM     11  N   UNL     1      34.019 -14.737 -23.656  0.00  0.00    +0.384 N 
ATOM     12  C   UNL     1      33.871 -16.411 -22.013  0.00  0.00    -0.003 C 
ATOM     13  C   UNL     1      34.172 -15.125 -21.343  0.00  0.00    -0.019 C 
ATOM     14  C   UNL     1      32.797 -15.727 -21.208  0.00  0.00    +0.000 C 
ATOM     15  C   UNL     1      34.019 -16.198 -23.485  0.00  0.00    -0.078 C 
ATOM     16  C   UNL     1      34.505 -14.130 -22.408  0.00  0.00    -0.081 C 
ATOM     17  H   UNL     1      33.072 -14.413 -23.854  0.00  0.00    -0.085 HD
ATOM     18  H   UNL     1      34.622 -14.473 -24.435  0.00  0.00    -0.085 HD
ENDBRANCH   1  12
TORSDOF 1
ENDMDL
MODEL 2
REMARK VINA RESULT:      -9.2      1.633      2.934
REMARK  Name = 16095349
REMARK  1 active torsions:
REMARK  status: ('A' for Active; 'I' for Inactive)
REMARK    1  A    between atoms: C_1  and  C_12
REMARK                            x       y       z     vdW  Elec       q    Type
REMARK                         _______ _______ _______ _____ _____    ______ ____
ROOT
ATOM      1  C   UNL     1      34.668 -19.369 -21.531  0.00  0.00    -0.025 C 
ATOM      2  C   UNL     1      35.557 -20.032 -20.685  0.00  0.00    -0.004 C 
ATOM      3  C   UNL     1      33.300 -19.604 -21.427  0.00  0.00    -0.004 C 
ATOM      4  C   UNL     1      35.088 -20.941 -19.723  0.00  0.00    -0.000 C 
ATOM      5  C   UNL     1      32.817 -20.503 -20.475  0.00  0.00    -0.000 C 
ATOM      6  C   UNL     1      33.698 -21.180 -19.617  0.00  0.00    -0.000 C 
ATOM      7  C   UNL     1      35.969 -21.618 -18.865  0.00  0.00    -0.000 C 
ATOM      8  C   UNL     1      33.229 -22.090 -18.654  0.00  0.00    -0.000 C 
ATOM      9  C   UNL     1      35.487 -22.517 -17.913  0.00  0.00    -0.000 C 
ATOM     10  C   UNL     1      34.119 -22.753 -17.809  0.00  0.00    -0.000 C 
ENDROOT
BRANCH   1  12
ATOM     11  N   UNL     1      35.271 -16.178 -23.285  0.00  0.00    +0.384 N 
ATOM     12  C   UNL     1      35.182 -18.408 -22.547  0.00  0.00    -0.003 C 
ATOM     13  C   UNL     1      34.574 -18.338 -23.895  0.00  0.00    -0.019 C 
ATOM     14  C   UNL     1      35.928 -18.978 -23.725  0.00  0.00    +0.000 C 
ATOM     15  C   UNL     1      35.393 -17.005 -22.075  0.00  0.00    -0.078 C 
ATOM     16  C   UNL     1      34.415 -16.893 -24.244  0.00  0.00    -0.081 C 
ATOM     17  H   UNL     1      36.193 -16.024 -23.692  0.00  0.00    -0.085 HD
ATOM     18  H   UNL     1      34.862 -15.273 -23.054  0.00  0.00    -0.085 HD
ENDBRANCH   1  12
TORSDOF 1
ENDMDL
MODEL 3
REMARK VINA RESULT:      -8.9      1.362      1.643
REMARK  Name = 16095349
REMARK  1 active torsions:
REMARK  status: ('A' for Active; 'I' for Inactive)
REMARK    1  A    between atoms: C_1  and  C_12
REMARK                            x       y       z     vdW  Elec       q    Type
REMARK                         _______ _______ _______ _____ _____    ______ ____
ROOT
ATOM      1  C   UNL     1      34.923 -18.748 -21.807  0.00  0.00    -0.025 C 
ATOM      2  C   UNL     1      33.978 -19.588 -21.216  0.00  0.00    -0.004 C 
ATOM      3  C   UNL     1      36.262 -18.837 -21.437  0.00  0.00    -0.004 C 
ATOM      4  C   UNL     1      34.362 -20.529 -20.247  0.00  0.00    -0.000 C 
ATOM      5  C   UNL     1      36.661 -19.767 -20.477  0.00  0.00    -0.000 C 
ATOM      6  C   UNL     1      35.723 -20.620 -19.872  0.00  0.00    -0.000 C 
ATOM      7  C   UNL     1      33.424 -21.381 -19.643  0.00  0.00    -0.000 C 
ATOM      8  C   UNL     1      36.107 -21.562 -18.903  0.00  0.00    -0.000 C 
ATOM      9  C   UNL     1      33.822 -22.312 -18.682  0.00  0.00    -0.000 C 
ATOM     10  C   UNL     1      35.161 -22.401 -18.312  0.00  0.00    -0.000 C 
ENDROOT
BRANCH   1  12
ATOM     11  N   UNL     1      34.484 -17.150 -25.104  0.00  0.00    +0.384 N 
ATOM     12  C   UNL     1      34.499 -17.755 -22.833  0.00  0.00    -0.003 C 
ATOM     13  C   UNL     1      35.214 -16.467 -22.977  0.00  0.00    -0.019 C 
ATOM     14  C   UNL     1      33.848 -16.487 -22.343  0.00  0.00    +0.000 C 
ATOM     15  C   UNL     1      34.258 -18.293 -24.207  0.00  0.00    -0.078 C 
ATOM     16  C   UNL     1      35.410 -16.221 -24.439  0.00  0.00    -0.081 C 
ATOM     17  H   UNL     1      33.598 -16.679 -25.293  0.00  0.00    -0.085 HD
ATOM     18  H   UNL     1      34.878 -17.468 -25.989  0.00  0.00    -0.085 HD
ENDBRANCH   1  12
TORSDOF 1
ENDMDL
MODEL 4
REMARK VINA RESULT:      -8.7      5.875      8.585
REMARK  Name = 16095349
REMARK  1 active torsions:
REMARK  status: ('A' for Active; 'I' for Inactive)
REMARK    1  A    between atoms: C_1  and  C_12
REMARK                            x       y       z     vdW  Elec       q    Type
REMARK                         _______ _______ _______ _____ _____    ______ ____
ROOT
ATOM      1  C   UNL     1      32.889 -23.320 -15.675  0.00  0.00    -0.025 C 
ATOM      2  C   UNL     1      32.923 -22.994 -17.031  0.00  0.00    -0.004 C 
ATOM      3  C   UNL     1      34.048 -23.234 -14.909  0.00  0.00    -0.004 C 
ATOM      4  C   UNL     1      34.119 -22.578 -17.638  0.00  0.00    -0.000 C 
ATOM      5  C   UNL     1      35.245 -22.821 -15.496  0.00  0.00    -0.000 C 
ATOM      6  C   UNL     1      35.297 -22.490 -16.859  0.00  0.00    -0.000 C 
ATOM      7  C   UNL     1      34.171 -22.247 -19.002  0.00  0.00    -0.000 C 
ATOM      8  C   UNL     1      36.493 -22.074 -17.467  0.00  0.00    -0.000 C 
ATOM      9  C   UNL     1      35.367 -21.834 -19.590  0.00  0.00    -0.000 C 
ATOM     10  C   UNL     1      36.526 -21.749 -18.824  0.00  0.00    -0.000 C 
ENDROOT
BRANCH   1  12
ATOM     11  N   UNL     1      30.362 -25.541 -14.158  0.00  0.00    +0.384 N 
ATOM     12  C   UNL     1      31.612 -23.760 -15.046  0.00  0.00    -0.003 C 
ATOM     13  C   UNL     1      30.387 -23.921 -15.861  0.00  0.00    -0.019 C 
ATOM     14  C   UNL     1      30.509 -22.740 -14.934  0.00  0.00    +0.000 C 
ATOM     15  C   UNL     1      31.703 -24.938 -14.131  0.00  0.00    -0.078 C 
ATOM     16  C   UNL     1      29.732 -25.198 -15.442  0.00  0.00    -0.081 C 
ATOM     17  H   UNL     1      29.802 -25.173 -13.389  0.00  0.00    -0.085 HD
ATOM     18  H   UNL     1      30.428 -26.554 -14.057  0.00  0.00    -0.085 HD
ENDBRANCH   1  12
TORSDOF 1
ENDMDL
MODEL 5
REMARK VINA RESULT:      -8.5      2.401      3.974
REMARK  Name = 16095349
REMARK  1 active torsions:
REMARK  status: ('A' for Active; 'I' for Inactive)
REMARK    1  A    between atoms: C_1  and  C_12
REMARK                            x       y       z     vdW  Elec       q    Type
REMARK                         _______ _______ _______ _____ _____    ______ ____
ROOT
ATOM      1  C   UNL     1      33.832 -15.181 -24.282  0.00  0.00    -0.025 C 
ATOM      2  C   UNL     1      34.181 -15.517 -22.974  0.00  0.00    -0.004 C 
ATOM      3  C   UNL     1      33.932 -16.131 -25.295  0.00  0.00    -0.004 C 
ATOM      4  C   UNL     1      34.636 -16.808 -22.661  0.00  0.00    -0.000 C 
ATOM      5  C   UNL     1      34.381 -17.419 -25.002  0.00  0.00    -0.000 C 
ATOM      6  C   UNL     1      34.737 -17.774 -23.691  0.00  0.00    -0.000 C 
ATOM      7  C   UNL     1      34.992 -17.162 -21.350  0.00  0.00    -0.000 C 
ATOM      8  C   UNL     1      35.192 -19.066 -23.378  0.00  0.00    -0.000 C 
ATOM      9  C   UNL     1      35.441 -18.450 -21.056  0.00  0.00    -0.000 C 
ATOM     10  C   UNL     1      35.542 -19.400 -22.069  0.00  0.00    -0.000 C 
ENDROOT
BRANCH   1  12
ATOM     11  N   UNL     1      33.495 -11.946 -26.024  0.00  0.00    +0.384 N 
ATOM     12  C   UNL     1      33.352 -13.806 -24.596  0.00  0.00    -0.003 C 
ATOM     13  C   UNL     1      33.818 -12.645 -23.804  0.00  0.00    -0.019 C 
ATOM     14  C   UNL     1      32.415 -13.158 -23.610  0.00  0.00    +0.000 C 
ATOM     15  C   UNL     1      33.387 -13.412 -26.037  0.00  0.00    -0.078 C 
ATOM     16  C   UNL     1      34.138 -11.545 -24.764  0.00  0.00    -0.081 C 
ATOM     17  H   UNL     1      32.565 -11.530 -26.086  0.00  0.00    -0.085 HD
ATOM     18  H   UNL     1      34.048 -11.625 -26.820  0.00  0.00    -0.085 HD
ENDBRANCH   1  12
TORSDOF 1
ENDMDL
MODEL 6
REMARK VINA RESULT:      -8.5      2.463      6.608
REMARK  Name = 16095349
REMARK  1 active torsions:
REMARK  status: ('A' for Active; 'I' for Inactive)
REMARK    1  A    between atoms: C_1  and  C_12
REMARK                            x       y       z     vdW  Elec       q    Type
REMARK                         _______ _______ _______ _____ _____    ______ ____
ROOT
ATOM      1  C   UNL     1      34.495 -16.579 -23.011  0.00  0.00    -0.025 C 
ATOM      2  C   UNL     1      34.095 -16.416 -24.338  0.00  0.00    -0.004 C 
ATOM      3  C   UNL     1      34.609 -15.471 -22.177  0.00  0.00    -0.004 C 
ATOM      4  C   UNL     1      33.805 -15.140 -24.847  0.00  0.00    -0.000 C 
ATOM      5  C   UNL     1      34.324 -14.196 -22.666  0.00  0.00    -0.000 C 
ATOM      6  C   UNL     1      33.921 -14.013 -23.999  0.00  0.00    -0.000 C 
ATOM      7  C   UNL     1      33.402 -14.958 -26.180  0.00  0.00    -0.000 C 
ATOM      8  C   UNL     1      33.630 -12.737 -24.509  0.00  0.00    -0.000 C 
ATOM      9  C   UNL     1      33.117 -13.683 -26.670  0.00  0.00    -0.000 C 
ATOM     10  C   UNL     1      33.232 -12.575 -25.836  0.00  0.00    -0.000 C 
ENDROOT
BRANCH   1  12
ATOM     11  N   UNL     1      34.930 -19.346 -20.608  0.00  0.00    +0.384 N 
ATOM     12  C   UNL     1      34.799 -17.940 -22.487  0.00  0.00    -0.003 C 
ATOM     13  C   UNL     1      36.200 -18.397 -22.342  0.00  0.00    -0.019 C 
ATOM     14  C   UNL     1      35.353 -18.949 -23.459  0.00  0.00    +0.000 C 
ATOM     15  C   UNL     1      34.063 -18.347 -21.251  0.00  0.00    -0.078 C 
ATOM     16  C   UNL     1      36.317 -19.081 -21.018  0.00  0.00    -0.081 C 
ATOM     17  H   UNL     1      34.654 -20.283 -20.903  0.00  0.00    -0.085 HD
ATOM     18  H   UNL     1      34.845 -19.286 -19.593  0.00  0.00    -0.085 HD
ENDBRANCH   1  12
TORSDOF 1
ENDMDL
MODEL 7
REMARK VINA RESULT:      -8.4      6.990      8.960
REMARK  Name = 16095349
REMARK  1 active torsions:
REMARK  status: ('A' for Active; 'I' for Inactive)
REMARK    1  A    between atoms: C_1  and  C_12
REMARK                            x       y       z     vdW  Elec       q    Type
REMARK                         _______ _______ _______ _____ _____    ______ ____
ROOT
ATOM      1  C   UNL     1      32.335 -23.432 -15.665  0.00  0.00    -0.025 C 
ATOM      2  C   UNL     1      33.488 -23.355 -14.883  0.00  0.00    -0.004 C 
ATOM      3  C   UNL     1      32.402 -23.174 -17.031  0.00  0.00    -0.004 C 
ATOM      4  C   UNL     1      34.723 -23.017 -15.458  0.00  0.00    -0.000 C 
ATOM      5  C   UNL     1      33.622 -22.838 -17.620  0.00  0.00    -0.000 C 
ATOM      6  C   UNL     1      34.791 -22.755 -16.847  0.00  0.00    -0.000 C 
ATOM      7  C   UNL     1      35.893 -22.933 -14.686  0.00  0.00    -0.000 C 
ATOM      8  C   UNL     1      36.028 -22.416 -17.423  0.00  0.00    -0.000 C 
ATOM      9  C   UNL     1      37.113 -22.597 -15.273  0.00  0.00    -0.000 C 
ATOM     10  C   UNL     1      37.179 -22.338 -16.640  0.00  0.00    -0.000 C 
ENDROOT
BRANCH   1  12
ATOM     11  N   UNL     1      29.559 -25.507 -14.399  0.00  0.00    +0.384 N 
ATOM     12  C   UNL     1      31.033 -23.792 -15.039  0.00  0.00    -0.003 C 
ATOM     13  C   UNL     1      29.764 -23.619 -15.783  0.00  0.00    -0.019 C 
ATOM     14  C   UNL     1      30.106 -22.662 -14.670  0.00  0.00    +0.000 C 
ATOM     15  C   UNL     1      30.977 -25.121 -14.357  0.00  0.00    -0.078 C 
ATOM     16  C   UNL     1      28.937 -24.843 -15.555  0.00  0.00    -0.081 C 
ATOM     17  H   UNL     1      29.095 -25.212 -13.539  0.00  0.00    -0.085 HD
ATOM     18  H   UNL     1      29.471 -26.520 -14.484  0.00  0.00    -0.085 HD
ENDBRANCH   1  12
TORSDOF 1
ENDMDL
MODEL 8
REMARK VINA RESULT:      -8.4      5.917      9.179
REMARK  Name = 16095349
REMARK  1 active torsions:
REMARK  status: ('A' for Active; 'I' for Inactive)
REMARK    1  A    between atoms: C_1  and  C_12
REMARK                            x       y       z     vdW  Elec       q    Type
REMARK                         _______ _______ _______ _____ _____    ______ ____
ROOT
ATOM      1  C   UNL     1      36.120 -23.487 -15.200  0.00  0.00    -0.025 C 
ATOM      2  C   UNL     1      34.952 -23.488 -15.964  0.00  0.00    -0.004 C 
ATOM      3  C   UNL     1      37.244 -22.799 -15.648  0.00  0.00    -0.004 C 
ATOM      4  C   UNL     1      34.894 -22.800 -17.186  0.00  0.00    -0.000 C 
ATOM      5  C   UNL     1      37.204 -22.109 -16.860  0.00  0.00    -0.000 C 
ATOM      6  C   UNL     1      36.037 -22.099 -17.641  0.00  0.00    -0.000 C 
ATOM      7  C   UNL     1      33.727 -22.790 -17.967  0.00  0.00    -0.000 C 
ATOM      8  C   UNL     1      35.979 -21.411 -18.864  0.00  0.00    -0.000 C 
ATOM      9  C   UNL     1      33.686 -22.100 -19.179  0.00  0.00    -0.000 C 
ATOM     10  C   UNL     1      34.811 -21.413 -19.627  0.00  0.00    -0.000 C 
ENDROOT
BRANCH   1  12
ATOM     11  N   UNL     1      35.726 -24.180 -11.597  0.00  0.00    +0.384 N 
ATOM     12  C   UNL     1      36.164 -24.223 -13.906  0.00  0.00    -0.003 C 
ATOM     13  C   UNL     1      37.444 -24.404 -13.184  0.00  0.00    -0.019 C 
ATOM     14  C   UNL     1      36.826 -25.576 -13.901  0.00  0.00    +0.000 C 
ATOM     15  C   UNL     1      35.129 -23.840 -12.897  0.00  0.00    -0.078 C 
ATOM     16  C   UNL     1      37.189 -24.130 -11.737  0.00  0.00    -0.081 C 
ATOM     17  H   UNL     1      35.437 -25.119 -11.320  0.00  0.00    -0.085 HD
ATOM     18  H   UNL     1      35.416 -23.521 -10.883  0.00  0.00    -0.085 HD
ENDBRANCH   1  12
TORSDOF 1
ENDMDL
MODEL 9
REMARK VINA RESULT:      -8.4      3.652      5.792
REMARK  Name = 16095349
REMARK  1 active torsions:
REMARK  status: ('A' for Active; 'I' for Inactive)
REMARK    1  A    between atoms: C_1  and  C_12
REMARK                            x       y       z     vdW  Elec       q    Type
REMARK                         _______ _______ _______ _____ _____    ______ ____
ROOT
ATOM      1  C   UNL     1      32.365 -12.877 -21.691  0.00  0.00    -0.025 C 
ATOM      2  C   UNL     1      32.823 -13.390 -22.905  0.00  0.00    -0.004 C 
ATOM      3  C   UNL     1      32.511 -13.618 -20.522  0.00  0.00    -0.004 C 
ATOM      4  C   UNL     1      33.433 -14.653 -22.965  0.00  0.00    -0.000 C 
ATOM      5  C   UNL     1      33.116 -14.875 -20.563  0.00  0.00    -0.000 C 
ATOM      6  C   UNL     1      33.582 -15.407 -21.776  0.00  0.00    -0.000 C 
ATOM      7  C   UNL     1      33.899 -15.185 -24.178  0.00  0.00    -0.000 C 
ATOM      8  C   UNL     1      34.192 -16.670 -21.836  0.00  0.00    -0.000 C 
ATOM      9  C   UNL     1      34.504 -16.441 -24.220  0.00  0.00    -0.000 C 
ATOM     10  C   UNL     1      34.649 -17.183 -23.051  0.00  0.00    -0.000 C 
ENDROOT
BRANCH   1  12
ATOM     11  N   UNL     1      31.934  -9.228 -22.044  0.00  0.00    +0.384 N 
ATOM     12  C   UNL     1      31.720 -11.535 -21.646  0.00  0.00    -0.003 C 
ATOM     13  C   UNL     1      31.552 -10.821 -20.359  0.00  0.00    -0.019 C 
ATOM     14  C   UNL     1      30.351 -11.445 -21.021  0.00  0.00    +0.000 C 
ATOM     15  C   UNL     1      32.201 -10.540 -22.652  0.00  0.00    -0.078 C 
ATOM     16  C   UNL     1      31.933  -9.393 -20.583  0.00  0.00    -0.081 C 
ATOM     17  H   UNL     1      31.026  -8.882 -22.354  0.00  0.00    -0.085 HD
ATOM     18  H   UNL     1      32.651  -8.558 -22.323  0.00  0.00    -0.085 HD
ENDBRANCH   1  12
TORSDOF 1
ENDMDL
