MODEL 1
REMARK VINA RESULT:      -7.4      0.000      0.000
REMARK  Name = 17754162
REMARK  8 active torsions:
REMARK  status: ('A' for Active; 'I' for Inactive)
REMARK    1  A    between atoms: O_1  and  S_2
REMARK    2  A    between atoms: O_1  and  C_12
REMARK    3  A    between atoms: S_2  and  C_5
REMARK    4  A    between atoms: C_5  and  C_6
REMARK    5  A    between atoms: C_12  and  C_13
REMARK    6  A    between atoms: C_13  and  N_14
REMARK    7  A    between atoms: C_13  and  C_19
REMARK    8  A    between atoms: C_19  and  O_20
REMARK                            x       y       z     vdW  Elec       q    Type
REMARK                         _______ _______ _______ _____ _____    ______ ____
ROOT
ATOM      1  O   UNK     1      34.955 -15.601 -22.485  0.00  0.00    -0.243 OA
ENDROOT
BRANCH   1   2
ATOM      2  S   UNK     1      34.393 -16.609 -21.331  0.00  0.00    -0.003 S 
ATOM      3  O   UNK     1      32.982 -16.357 -21.116  0.00  0.00    -0.071 OA
ATOM      4  O   UNK     1      35.339 -16.661 -20.235  0.00  0.00    -0.071 OA
BRANCH   2   5
ATOM      5  C   UNK     1      34.551 -18.105 -22.271  0.00  0.00    +0.181 C 
BRANCH   5   6
ATOM      6  C   UNK     1      34.475 -19.255 -21.313  0.00  0.00    +0.002 C 
ATOM      7  C   UNK     1      33.236 -19.696 -20.851  0.00  0.00    -0.003 C 
ATOM      8  C   UNK     1      35.644 -19.885 -20.885  0.00  0.00    -0.003 C 
ATOM      9  C   UNK     1      33.164 -20.767 -19.959  0.00  0.00    -0.000 C 
ATOM     10  C   UNK     1      35.573 -20.955 -19.994  0.00  0.00    -0.000 C 
ATOM     11  C   UNK     1      34.333 -21.396 -19.531  0.00  0.00    -0.000 C 
ENDBRANCH   5   6
ENDBRANCH   2   5
ENDBRANCH   1   2
BRANCH   1  12
ATOM     12  C   UNK     1      34.756 -15.950 -23.851  0.00  0.00    +0.162 C 
BRANCH  12  13
ATOM     13  C   UNK     1      33.497 -15.263 -24.372  0.00  0.00    +0.068 C 
BRANCH  13  14
ATOM     14  N   UNK     1      33.568 -15.134 -25.826  0.00  0.00    +0.390 N 
ATOM     15  H   UNK     1      33.863 -16.023 -26.232  0.00  0.00    -0.088 HD
ATOM     16  H   UNK     1      34.243 -14.409 -26.070  0.00  0.00    -0.088 HD
ATOM     17  H   UNK     1      32.650 -14.881 -26.191  0.00  0.00    -0.088 HD
ENDBRANCH  13  14
BRANCH  13  19
ATOM     18  O   UNK     1      33.950 -12.864 -24.201  0.00  0.00    -0.253 OA
ATOM     19  C   UNK     1      33.375 -13.866 -23.797  0.00  0.00    +0.295 C 
BRANCH  19  20
ATOM     20  O   UNK     1      32.525 -13.858 -22.737  0.00  0.00    -0.482 OA
ATOM     21  H   UNK     1      32.860 -13.753 -21.869  0.00  0.00    +0.295 HD
ENDBRANCH  19  20
ENDBRANCH  13  19
ENDBRANCH  12  13
ENDBRANCH   1  12
TORSDOF 8
ENDMDL
MODEL 2
REMARK VINA RESULT:      -7.4      1.394      1.925
REMARK  Name = 17754162
REMARK  8 active torsions:
REMARK  status: ('A' for Active; 'I' for Inactive)
REMARK    1  A    between atoms: O_1  and  S_2
REMARK    2  A    between atoms: O_1  and  C_12
REMARK    3  A    between atoms: S_2  and  C_5
REMARK    4  A    between atoms: C_5  and  C_6
REMARK    5  A    between atoms: C_12  and  C_13
REMARK    6  A    between atoms: C_13  and  N_14
REMARK    7  A    between atoms: C_13  and  C_19
REMARK    8  A    between atoms: C_19  and  O_20
REMARK                            x       y       z     vdW  Elec       q    Type
REMARK                         _______ _______ _______ _____ _____    ______ ____
ROOT
ATOM      1  O   UNK     1      35.000 -15.722 -22.520  0.00  0.00    -0.243 OA
ENDROOT
BRANCH   1   2
ATOM      2  S   UNK     1      34.451 -16.709 -21.342  0.00  0.00    -0.003 S 
ATOM      3  O   UNK     1      33.050 -16.433 -21.096  0.00  0.00    -0.071 OA
ATOM      4  O   UNK     1      35.424 -16.765 -20.269  0.00  0.00    -0.071 OA
BRANCH   2   5
ATOM      5  C   UNK     1      34.563 -18.217 -22.270  0.00  0.00    +0.181 C 
BRANCH   5   6
ATOM      6  C   UNK     1      34.488 -19.356 -21.300  0.00  0.00    +0.002 C 
ATOM      7  C   UNK     1      35.656 -19.987 -20.875  0.00  0.00    -0.003 C 
ATOM      8  C   UNK     1      33.250 -19.783 -20.820  0.00  0.00    -0.003 C 
ATOM      9  C   UNK     1      35.588 -21.048 -19.971  0.00  0.00    -0.000 C 
ATOM     10  C   UNK     1      33.181 -20.843 -19.916  0.00  0.00    -0.000 C 
ATOM     11  C   UNK     1      34.350 -21.475 -19.492  0.00  0.00    -0.000 C 
ENDBRANCH   5   6
ENDBRANCH   2   5
ENDBRANCH   1   2
BRANCH   1  12
ATOM     12  C   UNK     1      34.562 -15.945 -23.857  0.00  0.00    +0.162 C 
BRANCH  12  13
ATOM     13  C   UNK     1      33.837 -14.702 -24.367  0.00  0.00    +0.068 C 
BRANCH  13  14
ATOM     14  N   UNK     1      32.730 -14.372 -23.471  0.00  0.00    +0.390 N 
ATOM     15  H   UNK     1      32.427 -13.413 -23.644  0.00  0.00    -0.088 HD
ATOM     16  H   UNK     1      33.039 -14.460 -22.503  0.00  0.00    -0.088 HD
ATOM     17  H   UNK     1      31.954 -15.010 -23.640  0.00  0.00    -0.088 HD
ENDBRANCH  13  14
BRANCH  13  19
ATOM     18  O   UNK     1      32.499 -14.208 -26.355  0.00  0.00    -0.253 OA
ATOM     19  C   UNK     1      33.249 -14.954 -25.741  0.00  0.00    +0.295 C 
BRANCH  19  20
ATOM     20  O   UNK     1      33.663 -16.154 -26.224  0.00  0.00    -0.482 OA
ATOM     21  H   UNK     1      33.266 -16.512 -26.993  0.00  0.00    +0.295 HD
ENDBRANCH  19  20
ENDBRANCH  13  19
ENDBRANCH  12  13
ENDBRANCH   1  12
TORSDOF 8
ENDMDL
MODEL 3
REMARK VINA RESULT:      -7.4      1.396      1.529
REMARK  Name = 17754162
REMARK  8 active torsions:
REMARK  status: ('A' for Active; 'I' for Inactive)
REMARK    1  A    between atoms: O_1  and  S_2
REMARK    2  A    between atoms: O_1  and  C_12
REMARK    3  A    between atoms: S_2  and  C_5
REMARK    4  A    between atoms: C_5  and  C_6
REMARK    5  A    between atoms: C_12  and  C_13
REMARK    6  A    between atoms: C_13  and  N_14
REMARK    7  A    between atoms: C_13  and  C_19
REMARK    8  A    between atoms: C_19  and  O_20
REMARK                            x       y       z     vdW  Elec       q    Type
REMARK                         _______ _______ _______ _____ _____    ______ ____
ROOT
ATOM      1  O   UNK     1      35.016 -15.780 -22.538  0.00  0.00    -0.243 OA
ENDROOT
BRANCH   1   2
ATOM      2  S   UNK     1      34.446 -16.741 -21.349  0.00  0.00    -0.003 S 
ATOM      3  O   UNK     1      33.049 -16.436 -21.110  0.00  0.00    -0.071 OA
ATOM      4  O   UNK     1      35.414 -16.801 -20.272  0.00  0.00    -0.071 OA
BRANCH   2   5
ATOM      5  C   UNK     1      34.532 -18.263 -22.256  0.00  0.00    +0.181 C 
BRANCH   5   6
ATOM      6  C   UNK     1      34.425 -19.388 -21.271  0.00  0.00    +0.002 C 
ATOM      7  C   UNK     1      33.175 -19.783 -20.798  0.00  0.00    -0.003 C 
ATOM      8  C   UNK     1      35.577 -20.039 -20.830  0.00  0.00    -0.003 C 
ATOM      9  C   UNK     1      33.075 -20.829 -19.881  0.00  0.00    -0.000 C 
ATOM     10  C   UNK     1      35.477 -21.086 -19.913  0.00  0.00    -0.000 C 
ATOM     11  C   UNK     1      34.226 -21.481 -19.439  0.00  0.00    -0.000 C 
ENDBRANCH   5   6
ENDBRANCH   2   5
ENDBRANCH   1   2
BRANCH   1  12
ATOM     12  C   UNK     1      34.553 -15.992 -23.868  0.00  0.00    +0.162 C 
BRANCH  12  13
ATOM     13  C   UNK     1      33.882 -14.721 -24.380  0.00  0.00    +0.068 C 
BRANCH  13  14
ATOM     14  N   UNK     1      32.808 -14.327 -23.469  0.00  0.00    +0.390 N 
ATOM     15  H   UNK     1      32.071 -15.033 -23.487  0.00  0.00    -0.088 HD
ATOM     16  H   UNK     1      32.425 -13.429 -23.764  0.00  0.00    -0.088 HD
ATOM     17  H   UNK     1      33.178 -14.246 -22.523  0.00  0.00    -0.088 HD
ENDBRANCH  13  14
BRANCH  13  19
ATOM     18  O   UNK     1      32.511 -14.196 -26.338  0.00  0.00    -0.253 OA
ATOM     19  C   UNK     1      33.258 -14.958 -25.741  0.00  0.00    +0.295 C 
BRANCH  19  20
ATOM     20  O   UNK     1      33.637 -16.166 -26.235  0.00  0.00    -0.482 OA
ATOM     21  H   UNK     1      32.996 -16.834 -26.380  0.00  0.00    +0.295 HD
ENDBRANCH  19  20
ENDBRANCH  13  19
ENDBRANCH  12  13
ENDBRANCH   1  12
TORSDOF 8
ENDMDL
MODEL 4
REMARK VINA RESULT:      -7.1      2.000      2.372
REMARK  Name = 17754162
REMARK  8 active torsions:
REMARK  status: ('A' for Active; 'I' for Inactive)
REMARK    1  A    between atoms: O_1  and  S_2
REMARK    2  A    between atoms: O_1  and  C_12
REMARK    3  A    between atoms: S_2  and  C_5
REMARK    4  A    between atoms: C_5  and  C_6
REMARK    5  A    between atoms: C_12  and  C_13
REMARK    6  A    between atoms: C_13  and  N_14
REMARK    7  A    between atoms: C_13  and  C_19
REMARK    8  A    between atoms: C_19  and  O_20
REMARK                            x       y       z     vdW  Elec       q    Type
REMARK                         _______ _______ _______ _____ _____    ______ ____
ROOT
ATOM      1  O   UNK     1      35.341 -16.653 -23.245  0.00  0.00    -0.243 OA
ENDROOT
BRANCH   1   2
ATOM      2  S   UNK     1      35.539 -18.203 -22.771  0.00  0.00    -0.003 S 
ATOM      3  O   UNK     1      36.924 -18.421 -22.404  0.00  0.00    -0.071 OA
ATOM      4  O   UNK     1      34.839 -19.080 -23.688  0.00  0.00    -0.071 OA
BRANCH   2   5
ATOM      5  C   UNK     1      34.584 -18.084 -21.281  0.00  0.00    +0.181 C 
BRANCH   5   6
ATOM      6  C   UNK     1      34.495 -19.457 -20.687  0.00  0.00    +0.002 C 
ATOM      7  C   UNK     1      33.248 -20.024 -20.425  0.00  0.00    -0.003 C 
ATOM      8  C   UNK     1      35.659 -20.168 -20.396  0.00  0.00    -0.003 C 
ATOM      9  C   UNK     1      33.164 -21.302 -19.872  0.00  0.00    -0.000 C 
ATOM     10  C   UNK     1      35.576 -21.446 -19.844  0.00  0.00    -0.000 C 
ATOM     11  C   UNK     1      34.328 -22.013 -19.582  0.00  0.00    -0.000 C 
ENDBRANCH   5   6
ENDBRANCH   2   5
ENDBRANCH   1   2
BRANCH   1  12
ATOM     12  C   UNK     1      34.020 -16.126 -23.319  0.00  0.00    +0.162 C 
BRANCH  12  13
ATOM     13  C   UNK     1      33.958 -15.067 -24.416  0.00  0.00    +0.068 C 
BRANCH  13  14
ATOM     14  N   UNK     1      32.858 -14.142 -24.149  0.00  0.00    +0.390 N 
ATOM     15  H   UNK     1      32.868 -13.393 -24.842  0.00  0.00    -0.088 HD
ATOM     16  H   UNK     1      32.967 -13.744 -23.216  0.00  0.00    -0.088 HD
ATOM     17  H   UNK     1      31.972 -14.643 -24.204  0.00  0.00    -0.088 HD
ENDBRANCH  13  14
BRANCH  13  19
ATOM     18  O   UNK     1      33.421 -15.125 -26.803  0.00  0.00    -0.253 OA
ATOM     19  C   UNK     1      33.694 -15.709 -25.763  0.00  0.00    +0.295 C 
BRANCH  19  20
ATOM     20  O   UNK     1      33.794 -17.061 -25.675  0.00  0.00    -0.482 OA
ATOM     21  H   UNK     1      33.970 -17.464 -24.848  0.00  0.00    +0.295 HD
ENDBRANCH  19  20
ENDBRANCH  13  19
ENDBRANCH  12  13
ENDBRANCH   1  12
TORSDOF 8
ENDMDL
MODEL 5
REMARK VINA RESULT:      -7.1      6.596      9.295
REMARK  Name = 17754162
REMARK  8 active torsions:
REMARK  status: ('A' for Active; 'I' for Inactive)
REMARK    1  A    between atoms: O_1  and  S_2
REMARK    2  A    between atoms: O_1  and  C_12
REMARK    3  A    between atoms: S_2  and  C_5
REMARK    4  A    between atoms: C_5  and  C_6
REMARK    5  A    between atoms: C_12  and  C_13
REMARK    6  A    between atoms: C_13  and  N_14
REMARK    7  A    between atoms: C_13  and  C_19
REMARK    8  A    between atoms: C_19  and  O_20
REMARK                            x       y       z     vdW  Elec       q    Type
REMARK                         _______ _______ _______ _____ _____    ______ ____
ROOT
ATOM      1  O   UNK     1      34.360 -23.913 -17.104  0.00  0.00    -0.243 OA
ENDROOT
BRANCH   1   2
ATOM      2  S   UNK     1      33.780 -23.171 -18.437  0.00  0.00    -0.003 S 
ATOM      3  O   UNK     1      32.527 -22.517 -18.119  0.00  0.00    -0.071 OA
ATOM      4  O   UNK     1      33.917 -24.054 -19.578  0.00  0.00    -0.071 OA
BRANCH   2   5
ATOM      5  C   UNK     1      35.042 -21.928 -18.545  0.00  0.00    +0.181 C 
BRANCH   5   6
ATOM      6  C   UNK     1      34.681 -21.010 -19.672  0.00  0.00    +0.002 C 
ATOM      7  C   UNK     1      35.683 -20.460 -20.471  0.00  0.00    -0.003 C 
ATOM      8  C   UNK     1      33.343 -20.705 -19.923  0.00  0.00    -0.003 C 
ATOM      9  C   UNK     1      35.348 -19.605 -21.521  0.00  0.00    -0.000 C 
ATOM     10  C   UNK     1      33.008 -19.850 -20.973  0.00  0.00    -0.000 C 
ATOM     11  C   UNK     1      34.010 -19.300 -21.772  0.00  0.00    -0.000 C 
ENDBRANCH   5   6
ENDBRANCH   2   5
ENDBRANCH   1   2
BRANCH   1  12
ATOM     12  C   UNK     1      34.057 -23.359 -15.829  0.00  0.00    +0.162 C 
BRANCH  12  13
ATOM     13  C   UNK     1      34.770 -24.162 -14.744  0.00  0.00    +0.068 C 
BRANCH  13  14
ATOM     14  N   UNK     1      35.299 -23.257 -13.726  0.00  0.00    +0.390 N 
ATOM     15  H   UNK     1      36.001 -22.646 -14.146  0.00  0.00    -0.088 HD
ATOM     16  H   UNK     1      35.727 -23.802 -12.977  0.00  0.00    -0.088 HD
ATOM     17  H   UNK     1      34.541 -22.692 -13.345  0.00  0.00    -0.088 HD
ENDBRANCH  13  14
BRANCH  13  19
ATOM     18  O   UNK     1      36.046 -26.140 -15.412  0.00  0.00    -0.253 OA
ATOM     19  C   UNK     1      35.942 -24.924 -15.329  0.00  0.00    +0.295 C 
BRANCH  19  20
ATOM     20  O   UNK     1      36.903 -24.065 -15.759  0.00  0.00    -0.482 OA
ATOM     21  H   UNK     1      37.694 -24.397 -16.135  0.00  0.00    +0.295 HD
ENDBRANCH  19  20
ENDBRANCH  13  19
ENDBRANCH  12  13
ENDBRANCH   1  12
TORSDOF 8
ENDMDL
MODEL 6
REMARK VINA RESULT:      -7.1      9.111     11.505
REMARK  Name = 17754162
REMARK  8 active torsions:
REMARK  status: ('A' for Active; 'I' for Inactive)
REMARK    1  A    between atoms: O_1  and  S_2
REMARK    2  A    between atoms: O_1  and  C_12
REMARK    3  A    between atoms: S_2  and  C_5
REMARK    4  A    between atoms: C_5  and  C_6
REMARK    5  A    between atoms: C_12  and  C_13
REMARK    6  A    between atoms: C_13  and  N_14
REMARK    7  A    between atoms: C_13  and  C_19
REMARK    8  A    between atoms: C_19  and  O_20
REMARK                            x       y       z     vdW  Elec       q    Type
REMARK                         _______ _______ _______ _____ _____    ______ ____
ROOT
ATOM      1  O   UNK     1      37.828 -23.816 -13.562  0.00  0.00    -0.243 OA
ENDROOT
BRANCH   1   2
ATOM      2  S   UNK     1      37.634 -23.816 -15.182  0.00  0.00    -0.003 S 
ATOM      3  O   UNK     1      36.778 -24.920 -15.566  0.00  0.00    -0.071 OA
ATOM      4  O   UNK     1      38.914 -23.578 -15.820  0.00  0.00    -0.071 OA
BRANCH   2   5
ATOM      5  C   UNK     1      36.684 -22.320 -15.274  0.00  0.00    +0.181 C 
BRANCH   5   6
ATOM      6  C   UNK     1      36.055 -22.263 -16.633  0.00  0.00    +0.002 C 
ATOM      7  C   UNK     1      36.744 -21.682 -17.696  0.00  0.00    -0.003 C 
ATOM      8  C   UNK     1      34.780 -22.793 -16.835  0.00  0.00    -0.003 C 
ATOM      9  C   UNK     1      36.160 -21.628 -18.962  0.00  0.00    -0.000 C 
ATOM     10  C   UNK     1      34.195 -22.741 -18.099  0.00  0.00    -0.000 C 
ATOM     11  C   UNK     1      34.885 -22.158 -19.163  0.00  0.00    -0.000 C 
ENDBRANCH   5   6
ENDBRANCH   2   5
ENDBRANCH   1   2
BRANCH   1  12
ATOM     12  C   UNK     1      38.506 -24.911 -12.956  0.00  0.00    +0.162 C 
BRANCH  12  13
ATOM     13  C   UNK     1      37.485 -25.854 -12.326  0.00  0.00    +0.068 C 
BRANCH  13  14
ATOM     14  N   UNK     1      37.071 -26.860 -13.303  0.00  0.00    +0.390 N 
ATOM     15  H   UNK     1      36.489 -27.560 -12.843  0.00  0.00    -0.088 HD
ATOM     16  H   UNK     1      37.896 -27.310 -13.698  0.00  0.00    -0.088 HD
ATOM     17  H   UNK     1      36.539 -26.411 -14.048  0.00  0.00    -0.088 HD
ENDBRANCH  13  14
BRANCH  13  19
ATOM     18  O   UNK     1      36.064 -24.538 -10.829  0.00  0.00    -0.253 OA
ATOM     19  C   UNK     1      36.244 -25.092 -11.905  0.00  0.00    +0.295 C 
BRANCH  19  20
ATOM     20  O   UNK     1      35.317 -25.105 -12.898  0.00  0.00    -0.482 OA
ATOM     21  H   UNK     1      34.546 -25.630 -12.813  0.00  0.00    +0.295 HD
ENDBRANCH  19  20
ENDBRANCH  13  19
ENDBRANCH  12  13
ENDBRANCH   1  12
TORSDOF 8
ENDMDL
MODEL 7
REMARK VINA RESULT:      -7.1      1.793      2.164
REMARK  Name = 17754162
REMARK  8 active torsions:
REMARK  status: ('A' for Active; 'I' for Inactive)
REMARK    1  A    between atoms: O_1  and  S_2
REMARK    2  A    between atoms: O_1  and  C_12
REMARK    3  A    between atoms: S_2  and  C_5
REMARK    4  A    between atoms: C_5  and  C_6
REMARK    5  A    between atoms: C_12  and  C_13
REMARK    6  A    between atoms: C_13  and  N_14
REMARK    7  A    between atoms: C_13  and  C_19
REMARK    8  A    between atoms: C_19  and  O_20
REMARK                            x       y       z     vdW  Elec       q    Type
REMARK                         _______ _______ _______ _____ _____    ______ ____
ROOT
ATOM      1  O   UNK     1      34.453 -16.955 -22.842  0.00  0.00    -0.243 OA
ENDROOT
BRANCH   1   2
ATOM      2  S   UNK     1      35.308 -17.988 -21.910  0.00  0.00    -0.003 S 
ATOM      3  O   UNK     1      35.275 -17.536 -20.534  0.00  0.00    -0.071 OA
ATOM      4  O   UNK     1      36.548 -18.326 -22.579  0.00  0.00    -0.071 OA
BRANCH   2   5
ATOM      5  C   UNK     1      34.202 -19.367 -22.066  0.00  0.00    +0.181 C 
BRANCH   5   6
ATOM      6  C   UNK     1      34.450 -20.283 -20.906  0.00  0.00    +0.002 C 
ATOM      7  C   UNK     1      33.375 -20.798 -20.183  0.00  0.00    -0.003 C 
ATOM      8  C   UNK     1      35.755 -20.622 -20.552  0.00  0.00    -0.003 C 
ATOM      9  C   UNK     1      33.605 -21.651 -19.103  0.00  0.00    -0.000 C 
ATOM     10  C   UNK     1      35.986 -21.475 -19.474  0.00  0.00    -0.000 C 
ATOM     11  C   UNK     1      34.911 -21.989 -18.749  0.00  0.00    -0.000 C 
ENDBRANCH   5   6
ENDBRANCH   2   5
ENDBRANCH   1   2
BRANCH   1  12
ATOM     12  C   UNK     1      34.946 -15.632 -23.021  0.00  0.00    +0.162 C 
BRANCH  12  13
ATOM     13  C   UNK     1      33.838 -14.631 -22.702  0.00  0.00    +0.068 C 
BRANCH  13  14
ATOM     14  N   UNK     1      34.179 -13.322 -23.258  0.00  0.00    +0.390 N 
ATOM     15  H   UNK     1      33.776 -13.234 -24.191  0.00  0.00    -0.088 HD
ATOM     16  H   UNK     1      35.193 -13.231 -23.315  0.00  0.00    -0.088 HD
ATOM     17  H   UNK     1      33.805 -12.590 -22.655  0.00  0.00    -0.088 HD
ENDBRANCH  13  14
BRANCH  13  19
ATOM     18  O   UNK     1      32.672 -14.120 -20.612  0.00  0.00    -0.253 OA
ATOM     19  C   UNK     1      33.687 -14.462 -21.204  0.00  0.00    +0.295 C 
BRANCH  19  20
ATOM     20  O   UNK     1      34.857 -14.741 -20.572  0.00  0.00    -0.482 OA
ATOM     21  H   UNK     1      34.883 -15.392 -19.900  0.00  0.00    +0.295 HD
ENDBRANCH  19  20
ENDBRANCH  13  19
ENDBRANCH  12  13
ENDBRANCH   1  12
TORSDOF 8
ENDMDL
MODEL 8
REMARK VINA RESULT:      -6.9      7.238     10.281
REMARK  Name = 17754162
REMARK  8 active torsions:
REMARK  status: ('A' for Active; 'I' for Inactive)
REMARK    1  A    between atoms: O_1  and  S_2
REMARK    2  A    between atoms: O_1  and  C_12
REMARK    3  A    between atoms: S_2  and  C_5
REMARK    4  A    between atoms: C_5  and  C_6
REMARK    5  A    between atoms: C_12  and  C_13
REMARK    6  A    between atoms: C_13  and  N_14
REMARK    7  A    between atoms: C_13  and  C_19
REMARK    8  A    between atoms: C_19  and  O_20
REMARK                            x       y       z     vdW  Elec       q    Type
REMARK                         _______ _______ _______ _____ _____    ______ ____
ROOT
ATOM      1  O   UNK     1      35.115 -24.600 -15.970  0.00  0.00    -0.243 OA
ENDROOT
BRANCH   1   2
ATOM      2  S   UNK     1      34.505 -23.140 -16.369  0.00  0.00    -0.003 S 
ATOM      3  O   UNK     1      35.584 -22.179 -16.476  0.00  0.00    -0.071 OA
ATOM      4  O   UNK     1      33.320 -22.880 -15.576  0.00  0.00    -0.071 OA
BRANCH   2   5
ATOM      5  C   UNK     1      33.988 -23.575 -18.010  0.00  0.00    +0.181 C 
BRANCH   5   6
ATOM      6  C   UNK     1      34.164 -22.368 -18.879  0.00  0.00    +0.002 C 
ATOM      7  C   UNK     1      35.433 -22.021 -19.341  0.00  0.00    -0.003 C 
ATOM      8  C   UNK     1      33.059 -21.592 -19.227  0.00  0.00    -0.003 C 
ATOM      9  C   UNK     1      35.598 -20.897 -20.150  0.00  0.00    -0.000 C 
ATOM     10  C   UNK     1      33.223 -20.468 -20.036  0.00  0.00    -0.000 C 
ATOM     11  C   UNK     1      34.493 -20.121 -20.498  0.00  0.00    -0.000 C 
ENDBRANCH   5   6
ENDBRANCH   2   5
ENDBRANCH   1   2
BRANCH   1  12
ATOM     12  C   UNK     1      35.516 -24.827 -14.623  0.00  0.00    +0.162 C 
BRANCH  12  13
ATOM     13  C   UNK     1      37.023 -25.066 -14.576  0.00  0.00    +0.068 C 
BRANCH  13  14
ATOM     14  N   UNK     1      37.695 -24.176 -15.520  0.00  0.00    +0.390 N 
ATOM     15  H   UNK     1      37.407 -23.213 -15.343  0.00  0.00    -0.088 HD
ATOM     16  H   UNK     1      37.442 -24.436 -16.473  0.00  0.00    -0.088 HD
ATOM     17  H   UNK     1      38.705 -24.256 -15.402  0.00  0.00    -0.088 HD
ENDBRANCH  13  14
BRANCH  13  19
ATOM     18  O   UNK     1      38.306 -27.150 -14.602  0.00  0.00    -0.253 OA
ATOM     19  C   UNK     1      37.350 -26.490 -14.984  0.00  0.00    +0.295 C 
BRANCH  19  20
ATOM     20  O   UNK     1      36.424 -26.959 -15.860  0.00  0.00    -0.482 OA
ATOM     21  H   UNK     1      35.578 -27.218 -15.554  0.00  0.00    +0.295 HD
ENDBRANCH  19  20
ENDBRANCH  13  19
ENDBRANCH  12  13
ENDBRANCH   1  12
TORSDOF 8
ENDMDL
MODEL 9
REMARK VINA RESULT:      -6.9      9.808     11.916
REMARK  Name = 17754162
REMARK  8 active torsions:
REMARK  status: ('A' for Active; 'I' for Inactive)
REMARK    1  A    between atoms: O_1  and  S_2
REMARK    2  A    between atoms: O_1  and  C_12
REMARK    3  A    between atoms: S_2  and  C_5
REMARK    4  A    between atoms: C_5  and  C_6
REMARK    5  A    between atoms: C_12  and  C_13
REMARK    6  A    between atoms: C_13  and  N_14
REMARK    7  A    between atoms: C_13  and  C_19
REMARK    8  A    between atoms: C_19  and  O_20
REMARK                            x       y       z     vdW  Elec       q    Type
REMARK                         _______ _______ _______ _____ _____    ______ ____
ROOT
ATOM      1  O   UNK     1      36.978 -23.849 -14.384  0.00  0.00    -0.243 OA
ENDROOT
BRANCH   1   2
ATOM      2  S   UNK     1      35.637 -24.084 -15.283  0.00  0.00    -0.003 S 
ATOM      3  O   UNK     1      35.367 -25.504 -15.386  0.00  0.00    -0.071 OA
ATOM      4  O   UNK     1      35.682 -23.224 -16.449  0.00  0.00    -0.071 OA
BRANCH   2   5
ATOM      5  C   UNK     1      34.489 -23.385 -14.125  0.00  0.00    +0.181 C 
BRANCH   5   6
ATOM      6  C   UNK     1      33.111 -23.800 -14.542  0.00  0.00    +0.002 C 
ATOM      7  C   UNK     1      32.412 -24.747 -13.795  0.00  0.00    -0.003 C 
ATOM      8  C   UNK     1      32.527 -23.238 -15.677  0.00  0.00    -0.003 C 
ATOM      9  C   UNK     1      31.129 -25.134 -14.182  0.00  0.00    -0.000 C 
ATOM     10  C   UNK     1      31.244 -23.624 -16.065  0.00  0.00    -0.000 C 
ATOM     11  C   UNK     1      30.545 -24.572 -15.317  0.00  0.00    -0.000 C 
ENDBRANCH   5   6
ENDBRANCH   2   5
ENDBRANCH   1   2
BRANCH   1  12
ATOM     12  C   UNK     1      38.160 -24.569 -14.720  0.00  0.00    +0.162 C 
BRANCH  12  13
ATOM     13  C   UNK     1      38.385 -25.679 -13.697  0.00  0.00    +0.068 C 
BRANCH  13  14
ATOM     14  N   UNK     1      37.893 -26.949 -14.229  0.00  0.00    +0.390 N 
ATOM     15  H   UNK     1      37.267 -26.769 -15.015  0.00  0.00    -0.088 HD
ATOM     16  H   UNK     1      37.386 -27.449 -13.499  0.00  0.00    -0.088 HD
ATOM     17  H   UNK     1      38.681 -27.514 -14.544  0.00  0.00    -0.088 HD
ENDBRANCH  13  14
BRANCH  13  19
ATOM     18  O   UNK     1      38.014 -24.734 -11.470  0.00  0.00    -0.253 OA
ATOM     19  C   UNK     1      37.618 -25.393 -12.422  0.00  0.00    +0.295 C 
BRANCH  19  20
ATOM     20  O   UNK     1      36.395 -25.984 -12.458  0.00  0.00    -0.482 OA
ATOM     21  H   UNK     1      35.878 -26.039 -11.679  0.00  0.00    +0.295 HD
ENDBRANCH  19  20
ENDBRANCH  13  19
ENDBRANCH  12  13
ENDBRANCH   1  12
TORSDOF 8
ENDMDL
