MODEL 1
REMARK VINA RESULT:      -8.2      0.000      0.000
REMARK  Name = 444861
REMARK  13 active torsions:
REMARK  status: ('A' for Active; 'I' for Inactive)
REMARK    1  A    between atoms: C_2  and  C_10
REMARK    2  A    between atoms: C_3  and  C_22
REMARK    3  A    between atoms: C_4  and  O_8
REMARK    4  A    between atoms: C_10  and  N_11
REMARK    5  A    between atoms: N_11  and  CA_14
REMARK    6  A    between atoms: CA_14  and  C_16
REMARK    7  A    between atoms: CA_14  and  C_19
REMARK    8  A    between atoms: C_16  and  O_17
REMARK    9  A    between atoms: C_19  and  C_20
REMARK   10  A    between atoms: C_22  and  O_23
REMARK   11  A    between atoms: O_23  and  P_24
REMARK   12  A    between atoms: P_24  and  O_26
REMARK   13  A    between atoms: P_24  and  O_28
REMARK                            x       y       z     vdW  Elec       q    Type
REMARK                         _______ _______ _______ _____ _____    ______ ____
ROOT
ATOM      1  N   UNL     1      36.359 -21.295 -18.524  0.00  0.00    -0.245 NA
ATOM      2  C   UNL     1      34.117 -22.751 -17.740  0.00  0.00    -0.009 C 
ATOM      3  C   UNL     1      35.229 -22.702 -16.915  0.00  0.00    +0.024 C 
ATOM      4  C   UNL     1      34.113 -22.081 -18.953  0.00  0.00    +0.141 C 
ATOM      5  C   UNL     1      35.253 -21.372 -19.297  0.00  0.00    +0.092 C 
ATOM      6  C   UNL     1      36.318 -21.964 -17.349  0.00  0.00    +0.096 C 
ATOM      7  C   UNL     1      35.311 -20.629 -20.592  0.00  0.00    +0.055 C 
ENDROOT
BRANCH   4   8
ATOM      8  O   UNL     1      33.034 -22.118 -19.777  0.00  0.00    -0.505 OA
ATOM      9  H   UNL     1      32.175 -22.228 -19.420  0.00  0.00    +0.292 HD
ENDBRANCH   4   8
BRANCH   2  10
ATOM     10  C   UNL     1      32.904 -23.537 -17.320  0.00  0.00    -0.051 C 
BRANCH  10  11
ATOM     11  N   UNL     1      31.748 -22.677 -17.109  0.00  0.00    +0.395 N 
ATOM     12  H1  UNL     1      32.065 -21.767 -16.776  0.00  0.00    -0.083 HD
ATOM     13  H2  UNL     1      31.250 -22.577 -17.994  0.00  0.00    -0.083 HD
BRANCH  11  14
ATOM     14  CA  UNL     1      30.842 -23.262 -16.122  0.00  0.00    +0.040 C 
BRANCH  14  16
ATOM     15  OXT UNL     1      28.944 -21.957 -16.948  0.00  0.00    -0.253 OA
ATOM     16  C   UNL     1      29.419 -23.024 -16.586  0.00  0.00    +0.293 C 
BRANCH  16  17
ATOM     17  O   UNL     1      28.703 -24.178 -16.533  0.00  0.00    -0.482 OA
ATOM     18  H   UNL     1      28.440 -24.603 -17.325  0.00  0.00    +0.295 HD
ENDBRANCH  16  17
ENDBRANCH  14  16
BRANCH  14  19
ATOM     19  C   UNL     1      31.097 -22.693 -14.719  0.00  0.00    -0.010 C 
BRANCH  19  20
ATOM     20  C   UNL     1      31.896 -23.620 -13.794  0.00  0.00    -0.002 C 
ATOM     21  C   UNL     1      31.209 -24.969 -13.638  0.00  0.00    -0.000 C 
ENDBRANCH  19  20
ENDBRANCH  14  19
ENDBRANCH  11  14
ENDBRANCH  10  11
ENDBRANCH   2  10
BRANCH   3  22
ATOM     22  C   UNL     1      35.279 -23.404 -15.602  0.00  0.00    +0.181 C 
BRANCH  22  23
ATOM     23  O   UNL     1      35.816 -24.710 -15.783  0.00  0.00    -0.268 OA
BRANCH  23  24
ATOM     24  P   UNL     1      37.108 -25.135 -14.912  0.00  0.00    +0.473 P 
ATOM     25  O   UNL     1      36.850 -25.333 -13.447  0.00  0.00    -0.227 OA
BRANCH  24  26
ATOM     26  O   UNL     1      37.650 -26.443 -15.693  0.00  0.00    -0.303 OA
ATOM     27  H   UNL     1      38.618 -26.416 -15.735  0.00  0.00    +0.222 HD
ENDBRANCH  24  26
BRANCH  24  28
ATOM     28  O   UNL     1      38.207 -24.005 -15.273  0.00  0.00    -0.303 OA
ATOM     29  H   UNL     1      37.933 -23.155 -14.894  0.00  0.00    +0.222 HD
ENDBRANCH  24  28
ENDBRANCH  23  24
ENDBRANCH  22  23
ENDBRANCH   3  22
TORSDOF 13
ENDMDL
MODEL 2
REMARK VINA RESULT:      -8.0      3.520      6.343
REMARK  Name = 444861
REMARK  13 active torsions:
REMARK  status: ('A' for Active; 'I' for Inactive)
REMARK    1  A    between atoms: C_2  and  C_10
REMARK    2  A    between atoms: C_3  and  C_22
REMARK    3  A    between atoms: C_4  and  O_8
REMARK    4  A    between atoms: C_10  and  N_11
REMARK    5  A    between atoms: N_11  and  CA_14
REMARK    6  A    between atoms: CA_14  and  C_16
REMARK    7  A    between atoms: CA_14  and  C_19
REMARK    8  A    between atoms: C_16  and  O_17
REMARK    9  A    between atoms: C_19  and  C_20
REMARK   10  A    between atoms: C_22  and  O_23
REMARK   11  A    between atoms: O_23  and  P_24
REMARK   12  A    between atoms: P_24  and  O_26
REMARK   13  A    between atoms: P_24  and  O_28
REMARK                            x       y       z     vdW  Elec       q    Type
REMARK                         _______ _______ _______ _____ _____    ______ ____
ROOT
ATOM      1  N   UNL     1      34.389 -22.818 -18.002  0.00  0.00    -0.245 NA
ATOM      2  C   UNL     1      35.628 -22.826 -15.507  0.00  0.00    -0.009 C 
ATOM      3  C   UNL     1      34.423 -23.487 -15.679  0.00  0.00    +0.024 C 
ATOM      4  C   UNL     1      36.221 -22.160 -16.568  0.00  0.00    +0.141 C 
ATOM      5  C   UNL     1      35.564 -22.186 -17.787  0.00  0.00    +0.092 C 
ATOM      6  C   UNL     1      33.847 -23.455 -16.939  0.00  0.00    +0.096 C 
ATOM      7  C   UNL     1      36.152 -21.486 -18.969  0.00  0.00    +0.055 C 
ENDROOT
BRANCH   4   8
ATOM      8  O   UNL     1      37.402 -21.505 -16.419  0.00  0.00    -0.505 OA
ATOM      9  H   UNL     1      37.845 -21.161 -17.169  0.00  0.00    +0.292 HD
ENDBRANCH   4   8
BRANCH   2  10
ATOM     10  C   UNL     1      36.300 -22.828 -14.160  0.00  0.00    -0.051 C 
BRANCH  10  11
ATOM     11  N   UNL     1      37.448 -23.723 -14.129  0.00  0.00    +0.395 N 
ATOM     12  H1  UNL     1      37.468 -24.270 -14.988  0.00  0.00    -0.083 HD
ATOM     13  H2  UNL     1      38.297 -23.163 -14.045  0.00  0.00    -0.083 HD
BRANCH  11  14
ATOM     14  CA  UNL     1      37.367 -24.628 -12.984  0.00  0.00    +0.040 C 
BRANCH  14  16
ATOM     15  OXT UNL     1      38.792 -23.149 -11.654  0.00  0.00    -0.253 OA
ATOM     16  C   UNL     1      37.809 -23.871 -11.748  0.00  0.00    +0.293 C 
BRANCH  16  17
ATOM     17  O   UNL     1      36.962 -24.113 -10.714  0.00  0.00    -0.482 OA
ATOM     18  H   UNL     1      37.211 -23.882  -9.840  0.00  0.00    +0.295 HD
ENDBRANCH  16  17
ENDBRANCH  14  16
BRANCH  14  19
ATOM     19  C   UNL     1      38.197 -25.899 -13.214  0.00  0.00    -0.010 C 
BRANCH  19  20
ATOM     20  C   UNL     1      38.962 -25.927 -14.542  0.00  0.00    -0.002 C 
ATOM     21  C   UNL     1      40.463 -25.804 -14.317  0.00  0.00    -0.000 C 
ENDBRANCH  19  20
ENDBRANCH  14  19
ENDBRANCH  11  14
ENDBRANCH  10  11
ENDBRANCH   2  10
BRANCH   3  22
ATOM     22  C   UNL     1      33.748 -24.217 -14.569  0.00  0.00    +0.181 C 
BRANCH  22  23
ATOM     23  O   UNL     1      32.357 -24.327 -14.851  0.00  0.00    -0.268 OA
BRANCH  23  24
ATOM     24  P   UNL     1      31.312 -23.649 -13.823  0.00  0.00    +0.473 P 
ATOM     25  O   UNL     1      30.242 -22.813 -14.464  0.00  0.00    -0.227 OA
BRANCH  24  26
ATOM     26  O   UNL     1      30.773 -24.915 -12.975  0.00  0.00    -0.303 OA
ATOM     27  H   UNL     1      30.592 -24.640 -12.063  0.00  0.00    +0.222 HD
ENDBRANCH  24  26
BRANCH  24  28
ATOM     28  O   UNL     1      32.258 -22.870 -12.768  0.00  0.00    -0.303 OA
ATOM     29  H   UNL     1      31.706 -22.438 -12.096  0.00  0.00    +0.222 HD
ENDBRANCH  24  28
ENDBRANCH  23  24
ENDBRANCH  22  23
ENDBRANCH   3  22
TORSDOF 13
ENDMDL
MODEL 3
REMARK VINA RESULT:      -8.0      3.105      5.681
REMARK  Name = 444861
REMARK  13 active torsions:
REMARK  status: ('A' for Active; 'I' for Inactive)
REMARK    1  A    between atoms: C_2  and  C_10
REMARK    2  A    between atoms: C_3  and  C_22
REMARK    3  A    between atoms: C_4  and  O_8
REMARK    4  A    between atoms: C_10  and  N_11
REMARK    5  A    between atoms: N_11  and  CA_14
REMARK    6  A    between atoms: CA_14  and  C_16
REMARK    7  A    between atoms: CA_14  and  C_19
REMARK    8  A    between atoms: C_16  and  O_17
REMARK    9  A    between atoms: C_19  and  C_20
REMARK   10  A    between atoms: C_22  and  O_23
REMARK   11  A    between atoms: O_23  and  P_24
REMARK   12  A    between atoms: P_24  and  O_26
REMARK   13  A    between atoms: P_24  and  O_28
REMARK                            x       y       z     vdW  Elec       q    Type
REMARK                         _______ _______ _______ _____ _____    ______ ____
ROOT
ATOM      1  N   UNL     1      33.588 -22.605 -18.327  0.00  0.00    -0.245 NA
ATOM      2  C   UNL     1      35.402 -22.933 -16.239  0.00  0.00    -0.009 C 
ATOM      3  C   UNL     1      34.103 -23.390 -16.098  0.00  0.00    +0.024 C 
ATOM      4  C   UNL     1      35.807 -22.314 -17.410  0.00  0.00    +0.141 C 
ATOM      5  C   UNL     1      34.866 -22.174 -18.418  0.00  0.00    +0.092 C 
ATOM      6  C   UNL     1      33.239 -23.204 -17.165  0.00  0.00    +0.096 C 
ATOM      7  C   UNL     1      35.240 -21.515 -19.705  0.00  0.00    +0.055 C 
ENDROOT
BRANCH   4   8
ATOM      8  O   UNL     1      37.077 -21.857 -17.566  0.00  0.00    -0.505 OA
ATOM      9  H   UNL     1      37.386 -21.615 -18.416  0.00  0.00    +0.292 HD
ENDBRANCH   4   8
BRANCH   2  10
ATOM     10  C   UNL     1      36.385 -23.108 -15.112  0.00  0.00    -0.051 C 
BRANCH  10  11
ATOM     11  N   UNL     1      37.473 -24.005 -15.476  0.00  0.00    +0.395 N 
ATOM     12  H1  UNL     1      37.263 -24.436 -16.376  0.00  0.00    -0.083 HD
ATOM     13  H2  UNL     1      38.336 -23.465 -15.534  0.00  0.00    -0.083 HD
BRANCH  11  14
ATOM     14  CA  UNL     1      37.640 -25.051 -14.469  0.00  0.00    +0.040 C 
BRANCH  14  16
ATOM     15  OXT UNL     1      36.197 -26.580 -15.722  0.00  0.00    -0.253 OA
ATOM     16  C   UNL     1      37.218 -26.371 -15.082  0.00  0.00    +0.293 C 
BRANCH  16  17
ATOM     17  O   UNL     1      38.136 -27.336 -14.812  0.00  0.00    -0.482 OA
ATOM     18  H   UNL     1      38.689 -27.258 -14.059  0.00  0.00    +0.295 HD
ENDBRANCH  16  17
ENDBRANCH  14  16
BRANCH  14  19
ATOM     19  C   UNL     1      36.855 -24.729 -13.189  0.00  0.00    -0.010 C 
BRANCH  19  20
ATOM     20  C   UNL     1      37.715 -24.217 -12.027  0.00  0.00    -0.002 C 
ATOM     21  C   UNL     1      37.196 -22.885 -11.503  0.00  0.00    -0.000 C 
ENDBRANCH  19  20
ENDBRANCH  14  19
ENDBRANCH  11  14
ENDBRANCH  10  11
ENDBRANCH   2  10
BRANCH   3  22
ATOM     22  C   UNL     1      33.622 -24.063 -14.859  0.00  0.00    +0.181 C 
BRANCH  22  23
ATOM     23  O   UNL     1      32.224 -24.308 -14.963  0.00  0.00    -0.268 OA
BRANCH  23  24
ATOM     24  P   UNL     1      31.252 -23.694 -13.828  0.00  0.00    +0.473 P 
ATOM     25  O   UNL     1      30.092 -22.896 -14.349  0.00  0.00    -0.227 OA
BRANCH  24  26
ATOM     26  O   UNL     1      30.850 -24.997 -12.960  0.00  0.00    -0.303 OA
ATOM     27  H   UNL     1      29.890 -25.014 -12.828  0.00  0.00    +0.222 HD
ENDBRANCH  24  26
BRANCH  24  28
ATOM     28  O   UNL     1      32.259 -22.891 -12.850  0.00  0.00    -0.303 OA
ATOM     29  H   UNL     1      33.101 -22.739 -13.307  0.00  0.00    +0.222 HD
ENDBRANCH  24  28
ENDBRANCH  23  24
ENDBRANCH  22  23
ENDBRANCH   3  22
TORSDOF 13
ENDMDL
MODEL 4
REMARK VINA RESULT:      -7.9      2.055      5.682
REMARK  Name = 444861
REMARK  13 active torsions:
REMARK  status: ('A' for Active; 'I' for Inactive)
REMARK    1  A    between atoms: C_2  and  C_10
REMARK    2  A    between atoms: C_3  and  C_22
REMARK    3  A    between atoms: C_4  and  O_8
REMARK    4  A    between atoms: C_10  and  N_11
REMARK    5  A    between atoms: N_11  and  CA_14
REMARK    6  A    between atoms: CA_14  and  C_16
REMARK    7  A    between atoms: CA_14  and  C_19
REMARK    8  A    between atoms: C_16  and  O_17
REMARK    9  A    between atoms: C_19  and  C_20
REMARK   10  A    between atoms: C_22  and  O_23
REMARK   11  A    between atoms: O_23  and  P_24
REMARK   12  A    between atoms: P_24  and  O_26
REMARK   13  A    between atoms: P_24  and  O_28
REMARK                            x       y       z     vdW  Elec       q    Type
REMARK                         _______ _______ _______ _____ _____    ______ ____
ROOT
ATOM      1  N   UNL     1      30.334 -23.578 -13.959  0.00  0.00    -0.245 NA
ATOM      2  C   UNL     1      32.609 -23.514 -15.565  0.00  0.00    -0.009 C 
ATOM      3  C   UNL     1      32.677 -24.068 -14.297  0.00  0.00    +0.024 C 
ATOM      4  C   UNL     1      31.417 -22.992 -16.040  0.00  0.00    +0.141 C 
ATOM      5  C   UNL     1      30.315 -23.047 -15.202  0.00  0.00    +0.092 C 
ATOM      6  C   UNL     1      31.519 -24.077 -13.537  0.00  0.00    +0.096 C 
ATOM      7  C   UNL     1      29.001 -22.500 -15.655  0.00  0.00    +0.055 C 
ENDROOT
BRANCH   4   8
ATOM      8  O   UNL     1      31.329 -22.443 -17.279  0.00  0.00    -0.505 OA
ATOM      9  H   UNL     1      30.618 -22.670 -17.844  0.00  0.00    +0.292 HD
ENDBRANCH   4   8
BRANCH   2  10
ATOM     10  C   UNL     1      33.837 -23.477 -16.435  0.00  0.00    -0.051 C 
BRANCH  10  11
ATOM     11  N   UNL     1      34.855 -22.587 -15.897  0.00  0.00    +0.395 N 
ATOM     12  H1  UNL     1      34.599 -21.622 -16.104  0.00  0.00    -0.083 HD
ATOM     13  H2  UNL     1      34.915 -22.730 -14.889  0.00  0.00    -0.083 HD
BRANCH  11  14
ATOM     14  CA  UNL     1      36.160 -22.875 -16.492  0.00  0.00    +0.040 C 
BRANCH  14  16
ATOM     15  OXT UNL     1      37.692 -22.831 -14.584  0.00  0.00    -0.253 OA
ATOM     16  C   UNL     1      37.052 -23.460 -15.416  0.00  0.00    +0.293 C 
BRANCH  16  17
ATOM     17  O   UNL     1      37.070 -24.816 -15.498  0.00  0.00    -0.482 OA
ATOM     18  H   UNL     1      37.229 -25.330 -14.731  0.00  0.00    +0.295 HD
ENDBRANCH  16  17
ENDBRANCH  14  16
BRANCH  14  19
ATOM     19  C   UNL     1      36.772 -21.623 -17.136  0.00  0.00    -0.010 C 
BRANCH  19  20
ATOM     20  C   UNL     1      36.739 -21.616 -18.669  0.00  0.00    -0.002 C 
ATOM     21  C   UNL     1      35.313 -21.510 -19.190  0.00  0.00    -0.000 C 
ENDBRANCH  19  20
ENDBRANCH  14  19
ENDBRANCH  11  14
ENDBRANCH  10  11
ENDBRANCH   2  10
BRANCH   3  22
ATOM     22  C   UNL     1      33.936 -24.642 -13.744  0.00  0.00    +0.181 C 
BRANCH  22  23
ATOM     23  O   UNL     1      34.240 -24.014 -12.504  0.00  0.00    -0.268 OA
BRANCH  23  24
ATOM     24  P   UNL     1      35.569 -24.481 -11.713  0.00  0.00    +0.473 P 
ATOM     25  O   UNL     1      35.344 -24.921 -10.296  0.00  0.00    -0.227 OA
BRANCH  24  26
ATOM     26  O   UNL     1      36.186 -25.612 -12.690  0.00  0.00    -0.303 OA
ATOM     27  H   UNL     1      35.526 -26.306 -12.838  0.00  0.00    +0.222 HD
ENDBRANCH  24  26
BRANCH  24  28
ATOM     28  O   UNL     1      36.585 -23.236 -11.898  0.00  0.00    -0.303 OA
ATOM     29  H   UNL     1      36.427 -22.583 -11.198  0.00  0.00    +0.222 HD
ENDBRANCH  24  28
ENDBRANCH  23  24
ENDBRANCH  22  23
ENDBRANCH   3  22
TORSDOF 13
ENDMDL
MODEL 5
REMARK VINA RESULT:      -7.8      3.016      5.033
REMARK  Name = 444861
REMARK  13 active torsions:
REMARK  status: ('A' for Active; 'I' for Inactive)
REMARK    1  A    between atoms: C_2  and  C_10
REMARK    2  A    between atoms: C_3  and  C_22
REMARK    3  A    between atoms: C_4  and  O_8
REMARK    4  A    between atoms: C_10  and  N_11
REMARK    5  A    between atoms: N_11  and  CA_14
REMARK    6  A    between atoms: CA_14  and  C_16
REMARK    7  A    between atoms: CA_14  and  C_19
REMARK    8  A    between atoms: C_16  and  O_17
REMARK    9  A    between atoms: C_19  and  C_20
REMARK   10  A    between atoms: C_22  and  O_23
REMARK   11  A    between atoms: O_23  and  P_24
REMARK   12  A    between atoms: P_24  and  O_26
REMARK   13  A    between atoms: P_24  and  O_28
REMARK                            x       y       z     vdW  Elec       q    Type
REMARK                         _______ _______ _______ _____ _____    ______ ____
ROOT
ATOM      1  N   UNL     1      37.227 -23.003 -14.431  0.00  0.00    -0.245 NA
ATOM      2  C   UNL     1      34.562 -23.777 -14.187  0.00  0.00    -0.009 C 
ATOM      3  C   UNL     1      35.048 -23.361 -15.415  0.00  0.00    +0.024 C 
ATOM      4  C   UNL     1      35.393 -23.811 -13.078  0.00  0.00    +0.141 C 
ATOM      5  C   UNL     1      36.709 -23.416 -13.253  0.00  0.00    +0.092 C 
ATOM      6  C   UNL     1      36.380 -22.987 -15.486  0.00  0.00    +0.096 C 
ATOM      7  C   UNL     1      37.655 -23.430 -12.096  0.00  0.00    +0.055 C 
ENDROOT
BRANCH   4   8
ATOM      8  O   UNL     1      34.936 -24.215 -11.865  0.00  0.00    -0.505 OA
ATOM      9  H   UNL     1      35.472 -24.754 -11.317  0.00  0.00    +0.292 HD
ENDBRANCH   4   8
BRANCH   2  10
ATOM     10  C   UNL     1      33.123 -24.196 -14.051  0.00  0.00    -0.051 C 
BRANCH  10  11
ATOM     11  N   UNL     1      32.270 -23.084 -13.657  0.00  0.00    +0.395 N 
ATOM     12  H1  UNL     1      32.289 -22.991 -12.642  0.00  0.00    -0.083 HD
ATOM     13  H2  UNL     1      32.620 -22.232 -14.097  0.00  0.00    -0.083 HD
BRANCH  11  14
ATOM     14  CA  UNL     1      30.893 -23.307 -14.094  0.00  0.00    +0.040 C 
BRANCH  14  16
ATOM     15  OXT UNL     1      30.384 -25.658 -14.546  0.00  0.00    -0.253 OA
ATOM     16  C   UNL     1      30.514 -24.735 -13.754  0.00  0.00    +0.293 C 
BRANCH  16  17
ATOM     17  O   UNL     1      30.310 -24.867 -12.418  0.00  0.00    -0.482 OA
ATOM     18  H   UNL     1      29.555 -24.481 -12.018  0.00  0.00    +0.295 HD
ENDBRANCH  16  17
ENDBRANCH  14  16
BRANCH  14  19
ATOM     19  C   UNL     1      30.721 -23.001 -15.589  0.00  0.00    -0.010 C 
BRANCH  19  20
ATOM     20  C   UNL     1      29.318 -22.525 -15.983  0.00  0.00    -0.002 C 
ATOM     21  C   UNL     1      28.591 -23.577 -16.810  0.00  0.00    -0.000 C 
ENDBRANCH  19  20
ENDBRANCH  14  19
ENDBRANCH  11  14
ENDBRANCH  10  11
ENDBRANCH   2  10
BRANCH   3  22
ATOM     22  C   UNL     1      34.193 -23.308 -16.635  0.00  0.00    +0.181 C 
BRANCH  22  23
ATOM     23  O   UNL     1      34.922 -22.708 -17.700  0.00  0.00    -0.268 OA
BRANCH  23  24
ATOM     24  P   UNL     1      34.142 -22.389 -19.078  0.00  0.00    +0.473 P 
ATOM     25  O   UNL     1      34.713 -21.260 -19.885  0.00  0.00    -0.227 OA
BRANCH  24  26
ATOM     26  O   UNL     1      34.132 -23.824 -19.822  0.00  0.00    -0.303 OA
ATOM     27  H   UNL     1      35.031 -24.047 -20.106  0.00  0.00    +0.222 HD
ENDBRANCH  24  26
BRANCH  24  28
ATOM     28  O   UNL     1      32.603 -22.199 -18.616  0.00  0.00    -0.303 OA
ATOM     29  H   UNL     1      32.531 -21.418 -18.046  0.00  0.00    +0.222 HD
ENDBRANCH  24  28
ENDBRANCH  23  24
ENDBRANCH  22  23
ENDBRANCH   3  22
TORSDOF 13
ENDMDL
MODEL 6
REMARK VINA RESULT:      -7.8      2.743      7.004
REMARK  Name = 444861
REMARK  13 active torsions:
REMARK  status: ('A' for Active; 'I' for Inactive)
REMARK    1  A    between atoms: C_2  and  C_10
REMARK    2  A    between atoms: C_3  and  C_22
REMARK    3  A    between atoms: C_4  and  O_8
REMARK    4  A    between atoms: C_10  and  N_11
REMARK    5  A    between atoms: N_11  and  CA_14
REMARK    6  A    between atoms: CA_14  and  C_16
REMARK    7  A    between atoms: CA_14  and  C_19
REMARK    8  A    between atoms: C_16  and  O_17
REMARK    9  A    between atoms: C_19  and  C_20
REMARK   10  A    between atoms: C_22  and  O_23
REMARK   11  A    between atoms: O_23  and  P_24
REMARK   12  A    between atoms: P_24  and  O_26
REMARK   13  A    between atoms: P_24  and  O_28
REMARK                            x       y       z     vdW  Elec       q    Type
REMARK                         _______ _______ _______ _____ _____    ______ ____
ROOT
ATOM      1  N   UNL     1      32.886 -23.892 -13.317  0.00  0.00    -0.245 NA
ATOM      2  C   UNL     1      33.329 -23.589 -16.050  0.00  0.00    -0.009 C 
ATOM      3  C   UNL     1      32.054 -23.416 -15.536  0.00  0.00    +0.024 C 
ATOM      4  C   UNL     1      34.385 -23.911 -15.214  0.00  0.00    +0.141 C 
ATOM      5  C   UNL     1      34.113 -24.051 -13.863  0.00  0.00    +0.092 C 
ATOM      6  C   UNL     1      31.886 -23.577 -14.170  0.00  0.00    +0.096 C 
ATOM      7  C   UNL     1      35.209 -24.399 -12.910  0.00  0.00    +0.055 C 
ENDROOT
BRANCH   4   8
ATOM      8  O   UNL     1      35.642 -24.085 -15.699  0.00  0.00    -0.505 OA
ATOM      9  H   UNL     1      35.985 -23.493 -16.338  0.00  0.00    +0.292 HD
ENDBRANCH   4   8
BRANCH   2  10
ATOM     10  C   UNL     1      33.571 -23.425 -17.527  0.00  0.00    -0.051 C 
BRANCH  10  11
ATOM     11  N   UNL     1      34.061 -22.094 -17.852  0.00  0.00    +0.395 N 
ATOM     12  H1  UNL     1      33.285 -21.525 -18.187  0.00  0.00    -0.083 HD
ATOM     13  H2  UNL     1      34.467 -21.681 -17.011  0.00  0.00    -0.083 HD
BRANCH  11  14
ATOM     14  CA  UNL     1      35.091 -22.160 -18.887  0.00  0.00    +0.040 C 
BRANCH  14  16
ATOM     15  OXT UNL     1      37.015 -22.136 -17.375  0.00  0.00    -0.253 OA
ATOM     16  C   UNL     1      36.388 -21.640 -18.300  0.00  0.00    +0.293 C 
BRANCH  16  17
ATOM     17  O   UNL     1      36.775 -20.504 -18.937  0.00  0.00    -0.482 OA
ATOM     18  H   UNL     1      37.686 -20.336 -19.082  0.00  0.00    +0.295 HD
ENDBRANCH  16  17
ENDBRANCH  14  16
BRANCH  14  19
ATOM     19  C   UNL     1      34.672 -21.387 -20.146  0.00  0.00    -0.010 C 
BRANCH  19  20
ATOM     20  C   UNL     1      33.300 -20.709 -20.048  0.00  0.00    -0.002 C 
ATOM     21  C   UNL     1      33.235 -19.467 -20.927  0.00  0.00    -0.000 C 
ENDBRANCH  19  20
ENDBRANCH  14  19
ENDBRANCH  11  14
ENDBRANCH  10  11
ENDBRANCH   2  10
BRANCH   3  22
ATOM     22  C   UNL     1      30.887 -23.068 -16.395  0.00  0.00    +0.181 C 
BRANCH  22  23
ATOM     23  O   UNL     1      29.742 -23.791 -15.956  0.00  0.00    -0.268 OA
BRANCH  23  24
ATOM     24  P   UNL     1      28.302 -23.389 -16.567  0.00  0.00    +0.473 P 
ATOM     25  O   UNL     1      27.740 -24.360 -17.564  0.00  0.00    -0.227 OA
BRANCH  24  26
ATOM     26  O   UNL     1      27.401 -23.171 -15.242  0.00  0.00    -0.303 OA
ATOM     27  H   UNL     1      26.479 -23.396 -15.438  0.00  0.00    +0.222 HD
ENDBRANCH  24  26
BRANCH  24  28
ATOM     28  O   UNL     1      28.522 -21.884 -17.117  0.00  0.00    -0.303 OA
ATOM     29  H   UNL     1      27.730 -21.595 -17.596  0.00  0.00    +0.222 HD
ENDBRANCH  24  28
ENDBRANCH  23  24
ENDBRANCH  22  23
ENDBRANCH   3  22
TORSDOF 13
ENDMDL
MODEL 7
REMARK VINA RESULT:      -7.8      1.928      5.337
REMARK  Name = 444861
REMARK  13 active torsions:
REMARK  status: ('A' for Active; 'I' for Inactive)
REMARK    1  A    between atoms: C_2  and  C_10
REMARK    2  A    between atoms: C_3  and  C_22
REMARK    3  A    between atoms: C_4  and  O_8
REMARK    4  A    between atoms: C_10  and  N_11
REMARK    5  A    between atoms: N_11  and  CA_14
REMARK    6  A    between atoms: CA_14  and  C_16
REMARK    7  A    between atoms: CA_14  and  C_19
REMARK    8  A    between atoms: C_16  and  O_17
REMARK    9  A    between atoms: C_19  and  C_20
REMARK   10  A    between atoms: C_22  and  O_23
REMARK   11  A    between atoms: O_23  and  P_24
REMARK   12  A    between atoms: P_24  and  O_26
REMARK   13  A    between atoms: P_24  and  O_28
REMARK                            x       y       z     vdW  Elec       q    Type
REMARK                         _______ _______ _______ _____ _____    ______ ____
ROOT
ATOM      1  N   UNL     1      31.910 -23.540 -13.732  0.00  0.00    -0.245 NA
ATOM      2  C   UNL     1      33.194 -23.484 -16.203  0.00  0.00    -0.009 C 
ATOM      3  C   UNL     1      33.891 -23.885 -15.075  0.00  0.00    +0.024 C 
ATOM      4  C   UNL     1      31.863 -23.111 -16.112  0.00  0.00    +0.141 C 
ATOM      5  C   UNL     1      31.271 -23.156 -14.860  0.00  0.00    +0.092 C 
ATOM      6  C   UNL     1      33.208 -23.896 -13.870  0.00  0.00    +0.096 C 
ATOM      7  C   UNL     1      29.839 -22.766 -14.695  0.00  0.00    +0.055 C 
ENDROOT
BRANCH   4   8
ATOM      8  O   UNL     1      31.163 -22.714 -17.206  0.00  0.00    -0.505 OA
ATOM      9  H   UNL     1      30.405 -22.174 -17.107  0.00  0.00    +0.292 HD
ENDBRANCH   4   8
BRANCH   2  10
ATOM     10  C   UNL     1      33.886 -23.452 -17.540  0.00  0.00    -0.051 C 
BRANCH  10  11
ATOM     11  N   UNL     1      34.061 -22.092 -18.027  0.00  0.00    +0.395 N 
ATOM     12  H1  UNL     1      33.182 -21.763 -18.424  0.00  0.00    -0.083 HD
ATOM     13  H2  UNL     1      34.342 -21.499 -17.246  0.00  0.00    -0.083 HD
BRANCH  11  14
ATOM     14  CA  UNL     1      35.101 -22.040 -19.054  0.00  0.00    +0.040 C 
BRANCH  14  16
ATOM     15  OXT UNL     1      37.009 -22.271 -17.539  0.00  0.00    -0.253 OA
ATOM     16  C   UNL     1      36.402 -21.636 -18.390  0.00  0.00    +0.293 C 
BRANCH  16  17
ATOM     17  O   UNL     1      36.822 -20.432 -18.859  0.00  0.00    -0.482 OA
ATOM     18  H   UNL     1      37.542 -19.994 -18.449  0.00  0.00    +0.295 HD
ENDBRANCH  16  17
ENDBRANCH  14  16
BRANCH  14  19
ATOM     19  C   UNL     1      34.714 -21.090 -20.197  0.00  0.00    -0.010 C 
BRANCH  19  20
ATOM     20  C   UNL     1      33.281 -20.551 -20.118  0.00  0.00    -0.002 C 
ATOM     21  C   UNL     1      33.093 -19.347 -21.030  0.00  0.00    -0.000 C 
ENDBRANCH  19  20
ENDBRANCH  14  19
ENDBRANCH  11  14
ENDBRANCH  10  11
ENDBRANCH   2  10
BRANCH   3  22
ATOM     22  C   UNL     1      35.322 -24.295 -15.125  0.00  0.00    +0.181 C 
BRANCH  22  23
ATOM     23  O   UNL     1      35.414 -25.712 -15.018  0.00  0.00    -0.268 OA
BRANCH  23  24
ATOM     24  P   UNL     1      36.879 -26.390 -15.060  0.00  0.00    +0.473 P 
ATOM     25  O   UNL     1      37.307 -27.060 -13.787  0.00  0.00    -0.227 OA
BRANCH  24  26
ATOM     26  O   UNL     1      36.784 -27.364 -16.347  0.00  0.00    -0.303 OA
ATOM     27  H   UNL     1      36.899 -26.843 -17.156  0.00  0.00    +0.222 HD
ENDBRANCH  24  26
BRANCH  24  28
ATOM     28  O   UNL     1      37.843 -25.195 -15.569  0.00  0.00    -0.303 OA
ATOM     29  H   UNL     1      38.452 -25.536 -16.243  0.00  0.00    +0.222 HD
ENDBRANCH  24  28
ENDBRANCH  23  24
ENDBRANCH  22  23
ENDBRANCH   3  22
TORSDOF 13
ENDMDL
MODEL 8
REMARK VINA RESULT:      -7.7      2.867      5.965
REMARK  Name = 444861
REMARK  13 active torsions:
REMARK  status: ('A' for Active; 'I' for Inactive)
REMARK    1  A    between atoms: C_2  and  C_10
REMARK    2  A    between atoms: C_3  and  C_22
REMARK    3  A    between atoms: C_4  and  O_8
REMARK    4  A    between atoms: C_10  and  N_11
REMARK    5  A    between atoms: N_11  and  CA_14
REMARK    6  A    between atoms: CA_14  and  C_16
REMARK    7  A    between atoms: CA_14  and  C_19
REMARK    8  A    between atoms: C_16  and  O_17
REMARK    9  A    between atoms: C_19  and  C_20
REMARK   10  A    between atoms: C_22  and  O_23
REMARK   11  A    between atoms: O_23  and  P_24
REMARK   12  A    between atoms: P_24  and  O_26
REMARK   13  A    between atoms: P_24  and  O_28
REMARK                            x       y       z     vdW  Elec       q    Type
REMARK                         _______ _______ _______ _____ _____    ______ ____
ROOT
ATOM      1  N   UNL     1      36.547 -25.414 -14.066  0.00  0.00    -0.245 NA
ATOM      2  C   UNL     1      36.173 -23.181 -15.689  0.00  0.00    -0.009 C 
ATOM      3  C   UNL     1      35.081 -23.783 -15.085  0.00  0.00    +0.024 C 
ATOM      4  C   UNL     1      37.449 -23.682 -15.492  0.00  0.00    +0.141 C 
ATOM      5  C   UNL     1      37.582 -24.794 -14.677  0.00  0.00    +0.092 C 
ATOM      6  C   UNL     1      35.319 -24.890 -14.287  0.00  0.00    +0.096 C 
ATOM      7  C   UNL     1      38.932 -25.382 -14.426  0.00  0.00    +0.055 C 
ENDROOT
BRANCH   4   8
ATOM      8  O   UNL     1      38.532 -23.107 -16.077  0.00  0.00    -0.505 OA
ATOM      9  H   UNL     1      39.325 -22.998 -15.590  0.00  0.00    +0.292 HD
ENDBRANCH   4   8
BRANCH   2  10
ATOM     10  C   UNL     1      35.974 -21.974 -16.567  0.00  0.00    -0.051 C 
BRANCH  10  11
ATOM     11  N   UNL     1      36.066 -22.311 -17.980  0.00  0.00    +0.395 N 
ATOM     12  H1  UNL     1      36.963 -21.988 -18.342  0.00  0.00    -0.083 HD
ATOM     13  H2  UNL     1      35.987 -23.323 -18.080  0.00  0.00    -0.083 HD
BRANCH  11  14
ATOM     14  CA  UNL     1      34.986 -21.678 -18.735  0.00  0.00    +0.040 C 
BRANCH  14  16
ATOM     15  OXT UNL     1      34.082 -23.805 -19.538  0.00  0.00    -0.253 OA
ATOM     16  C   UNL     1      33.918 -22.719 -18.999  0.00  0.00    +0.293 C 
BRANCH  16  17
ATOM     17  O   UNL     1      32.708 -22.280 -18.565  0.00  0.00    -0.482 OA
ATOM     18  H   UNL     1      32.399 -21.432 -18.817  0.00  0.00    +0.295 HD
ENDBRANCH  16  17
ENDBRANCH  14  16
BRANCH  14  19
ATOM     19  C   UNL     1      35.507 -21.038 -20.030  0.00  0.00    -0.010 C 
BRANCH  19  20
ATOM     20  C   UNL     1      34.524 -20.070 -20.700  0.00  0.00    -0.002 C 
ATOM     21  C   UNL     1      35.244 -18.848 -21.252  0.00  0.00    -0.000 C 
ENDBRANCH  19  20
ENDBRANCH  14  19
ENDBRANCH  11  14
ENDBRANCH  10  11
ENDBRANCH   2  10
BRANCH   3  22
ATOM     22  C   UNL     1      33.691 -23.280 -15.266  0.00  0.00    +0.181 C 
BRANCH  22  23
ATOM     23  O   UNL     1      32.773 -24.206 -14.697  0.00  0.00    -0.268 OA
BRANCH  23  24
ATOM     24  P   UNL     1      31.551 -23.629 -13.811  0.00  0.00    +0.473 P 
ATOM     25  O   UNL     1      30.548 -22.810 -14.569  0.00  0.00    -0.227 OA
BRANCH  24  26
ATOM     26  O   UNL     1      30.958 -24.960 -13.111  0.00  0.00    -0.303 OA
ATOM     27  H   UNL     1      30.854 -24.806 -12.160  0.00  0.00    +0.222 HD
ENDBRANCH  24  26
BRANCH  24  28
ATOM     28  O   UNL     1      32.287 -22.864 -12.591  0.00  0.00    -0.303 OA
ATOM     29  H   UNL     1      31.620 -22.502 -11.987  0.00  0.00    +0.222 HD
ENDBRANCH  24  28
ENDBRANCH  23  24
ENDBRANCH  22  23
ENDBRANCH   3  22
TORSDOF 13
ENDMDL
MODEL 9
REMARK VINA RESULT:      -7.7      3.364      6.770
REMARK  Name = 444861
REMARK  13 active torsions:
REMARK  status: ('A' for Active; 'I' for Inactive)
REMARK    1  A    between atoms: C_2  and  C_10
REMARK    2  A    between atoms: C_3  and  C_22
REMARK    3  A    between atoms: C_4  and  O_8
REMARK    4  A    between atoms: C_10  and  N_11
REMARK    5  A    between atoms: N_11  and  CA_14
REMARK    6  A    between atoms: CA_14  and  C_16
REMARK    7  A    between atoms: CA_14  and  C_19
REMARK    8  A    between atoms: C_16  and  O_17
REMARK    9  A    between atoms: C_19  and  C_20
REMARK   10  A    between atoms: C_22  and  O_23
REMARK   11  A    between atoms: O_23  and  P_24
REMARK   12  A    between atoms: P_24  and  O_26
REMARK   13  A    between atoms: P_24  and  O_28
REMARK                            x       y       z     vdW  Elec       q    Type
REMARK                         _______ _______ _______ _____ _____    ______ ____
ROOT
ATOM      1  N   UNL     1      31.344 -23.762 -15.698  0.00  0.00    -0.245 NA
ATOM      2  C   UNL     1      33.978 -24.004 -14.825  0.00  0.00    -0.009 C 
ATOM      3  C   UNL     1      33.715 -23.477 -16.078  0.00  0.00    +0.024 C 
ATOM      4  C   UNL     1      32.941 -24.411 -14.001  0.00  0.00    +0.141 C 
ATOM      5  C   UNL     1      31.649 -24.270 -14.483  0.00  0.00    +0.092 C 
ATOM      6  C   UNL     1      32.389 -23.377 -16.467  0.00  0.00    +0.096 C 
ATOM      7  C   UNL     1      30.487 -24.691 -13.644  0.00  0.00    +0.055 C 
ENDROOT
BRANCH   4   8
ATOM      8  O   UNL     1      33.178 -24.930 -12.769  0.00  0.00    -0.505 OA
ATOM      9  H   UNL     1      33.493 -25.808 -12.683  0.00  0.00    +0.292 HD
ENDBRANCH   4   8
BRANCH   2  10
ATOM     10  C   UNL     1      35.401 -24.136 -14.350  0.00  0.00    -0.051 C 
BRANCH  10  11
ATOM     11  N   UNL     1      35.691 -25.482 -13.877  0.00  0.00    +0.395 N 
ATOM     12  H1  UNL     1      34.886 -25.835 -13.361  0.00  0.00    -0.083 HD
ATOM     13  H2  UNL     1      35.885 -26.077 -14.682  0.00  0.00    -0.083 HD
BRANCH  11  14
ATOM     14  CA  UNL     1      36.861 -25.481 -13.000  0.00  0.00    +0.040 C 
BRANCH  14  16
ATOM     15  OXT UNL     1      35.392 -25.158 -11.069  0.00  0.00    -0.253 OA
ATOM     16  C   UNL     1      36.443 -24.929 -11.652  0.00  0.00    +0.293 C 
BRANCH  16  17
ATOM     17  O   UNL     1      37.403 -24.106 -11.156  0.00  0.00    -0.482 OA
ATOM     18  H   UNL     1      37.905 -23.569 -11.738  0.00  0.00    +0.295 HD
ENDBRANCH  16  17
ENDBRANCH  14  16
BRANCH  14  19
ATOM     19  C   UNL     1      38.023 -24.689 -13.615  0.00  0.00    -0.010 C 
BRANCH  19  20
ATOM     20  C   UNL     1      39.364 -25.434 -13.627  0.00  0.00    -0.002 C 
ATOM     21  C   UNL     1      40.029 -25.351 -14.993  0.00  0.00    -0.000 C 
ENDBRANCH  19  20
ENDBRANCH  14  19
ENDBRANCH  11  14
ENDBRANCH  10  11
ENDBRANCH   2  10
BRANCH   3  22
ATOM     22  C   UNL     1      34.797 -23.026 -16.997  0.00  0.00    +0.181 C 
BRANCH  22  23
ATOM     23  O   UNL     1      34.292 -22.018 -17.867  0.00  0.00    -0.268 OA
BRANCH  23  24
ATOM     24  P   UNL     1      34.332 -22.289 -19.459  0.00  0.00    +0.473 P 
ATOM     25  O   UNL     1      35.559 -21.782 -20.160  0.00  0.00    -0.227 OA
BRANCH  24  26
ATOM     26  O   UNL     1      34.102 -23.887 -19.555  0.00  0.00    -0.303 OA
ATOM     27  H   UNL     1      34.864 -24.347 -19.169  0.00  0.00    +0.222 HD
ENDBRANCH  24  26
BRANCH  24  28
ATOM     28  O   UNL     1      32.932 -21.680 -19.990  0.00  0.00    -0.303 OA
ATOM     29  H   UNL     1      32.747 -22.021 -20.879  0.00  0.00    +0.222 HD
ENDBRANCH  24  28
ENDBRANCH  23  24
ENDBRANCH  22  23
ENDBRANCH   3  22
TORSDOF 13
ENDMDL
