MODEL 1
REMARK VINA RESULT:      -8.4      0.000      0.000
REMARK  Name = 6087
REMARK  6 active torsions:
REMARK  status: ('A' for Active; 'I' for Inactive)
REMARK    1  A    between atoms: N_2  and  CA_11
REMARK    2  A    between atoms: C_3  and  C_19
REMARK    3  A    between atoms: CA_10  and  C_16
REMARK    4  A    between atoms: C_16  and  O_17
REMARK    5  A    between atoms: C_20  and  O_25
REMARK    6  A    between atoms: C_21  and  O_27
REMARK                            x       y       z     vdW  Elec       q    Type
REMARK                         _______ _______ _______ _____ _____    ______ ____
ROOT
ATOM      1  O   UNL     1      32.989 -14.177 -24.881  0.00  0.00    -0.270 OA
ATOM      2  N   UNL     1      34.173 -12.542 -23.746  0.00  0.00    -0.293 N 
ATOM      3  C   UNL     1      33.713 -13.823 -23.954  0.00  0.00    +0.252 C 
ATOM      4  H   UNL     1      34.750 -12.362 -22.969  0.00  0.00    +0.150 HD
ENDROOT
BRANCH   2  11
ATOM      5  S   UNL     1      32.011 -10.724 -22.541  0.00  0.00    -0.118 S 
ATOM      6  O   UNL     1      35.892  -9.943 -24.474  0.00  0.00    -0.273 OA
ATOM      7  N   UNL     1      33.614  -9.435 -24.121  0.00  0.00    -0.260 N 
ATOM      8  C   UNL     1      32.651 -10.533 -24.245  0.00  0.00    +0.151 C 
ATOM      9  C   UNL     1      32.236  -8.905 -22.211  0.00  0.00    +0.068 C 
ATOM     10  CA  UNL     1      33.533  -8.555 -22.973  0.00  0.00    +0.184 C 
ATOM     11  CA  UNL     1      33.827 -11.433 -24.647  0.00  0.00    +0.178 C 
ATOM     12  C   UNL     1      34.705 -10.180 -24.466  0.00  0.00    +0.247 C 
ATOM     13  C   UNL     1      30.985  -8.175 -22.714  0.00  0.00    +0.013 C 
ATOM     14  C   UNL     1      32.400  -8.690 -20.705  0.00  0.00    +0.013 C 
BRANCH  10  16
ATOM     15  OXT UNL     1      32.946  -6.215 -23.072  0.00  0.00    -0.248 OA
ATOM     16  C   UNL     1      33.614  -7.152 -23.486  0.00  0.00    +0.333 C 
BRANCH  16  17
ATOM     17  O   UNL     1      34.531  -7.057 -24.479  0.00  0.00    -0.479 OA
ATOM     18  H   UNL     1      34.729  -7.805 -25.007  0.00  0.00    +0.295 HD
ENDBRANCH  16  17
ENDBRANCH  10  16
ENDBRANCH   2  11
BRANCH   3  19
ATOM     19  C   UNL     1      34.132 -14.821 -22.937  0.00  0.00    +0.121 C 
ATOM     20  C   UNL     1      33.879 -14.565 -21.603  0.00  0.00    +0.146 C 
ATOM     21  C   UNL     1      34.763 -15.978 -23.352  0.00  0.00    +0.146 C 
ATOM     22  C   UNL     1      34.273 -15.502 -20.647  0.00  0.00    +0.037 C 
ATOM     23  C   UNL     1      35.157 -16.914 -22.396  0.00  0.00    +0.037 C 
ATOM     24  C   UNL     1      34.912 -16.676 -21.043  0.00  0.00    +0.006 C 
BRANCH  20  25
ATOM     25  O   UNL     1      33.255 -13.423 -21.194  0.00  0.00    -0.471 OA
ATOM     26  C   UNL     1      32.168 -13.570 -20.284  0.00  0.00    +0.252 C 
ENDBRANCH  20  25
BRANCH  21  27
ATOM     27  O   UNL     1      35.013 -16.230 -24.668  0.00  0.00    -0.471 OA
ATOM     28  C   UNL     1      34.609 -17.502 -25.171  0.00  0.00    +0.252 C 
ENDBRANCH  21  27
ENDBRANCH   3  19
TORSDOF 6
ENDMDL
MODEL 2
REMARK VINA RESULT:      -8.3      0.045      2.482
REMARK  Name = 6087
REMARK  6 active torsions:
REMARK  status: ('A' for Active; 'I' for Inactive)
REMARK    1  A    between atoms: N_2  and  CA_11
REMARK    2  A    between atoms: C_3  and  C_19
REMARK    3  A    between atoms: CA_10  and  C_16
REMARK    4  A    between atoms: C_16  and  O_17
REMARK    5  A    between atoms: C_20  and  O_25
REMARK    6  A    between atoms: C_21  and  O_27
REMARK                            x       y       z     vdW  Elec       q    Type
REMARK                         _______ _______ _______ _____ _____    ______ ____
ROOT
ATOM      1  O   UNL     1      33.020 -14.227 -24.906  0.00  0.00    -0.270 OA
ATOM      2  N   UNL     1      34.158 -12.578 -23.743  0.00  0.00    -0.293 N 
ATOM      3  C   UNL     1      33.722 -13.866 -23.965  0.00  0.00    +0.252 C 
ATOM      4  H   UNL     1      34.720 -12.393 -22.957  0.00  0.00    +0.150 HD
ENDROOT
BRANCH   2  11
ATOM      5  S   UNL     1      32.014 -10.747 -22.528  0.00  0.00    -0.118 S 
ATOM      6  O   UNL     1      35.883  -9.990 -24.495  0.00  0.00    -0.273 OA
ATOM      7  N   UNL     1      33.610  -9.471 -24.125  0.00  0.00    -0.260 N 
ATOM      8  C   UNL     1      32.641 -10.564 -24.237  0.00  0.00    +0.151 C 
ATOM      9  C   UNL     1      32.251  -8.928 -22.206  0.00  0.00    +0.068 C 
ATOM     10  CA  UNL     1      33.543  -8.586 -22.979  0.00  0.00    +0.184 C 
ATOM     11  CA  UNL     1      33.809 -11.471 -24.646  0.00  0.00    +0.178 C 
ATOM     12  C   UNL     1      34.695 -10.221 -24.476  0.00  0.00    +0.247 C 
ATOM     13  C   UNL     1      30.998  -8.193 -22.701  0.00  0.00    +0.013 C 
ATOM     14  C   UNL     1      32.427  -8.709 -20.701  0.00  0.00    +0.013 C 
BRANCH  10  16
ATOM     15  OXT UNL     1      33.005  -6.234 -23.047  0.00  0.00    -0.248 OA
ATOM     16  C   UNL     1      33.625  -7.185 -23.497  0.00  0.00    +0.333 C 
BRANCH  16  17
ATOM     17  O   UNL     1      34.485  -7.111 -24.542  0.00  0.00    -0.479 OA
ATOM     18  H   UNL     1      34.517  -6.336 -25.068  0.00  0.00    +0.295 HD
ENDBRANCH  16  17
ENDBRANCH  10  16
ENDBRANCH   2  11
BRANCH   3  19
ATOM     19  C   UNL     1      34.140 -14.861 -22.946  0.00  0.00    +0.121 C 
ATOM     20  C   UNL     1      34.773 -16.018 -23.358  0.00  0.00    +0.146 C 
ATOM     21  C   UNL     1      33.887 -14.604 -21.613  0.00  0.00    +0.146 C 
ATOM     22  C   UNL     1      35.165 -16.954 -22.401  0.00  0.00    +0.037 C 
ATOM     23  C   UNL     1      34.279 -15.539 -20.655  0.00  0.00    +0.037 C 
ATOM     24  C   UNL     1      34.918 -16.714 -21.050  0.00  0.00    +0.006 C 
BRANCH  20  25
ATOM     25  O   UNL     1      35.024 -16.272 -24.674  0.00  0.00    -0.471 OA
ATOM     26  C   UNL     1      34.626 -17.546 -25.175  0.00  0.00    +0.252 C 
ENDBRANCH  20  25
BRANCH  21  27
ATOM     27  O   UNL     1      33.262 -13.462 -21.206  0.00  0.00    -0.471 OA
ATOM     28  C   UNL     1      32.184 -13.608 -20.284  0.00  0.00    +0.252 C 
ENDBRANCH  21  27
ENDBRANCH   3  19
TORSDOF 6
ENDMDL
MODEL 3
REMARK VINA RESULT:      -7.7     10.145     14.294
REMARK  Name = 6087
REMARK  6 active torsions:
REMARK  status: ('A' for Active; 'I' for Inactive)
REMARK    1  A    between atoms: N_2  and  CA_11
REMARK    2  A    between atoms: C_3  and  C_19
REMARK    3  A    between atoms: CA_10  and  C_16
REMARK    4  A    between atoms: C_16  and  O_17
REMARK    5  A    between atoms: C_20  and  O_25
REMARK    6  A    between atoms: C_21  and  O_27
REMARK                            x       y       z     vdW  Elec       q    Type
REMARK                         _______ _______ _______ _____ _____    ______ ____
ROOT
ATOM      1  O   UNL     1      33.793 -23.638 -19.061  0.00  0.00    -0.270 OA
ATOM      2  N   UNL     1      34.583 -22.814 -17.045  0.00  0.00    -0.293 N 
ATOM      3  C   UNL     1      34.417 -22.802 -18.412  0.00  0.00    +0.252 C 
ATOM      4  H   UNL     1      35.103 -22.095 -16.620  0.00  0.00    +0.150 HD
ENDROOT
BRANCH   2  11
ATOM      5  S   UNL     1      36.731 -24.232 -15.370  0.00  0.00    -0.118 S 
ATOM      6  O   UNL     1      32.788 -22.516 -14.412  0.00  0.00    -0.273 OA
ATOM      7  N   UNL     1      34.421 -24.207 -14.192  0.00  0.00    -0.260 N 
ATOM      8  C   UNL     1      34.982 -24.768 -15.424  0.00  0.00    +0.151 C 
ATOM      9  C   UNL     1      36.734 -24.298 -13.510  0.00  0.00    +0.068 C 
ATOM     10  CA  UNL     1      35.319 -23.813 -13.126  0.00  0.00    +0.184 C 
ATOM     11  CA  UNL     1      34.008 -23.871 -16.200  0.00  0.00    +0.178 C 
ATOM     12  C   UNL     1      33.533 -23.379 -14.818  0.00  0.00    +0.247 C 
ATOM     13  C   UNL     1      37.051 -25.738 -13.087  0.00  0.00    +0.013 C 
ATOM     14  C   UNL     1      37.812 -23.348 -12.981  0.00  0.00    +0.013 C 
BRANCH  10  16
ATOM     15  OXT UNL     1      35.204 -24.142 -10.737  0.00  0.00    -0.248 OA
ATOM     16  C   UNL     1      34.772 -24.381 -11.855  0.00  0.00    +0.333 C 
BRANCH  16  17
ATOM     17  O   UNL     1      33.727 -25.205 -12.109  0.00  0.00    -0.479 OA
ATOM     18  H   UNL     1      32.854 -24.865 -12.118  0.00  0.00    +0.295 HD
ENDBRANCH  16  17
ENDBRANCH  10  16
ENDBRANCH   2  11
BRANCH   3  19
ATOM     19  C   UNL     1      35.084 -21.681 -19.122  0.00  0.00    +0.121 C 
ATOM     20  C   UNL     1      36.419 -21.430 -18.872  0.00  0.00    +0.146 C 
ATOM     21  C   UNL     1      34.352 -20.921 -20.013  0.00  0.00    +0.146 C 
ATOM     22  C   UNL     1      37.046 -20.376 -19.539  0.00  0.00    +0.037 C 
ATOM     23  C   UNL     1      34.978 -19.867 -20.679  0.00  0.00    +0.037 C 
ATOM     24  C   UNL     1      36.326 -19.596 -20.441  0.00  0.00    +0.006 C 
BRANCH  20  25
ATOM     25  O   UNL     1      37.142 -22.181 -17.993  0.00  0.00    -0.471 OA
ATOM     26  C   UNL     1      37.552 -21.547 -16.784  0.00  0.00    +0.252 C 
ENDBRANCH  20  25
BRANCH  21  27
ATOM     27  O   UNL     1      33.034 -21.169 -20.259  0.00  0.00    -0.471 OA
ATOM     28  C   UNL     1      32.299 -20.150 -20.935  0.00  0.00    +0.252 C 
ENDBRANCH  21  27
ENDBRANCH   3  19
TORSDOF 6
ENDMDL
MODEL 4
REMARK VINA RESULT:      -7.7     10.146     14.290
REMARK  Name = 6087
REMARK  6 active torsions:
REMARK  status: ('A' for Active; 'I' for Inactive)
REMARK    1  A    between atoms: N_2  and  CA_11
REMARK    2  A    between atoms: C_3  and  C_19
REMARK    3  A    between atoms: CA_10  and  C_16
REMARK    4  A    between atoms: C_16  and  O_17
REMARK    5  A    between atoms: C_20  and  O_25
REMARK    6  A    between atoms: C_21  and  O_27
REMARK                            x       y       z     vdW  Elec       q    Type
REMARK                         _______ _______ _______ _____ _____    ______ ____
ROOT
ATOM      1  O   UNL     1      33.791 -23.638 -19.061  0.00  0.00    -0.270 OA
ATOM      2  N   UNL     1      34.578 -22.812 -17.045  0.00  0.00    -0.293 N 
ATOM      3  C   UNL     1      34.414 -22.801 -18.412  0.00  0.00    +0.252 C 
ATOM      4  H   UNL     1      35.097 -22.092 -16.620  0.00  0.00    +0.150 HD
ENDROOT
BRANCH   2  11
ATOM      5  S   UNL     1      36.725 -24.235 -15.374  0.00  0.00    -0.118 S 
ATOM      6  O   UNL     1      32.787 -22.513 -14.410  0.00  0.00    -0.273 OA
ATOM      7  N   UNL     1      34.417 -24.206 -14.193  0.00  0.00    -0.260 N 
ATOM      8  C   UNL     1      34.976 -24.768 -15.426  0.00  0.00    +0.151 C 
ATOM      9  C   UNL     1      36.731 -24.302 -13.513  0.00  0.00    +0.068 C 
ATOM     10  CA  UNL     1      35.317 -23.815 -13.127  0.00  0.00    +0.184 C 
ATOM     11  CA  UNL     1      34.002 -23.868 -16.200  0.00  0.00    +0.178 C 
ATOM     12  C   UNL     1      33.530 -23.377 -14.817  0.00  0.00    +0.247 C 
ATOM     13  C   UNL     1      37.045 -25.743 -13.093  0.00  0.00    +0.013 C 
ATOM     14  C   UNL     1      37.811 -23.354 -12.985  0.00  0.00    +0.013 C 
BRANCH  10  16
ATOM     15  OXT UNL     1      35.205 -24.146 -10.739  0.00  0.00    -0.248 OA
ATOM     16  C   UNL     1      34.771 -24.383 -11.856  0.00  0.00    +0.333 C 
BRANCH  16  17
ATOM     17  O   UNL     1      33.723 -25.205 -12.110  0.00  0.00    -0.479 OA
ATOM     18  H   UNL     1      33.707 -25.713 -12.896  0.00  0.00    +0.295 HD
ENDBRANCH  16  17
ENDBRANCH  10  16
ENDBRANCH   2  11
BRANCH   3  19
ATOM     19  C   UNL     1      35.081 -21.680 -19.122  0.00  0.00    +0.121 C 
ATOM     20  C   UNL     1      34.349 -20.922 -20.015  0.00  0.00    +0.146 C 
ATOM     21  C   UNL     1      36.415 -21.425 -18.869  0.00  0.00    +0.146 C 
ATOM     22  C   UNL     1      34.976 -19.869 -20.682  0.00  0.00    +0.037 C 
ATOM     23  C   UNL     1      37.042 -20.372 -19.536  0.00  0.00    +0.037 C 
ATOM     24  C   UNL     1      36.321 -19.594 -20.443  0.00  0.00    +0.006 C 
BRANCH  20  25
ATOM     25  O   UNL     1      33.032 -21.173 -20.264  0.00  0.00    -0.471 OA
ATOM     26  C   UNL     1      32.293 -20.152 -20.930  0.00  0.00    +0.252 C 
ENDBRANCH  20  25
BRANCH  21  27
ATOM     27  O   UNL     1      37.137 -22.173 -17.987  0.00  0.00    -0.471 OA
ATOM     28  C   UNL     1      37.549 -21.533 -16.781  0.00  0.00    +0.252 C 
ENDBRANCH  21  27
ENDBRANCH   3  19
TORSDOF 6
ENDMDL
MODEL 5
REMARK VINA RESULT:      -7.0      2.230      7.092
REMARK  Name = 6087
REMARK  6 active torsions:
REMARK  status: ('A' for Active; 'I' for Inactive)
REMARK    1  A    between atoms: N_2  and  CA_11
REMARK    2  A    between atoms: C_3  and  C_19
REMARK    3  A    between atoms: CA_10  and  C_16
REMARK    4  A    between atoms: C_16  and  O_17
REMARK    5  A    between atoms: C_20  and  O_25
REMARK    6  A    between atoms: C_21  and  O_27
REMARK                            x       y       z     vdW  Elec       q    Type
REMARK                         _______ _______ _______ _____ _____    ______ ____
ROOT
ATOM      1  O   UNL     1      31.161 -11.913 -22.404  0.00  0.00    -0.270 OA
ATOM      2  N   UNL     1      33.314 -12.701 -22.069  0.00  0.00    -0.293 N 
ATOM      3  C   UNL     1      32.379 -11.751 -22.416  0.00  0.00    +0.252 C 
ATOM      4  H   UNL     1      34.270 -12.470 -22.114  0.00  0.00    +0.150 HD
ENDROOT
BRANCH   2  11
ATOM      5  S   UNL     1      33.375 -14.708 -24.392  0.00  0.00    -0.118 S 
ATOM      6  O   UNL     1      34.970 -14.779 -20.287  0.00  0.00    -0.273 OA
ATOM      7  N   UNL     1      33.899 -15.825 -22.111  0.00  0.00    -0.260 N 
ATOM      8  C   UNL     1      32.763 -15.125 -22.719  0.00  0.00    +0.151 C 
ATOM      9  C   UNL     1      34.437 -16.237 -24.428  0.00  0.00    +0.068 C 
ATOM     10  CA  UNL     1      34.929 -16.373 -22.971  0.00  0.00    +0.184 C 
ATOM     11  CA  UNL     1      32.928 -14.052 -21.635  0.00  0.00    +0.178 C 
ATOM     12  C   UNL     1      34.105 -14.906 -21.123  0.00  0.00    +0.247 C 
ATOM     13  C   UNL     1      33.570 -17.404 -24.919  0.00  0.00    +0.013 C 
ATOM     14  C   UNL     1      35.604 -16.009 -25.392  0.00  0.00    +0.013 C 
BRANCH  10  16
ATOM     15  OXT UNL     1      34.424 -18.442 -21.834  0.00  0.00    -0.248 OA
ATOM     16  C   UNL     1      35.189 -17.772 -22.512  0.00  0.00    +0.333 C 
BRANCH  16  17
ATOM     17  O   UNL     1      36.398 -18.203 -22.949  0.00  0.00    -0.479 OA
ATOM     18  H   UNL     1      36.981 -18.639 -22.360  0.00  0.00    +0.295 HD
ENDBRANCH  16  17
ENDBRANCH  10  16
ENDBRANCH   2  11
BRANCH   3  19
ATOM     19  C   UNL     1      32.934 -10.447 -22.858  0.00  0.00    +0.121 C 
ATOM     20  C   UNL     1      32.540  -9.295 -22.206  0.00  0.00    +0.146 C 
ATOM     21  C   UNL     1      33.831 -10.420 -23.909  0.00  0.00    +0.146 C 
ATOM     22  C   UNL     1      33.061  -8.069 -22.621  0.00  0.00    +0.037 C 
ATOM     23  C   UNL     1      34.352  -9.194 -24.324  0.00  0.00    +0.037 C 
ATOM     24  C   UNL     1      33.966  -8.019 -23.679  0.00  0.00    +0.006 C 
BRANCH  20  25
ATOM     25  O   UNL     1      31.655  -9.321 -21.168  0.00  0.00    -0.471 OA
ATOM     26  C   UNL     1      32.133  -8.881 -19.899  0.00  0.00    +0.252 C 
ENDBRANCH  20  25
BRANCH  21  27
ATOM     27  O   UNL     1      34.220 -11.557 -24.553  0.00  0.00    -0.471 OA
ATOM     28  C   UNL     1      34.280 -11.505 -25.977  0.00  0.00    +0.252 C 
ENDBRANCH  21  27
ENDBRANCH   3  19
TORSDOF 6
ENDMDL
MODEL 6
REMARK VINA RESULT:      -7.0      2.228      7.517
REMARK  Name = 6087
REMARK  6 active torsions:
REMARK  status: ('A' for Active; 'I' for Inactive)
REMARK    1  A    between atoms: N_2  and  CA_11
REMARK    2  A    between atoms: C_3  and  C_19
REMARK    3  A    between atoms: CA_10  and  C_16
REMARK    4  A    between atoms: C_16  and  O_17
REMARK    5  A    between atoms: C_20  and  O_25
REMARK    6  A    between atoms: C_21  and  O_27
REMARK                            x       y       z     vdW  Elec       q    Type
REMARK                         _______ _______ _______ _____ _____    ______ ____
ROOT
ATOM      1  O   UNL     1      31.173 -11.891 -22.366  0.00  0.00    -0.270 OA
ATOM      2  N   UNL     1      33.327 -12.705 -22.112  0.00  0.00    -0.293 N 
ATOM      3  C   UNL     1      32.392 -11.743 -22.423  0.00  0.00    +0.252 C 
ATOM      4  H   UNL     1      34.283 -12.484 -22.190  0.00  0.00    +0.150 HD
ENDROOT
BRANCH   2  11
ATOM      5  S   UNL     1      33.390 -14.729 -24.419  0.00  0.00    -0.118 S 
ATOM      6  O   UNL     1      34.983 -14.768 -20.313  0.00  0.00    -0.273 OA
ATOM      7  N   UNL     1      33.913 -15.829 -22.129  0.00  0.00    -0.260 N 
ATOM      8  C   UNL     1      32.778 -15.134 -22.743  0.00  0.00    +0.151 C 
ATOM      9  C   UNL     1      34.453 -16.258 -24.443  0.00  0.00    +0.068 C 
ATOM     10  CA  UNL     1      34.944 -16.382 -22.984  0.00  0.00    +0.184 C 
ATOM     11  CA  UNL     1      32.942 -14.052 -21.667  0.00  0.00    +0.178 C 
ATOM     12  C   UNL     1      34.119 -14.902 -21.149  0.00  0.00    +0.247 C 
ATOM     13  C   UNL     1      33.586 -17.429 -24.925  0.00  0.00    +0.013 C 
ATOM     14  C   UNL     1      35.620 -16.037 -25.408  0.00  0.00    +0.013 C 
BRANCH  10  16
ATOM     15  OXT UNL     1      34.423 -18.456 -21.864  0.00  0.00    -0.248 OA
ATOM     16  C   UNL     1      35.205 -17.778 -22.515  0.00  0.00    +0.333 C 
BRANCH  16  17
ATOM     17  O   UNL     1      36.433 -18.195 -22.908  0.00  0.00    -0.479 OA
ATOM     18  H   UNL     1      37.151 -18.167 -22.307  0.00  0.00    +0.295 HD
ENDBRANCH  16  17
ENDBRANCH  10  16
ENDBRANCH   2  11
BRANCH   3  19
ATOM     19  C   UNL     1      32.945 -10.444 -22.881  0.00  0.00    +0.121 C 
ATOM     20  C   UNL     1      33.837 -10.430 -23.936  0.00  0.00    +0.146 C 
ATOM     21  C   UNL     1      32.553  -9.284 -22.242  0.00  0.00    +0.146 C 
ATOM     22  C   UNL     1      34.358  -9.210 -24.367  0.00  0.00    +0.037 C 
ATOM     23  C   UNL     1      33.074  -8.063 -22.672  0.00  0.00    +0.037 C 
ATOM     24  C   UNL     1      33.977  -8.027 -23.735  0.00  0.00    +0.006 C 
BRANCH  20  25
ATOM     25  O   UNL     1      34.223 -11.575 -24.568  0.00  0.00    -0.471 OA
ATOM     26  C   UNL     1      34.264 -11.546 -25.993  0.00  0.00    +0.252 C 
ENDBRANCH  20  25
BRANCH  21  27
ATOM     27  O   UNL     1      31.673  -9.297 -21.200  0.00  0.00    -0.471 OA
ATOM     28  C   UNL     1      32.151  -8.823 -19.943  0.00  0.00    +0.252 C 
ENDBRANCH  21  27
ENDBRANCH   3  19
TORSDOF 6
ENDMDL
MODEL 7
REMARK VINA RESULT:      -6.8     10.581     14.923
REMARK  Name = 6087
REMARK  6 active torsions:
REMARK  status: ('A' for Active; 'I' for Inactive)
REMARK    1  A    between atoms: N_2  and  CA_11
REMARK    2  A    between atoms: C_3  and  C_19
REMARK    3  A    between atoms: CA_10  and  C_16
REMARK    4  A    between atoms: C_16  and  O_17
REMARK    5  A    between atoms: C_20  and  O_25
REMARK    6  A    between atoms: C_21  and  O_27
REMARK                            x       y       z     vdW  Elec       q    Type
REMARK                         _______ _______ _______ _____ _____    ______ ____
ROOT
ATOM      1  O   UNL     1      37.305 -20.821 -16.947  0.00  0.00    -0.270 OA
ATOM      2  N   UNL     1      36.945 -23.106 -16.815  0.00  0.00    -0.293 N 
ATOM      3  C   UNL     1      36.709 -21.838 -17.298  0.00  0.00    +0.252 C 
ATOM      4  H   UNL     1      36.411 -23.856 -17.163  0.00  0.00    +0.150 HD
ENDROOT
BRANCH   2  11
ATOM      5  S   UNL     1      35.855 -22.723 -13.971  0.00  0.00    -0.118 S 
ATOM      6  O   UNL     1      38.186 -25.915 -15.916  0.00  0.00    -0.273 OA
ATOM      7  N   UNL     1      37.731 -24.511 -14.074  0.00  0.00    -0.260 N 
ATOM      8  C   UNL     1      37.614 -23.073 -14.334  0.00  0.00    +0.151 C 
ATOM      9  C   UNL     1      35.817 -24.060 -12.675  0.00  0.00    +0.068 C 
ATOM     10  CA  UNL     1      36.723 -25.163 -13.263  0.00  0.00    +0.184 C 
ATOM     11  CA  UNL     1      37.971 -23.374 -15.796  0.00  0.00    +0.178 C 
ATOM     12  C   UNL     1      38.048 -24.850 -15.358  0.00  0.00    +0.247 C 
ATOM     13  C   UNL     1      36.320 -23.456 -11.358  0.00  0.00    +0.013 C 
ATOM     14  C   UNL     1      34.377 -24.551 -12.510  0.00  0.00    +0.013 C 
BRANCH  10  16
ATOM     15  OXT UNL     1      36.916 -26.838 -11.535  0.00  0.00    -0.248 OA
ATOM     16  C   UNL     1      37.443 -26.003 -12.256  0.00  0.00    +0.333 C 
BRANCH  16  17
ATOM     17  O   UNL     1      38.766 -25.711 -12.246  0.00  0.00    -0.479 OA
ATOM     18  H   UNL     1      39.394 -26.376 -12.450  0.00  0.00    +0.295 HD
ENDBRANCH  16  17
ENDBRANCH  10  16
ENDBRANCH   2  11
BRANCH   3  19
ATOM     19  C   UNL     1      35.622 -21.733 -18.303  0.00  0.00    +0.121 C 
ATOM     20  C   UNL     1      35.801 -20.914 -19.401  0.00  0.00    +0.146 C 
ATOM     21  C   UNL     1      34.462 -22.459 -18.115  0.00  0.00    +0.146 C 
ATOM     22  C   UNL     1      34.779 -20.815 -20.346  0.00  0.00    +0.037 C 
ATOM     23  C   UNL     1      33.440 -22.360 -19.060  0.00  0.00    +0.037 C 
ATOM     24  C   UNL     1      33.600 -21.538 -20.176  0.00  0.00    +0.006 C 
BRANCH  20  25
ATOM     25  O   UNL     1      36.947 -20.198 -19.587  0.00  0.00    -0.471 OA
ATOM     26  C   UNL     1      37.005 -19.356 -20.736  0.00  0.00    +0.252 C 
ENDBRANCH  20  25
BRANCH  21  27
ATOM     27  O   UNL     1      34.286 -23.267 -17.032  0.00  0.00    -0.471 OA
ATOM     28  C   UNL     1      32.961 -23.376 -16.514  0.00  0.00    +0.252 C 
ENDBRANCH  21  27
ENDBRANCH   3  19
TORSDOF 6
ENDMDL
MODEL 8
REMARK VINA RESULT:      -6.7     10.587     14.881
REMARK  Name = 6087
REMARK  6 active torsions:
REMARK  status: ('A' for Active; 'I' for Inactive)
REMARK    1  A    between atoms: N_2  and  CA_11
REMARK    2  A    between atoms: C_3  and  C_19
REMARK    3  A    between atoms: CA_10  and  C_16
REMARK    4  A    between atoms: C_16  and  O_17
REMARK    5  A    between atoms: C_20  and  O_25
REMARK    6  A    between atoms: C_21  and  O_27
REMARK                            x       y       z     vdW  Elec       q    Type
REMARK                         _______ _______ _______ _____ _____    ______ ____
ROOT
ATOM      1  O   UNL     1      37.364 -20.818 -16.934  0.00  0.00    -0.270 OA
ATOM      2  N   UNL     1      36.968 -23.097 -16.799  0.00  0.00    -0.293 N 
ATOM      3  C   UNL     1      36.761 -21.827 -17.293  0.00  0.00    +0.252 C 
ATOM      4  H   UNL     1      36.431 -23.841 -17.155  0.00  0.00    +0.150 HD
ENDROOT
BRANCH   2  11
ATOM      5  S   UNL     1      35.790 -22.785 -13.981  0.00  0.00    -0.118 S 
ATOM      6  O   UNL     1      38.215 -25.910 -15.921  0.00  0.00    -0.273 OA
ATOM      7  N   UNL     1      37.690 -24.549 -14.066  0.00  0.00    -0.260 N 
ATOM      8  C   UNL     1      37.563 -23.108 -14.299  0.00  0.00    +0.151 C 
ATOM      9  C   UNL     1      35.730 -24.148 -12.714  0.00  0.00    +0.068 C 
ATOM     10  CA  UNL     1      36.666 -25.229 -13.298  0.00  0.00    +0.184 C 
ATOM     11  CA  UNL     1      37.966 -23.375 -15.756  0.00  0.00    +0.178 C 
ATOM     12  C   UNL     1      38.048 -24.858 -15.346  0.00  0.00    +0.247 C 
ATOM     13  C   UNL     1      36.187 -23.567 -11.371  0.00  0.00    +0.013 C 
ATOM     14  C   UNL     1      34.291 -24.659 -12.602  0.00  0.00    +0.013 C 
BRANCH  10  16
ATOM     15  OXT UNL     1      36.822 -26.913 -11.575  0.00  0.00    -0.248 OA
ATOM     16  C   UNL     1      37.365 -26.082 -12.287  0.00  0.00    +0.333 C 
BRANCH  16  17
ATOM     17  O   UNL     1      38.692 -25.806 -12.264  0.00  0.00    -0.479 OA
ATOM     18  H   UNL     1      39.184 -25.805 -13.060  0.00  0.00    +0.295 HD
ENDBRANCH  16  17
ENDBRANCH  10  16
ENDBRANCH   2  11
BRANCH   3  19
ATOM     19  C   UNL     1      35.699 -21.712 -18.323  0.00  0.00    +0.121 C 
ATOM     20  C   UNL     1      34.519 -22.410 -18.150  0.00  0.00    +0.146 C 
ATOM     21  C   UNL     1      35.917 -20.910 -19.426  0.00  0.00    +0.146 C 
ATOM     22  C   UNL     1      33.520 -22.303 -19.118  0.00  0.00    +0.037 C 
ATOM     23  C   UNL     1      34.919 -20.803 -20.394  0.00  0.00    +0.037 C 
ATOM     24  C   UNL     1      33.720 -21.500 -20.240  0.00  0.00    +0.006 C 
BRANCH  20  25
ATOM     25  O   UNL     1      34.303 -23.201 -17.061  0.00  0.00    -0.471 OA
ATOM     26  C   UNL     1      32.957 -23.323 -16.605  0.00  0.00    +0.252 C 
ENDBRANCH  20  25
BRANCH  21  27
ATOM     27  O   UNL     1      37.082 -20.222 -19.597  0.00  0.00    -0.471 OA
ATOM     28  C   UNL     1      37.188 -19.410 -20.765  0.00  0.00    +0.252 C 
ENDBRANCH  21  27
ENDBRANCH   3  19
TORSDOF 6
ENDMDL
MODEL 9
REMARK VINA RESULT:      -6.6     11.856     15.668
REMARK  Name = 6087
REMARK  6 active torsions:
REMARK  status: ('A' for Active; 'I' for Inactive)
REMARK    1  A    between atoms: N_2  and  CA_11
REMARK    2  A    between atoms: C_3  and  C_19
REMARK    3  A    between atoms: CA_10  and  C_16
REMARK    4  A    between atoms: C_16  and  O_17
REMARK    5  A    between atoms: C_20  and  O_25
REMARK    6  A    between atoms: C_21  and  O_27
REMARK                            x       y       z     vdW  Elec       q    Type
REMARK                         _______ _______ _______ _____ _____    ______ ____
ROOT
ATOM      1  O   UNL     1      35.500 -24.201 -16.157  0.00  0.00    -0.270 OA
ATOM      2  N   UNL     1      35.226 -22.328 -14.821  0.00  0.00    -0.293 N 
ATOM      3  C   UNL     1      34.792 -23.322 -15.671  0.00  0.00    +0.252 C 
ATOM      4  H   UNL     1      34.577 -21.669 -14.485  0.00  0.00    +0.150 HD
ENDROOT
BRANCH   2  11
ATOM      5  S   UNL     1      36.061 -24.678 -13.030  0.00  0.00    -0.118 S 
ATOM      6  O   UNL     1      37.876 -22.767 -16.560  0.00  0.00    -0.273 OA
ATOM      7  N   UNL     1      38.043 -23.744 -14.418  0.00  0.00    -0.260 N 
ATOM      8  C   UNL     1      37.143 -23.244 -13.375  0.00  0.00    +0.151 C 
ATOM      9  C   UNL     1      37.439 -25.864 -13.433  0.00  0.00    +0.068 C 
ATOM     10  CA  UNL     1      38.183 -25.175 -14.598  0.00  0.00    +0.184 C 
ATOM     11  CA  UNL     1      36.630 -22.222 -14.399  0.00  0.00    +0.178 C 
ATOM     12  C   UNL     1      37.630 -22.868 -15.380  0.00  0.00    +0.247 C 
ATOM     13  C   UNL     1      38.282 -26.058 -12.165  0.00  0.00    +0.013 C 
ATOM     14  C   UNL     1      36.834 -27.200 -13.869  0.00  0.00    +0.013 C 
BRANCH  10  16
ATOM     15  OXT UNL     1      40.537 -24.643 -14.541  0.00  0.00    -0.248 OA
ATOM     16  C   UNL     1      39.647 -25.469 -14.684  0.00  0.00    +0.333 C 
BRANCH  16  17
ATOM     17  O   UNL     1      39.858 -26.782 -14.945  0.00  0.00    -0.479 OA
ATOM     18  H   UNL     1      39.750 -27.109 -15.816  0.00  0.00    +0.295 HD
ENDBRANCH  16  17
ENDBRANCH  10  16
ENDBRANCH   2  11
BRANCH   3  19
ATOM     19  C   UNL     1      33.350 -23.273 -16.020  0.00  0.00    +0.121 C 
ATOM     20  C   UNL     1      32.979 -22.836 -17.276  0.00  0.00    +0.146 C 
ATOM     21  C   UNL     1      32.418 -23.667 -15.079  0.00  0.00    +0.146 C 
ATOM     22  C   UNL     1      31.623 -22.789 -17.604  0.00  0.00    +0.037 C 
ATOM     23  C   UNL     1      31.063 -23.621 -15.407  0.00  0.00    +0.037 C 
ATOM     24  C   UNL     1      30.666 -23.182 -16.670  0.00  0.00    +0.006 C 
BRANCH  20  25
ATOM     25  O   UNL     1      33.899 -22.448 -18.205  0.00  0.00    -0.471 OA
ATOM     26  C   UNL     1      33.431 -21.636 -19.280  0.00  0.00    +0.252 C 
ENDBRANCH  20  25
BRANCH  21  27
ATOM     27  O   UNL     1      32.785 -24.099 -13.839  0.00  0.00    -0.471 OA
ATOM     28  C   UNL     1      31.973 -25.105 -13.238  0.00  0.00    +0.252 C 
ENDBRANCH  21  27
ENDBRANCH   3  19
TORSDOF 6
ENDMDL
