MODEL 1
REMARK VINA RESULT:      -9.9      0.000      0.000
REMARK  Name = 5464097
REMARK  10 active torsions:
REMARK  status: ('A' for Active; 'I' for Inactive)
REMARK    1  A    between atoms: CA_1  and  C_13
REMARK    2  A    between atoms: CA_1  and  N_18
REMARK    3  A    between atoms: CA_8  and  C_15
REMARK    4  A    between atoms: C_15  and  O_16
REMARK    5  A    between atoms: N_18  and  CA_21
REMARK    6  A    between atoms: CA_21  and  C_23
REMARK    7  A    between atoms: CA_21  and  C_26
REMARK    8  A    between atoms: C_23  and  O_24
REMARK    9  A    between atoms: C_26  and  C_27
REMARK   10  A    between atoms: C_27  and  C_28
REMARK                            x       y       z     vdW  Elec       q    Type
REMARK                         _______ _______ _______ _____ _____    ______ ____
ROOT
ATOM      1  CA  UNL     1      33.632 -15.157 -21.949  0.00  0.00    +0.018 C 
ATOM      2  CB  UNL     1      34.638 -14.453 -21.062  0.00  0.00    -0.014 C 
ENDROOT
BRANCH   1  13
ATOM      3  O   UNL     1      32.179 -16.563 -20.706  0.00  0.00    -0.277 OA
ATOM      4  N   UNL     1      34.122 -17.529 -21.524  0.00  0.00    -0.275 N 
ATOM      5  C   UNL     1      35.159 -19.629 -21.340  0.00  0.00    +0.020 C 
ATOM      6  C   UNL     1      34.094 -18.735 -20.700  0.00  0.00    +0.076 C 
ATOM      7  C   UNL     1      36.236 -18.621 -21.717  0.00  0.00    +0.033 C 
ATOM      8  CA  UNL     1      35.391 -17.460 -22.265  0.00  0.00    +0.174 C 
ATOM      9  C   UNL     1      35.519 -20.769 -20.407  0.00  0.00    +0.002 C 
ATOM     10  C   UNL     1      32.800 -19.533 -20.586  0.00  0.00    +0.020 C 
ATOM     11  C   UNL     1      34.259 -21.609 -20.152  0.00  0.00    +0.000 C 
ATOM     12  C   UNL     1      33.049 -20.771 -19.708  0.00  0.00    +0.002 C 
ATOM     13  C   UNL     1      33.236 -16.477 -21.334  0.00  0.00    +0.206 C 
BRANCH   8  15
ATOM     14  OXT UNL     1      34.586 -18.645 -24.213  0.00  0.00    -0.248 OA
ATOM     15  C   UNL     1      35.104 -17.651 -23.724  0.00  0.00    +0.332 C 
BRANCH  15  16
ATOM     16  O   UNL     1      35.502 -16.569 -24.437  0.00  0.00    -0.479 OA
ATOM     17  H   UNL     1      35.716 -15.772 -23.996  0.00  0.00    +0.295 HD
ENDBRANCH  15  16
ENDBRANCH   8  15
ENDBRANCH   1  13
BRANCH   1  18
ATOM     18  N   UNL     1      32.415 -14.375 -22.085  0.00  0.00    +0.399 N 
ATOM     19  H1  UNL     1      31.794 -14.587 -21.304  0.00  0.00    -0.083 HD
ATOM     20  H2  UNL     1      31.972 -14.618 -22.971  0.00  0.00    -0.083 HD
BRANCH  18  21
ATOM     21  CA  UNL     1      32.706 -12.946 -22.090  0.00  0.00    +0.041 C 
BRANCH  21  23
ATOM     22  OXT UNL     1      31.851 -12.184 -19.942  0.00  0.00    -0.253 OA
ATOM     23  C   UNL     1      31.707 -12.289 -21.153  0.00  0.00    +0.293 C 
BRANCH  23  24
ATOM     24  O   UNL     1      30.626 -11.795 -21.810  0.00  0.00    -0.482 OA
ATOM     25  H   UNL     1      30.092 -11.139 -21.406  0.00  0.00    +0.295 HD
ENDBRANCH  23  24
ENDBRANCH  21  23
BRANCH  21  26
ATOM     26  C   UNL     1      32.563 -12.406 -23.519  0.00  0.00    -0.006 C 
BRANCH  26  27
ATOM     27  C   UNL     1      33.793 -11.645 -24.038  0.00  0.00    +0.025 C 
BRANCH  27  28
ATOM     28  C   UNL     1      33.713 -10.145 -23.886  0.00  0.00    -0.022 C 
ATOM     29  C   UNL     1      34.844  -9.361 -24.111  0.00  0.00    -0.004 C 
ATOM     30  C   UNL     1      32.508  -9.545 -23.522  0.00  0.00    -0.004 C 
ATOM     31  C   UNL     1      34.770  -7.975 -23.971  0.00  0.00    -0.000 C 
ATOM     32  C   UNL     1      32.434  -8.159 -23.382  0.00  0.00    -0.000 C 
ATOM     33  C   UNL     1      33.565  -7.374 -23.607  0.00  0.00    -0.000 C 
ENDBRANCH  27  28
ENDBRANCH  26  27
ENDBRANCH  21  26
ENDBRANCH  18  21
ENDBRANCH   1  18
TORSDOF 10
ENDMDL
MODEL 2
REMARK VINA RESULT:      -9.8      1.504      2.362
REMARK  Name = 5464097
REMARK  10 active torsions:
REMARK  status: ('A' for Active; 'I' for Inactive)
REMARK    1  A    between atoms: CA_1  and  C_13
REMARK    2  A    between atoms: CA_1  and  N_18
REMARK    3  A    between atoms: CA_8  and  C_15
REMARK    4  A    between atoms: C_15  and  O_16
REMARK    5  A    between atoms: N_18  and  CA_21
REMARK    6  A    between atoms: CA_21  and  C_23
REMARK    7  A    between atoms: CA_21  and  C_26
REMARK    8  A    between atoms: C_23  and  O_24
REMARK    9  A    between atoms: C_26  and  C_27
REMARK   10  A    between atoms: C_27  and  C_28
REMARK                            x       y       z     vdW  Elec       q    Type
REMARK                         _______ _______ _______ _____ _____    ______ ____
ROOT
ATOM      1  CA  UNL     1      33.363 -15.037 -22.267  0.00  0.00    +0.018 C 
ATOM      2  CB  UNL     1      32.333 -13.991 -21.892  0.00  0.00    -0.014 C 
ENDROOT
BRANCH   1  13
ATOM      3  O   UNL     1      31.988 -16.462 -20.960  0.00  0.00    -0.277 OA
ATOM      4  N   UNL     1      33.986 -17.353 -21.727  0.00  0.00    -0.275 N 
ATOM      5  C   UNL     1      35.140 -19.379 -21.441  0.00  0.00    +0.020 C 
ATOM      6  C   UNL     1      34.023 -18.518 -20.846  0.00  0.00    +0.076 C 
ATOM      7  C   UNL     1      36.159 -18.331 -21.865  0.00  0.00    +0.033 C 
ATOM      8  CA  UNL     1      35.252 -17.248 -22.469  0.00  0.00    +0.174 C 
ATOM      9  C   UNL     1      35.560 -20.451 -20.452  0.00  0.00    +0.002 C 
ATOM     10  C   UNL     1      32.776 -19.382 -20.695  0.00  0.00    +0.020 C 
ATOM     11  C   UNL     1      34.349 -21.348 -20.159  0.00  0.00    +0.000 C 
ATOM     12  C   UNL     1      33.091 -20.560 -19.758  0.00  0.00    +0.002 C 
ATOM     13  C   UNL     1      33.041 -16.345 -21.589  0.00  0.00    +0.206 C 
BRANCH   8  15
ATOM     14  OXT UNL     1      34.300 -18.448 -24.341  0.00  0.00    -0.248 OA
ATOM     15  C   UNL     1      34.982 -17.526 -23.918  0.00  0.00    +0.332 C 
BRANCH  15  16
ATOM     16  O   UNL     1      35.603 -16.613 -24.704  0.00  0.00    -0.479 OA
ATOM     17  H   UNL     1      35.104 -15.946 -25.131  0.00  0.00    +0.295 HD
ENDBRANCH  15  16
ENDBRANCH   8  15
ENDBRANCH   1  13
BRANCH   1  18
ATOM     18  N   UNL     1      33.354 -15.291 -23.698  0.00  0.00    +0.399 N 
ATOM     19  H1  UNL     1      32.672 -16.022 -23.902  0.00  0.00    -0.083 HD
ATOM     20  H2  UNL     1      34.289 -15.585 -23.980  0.00  0.00    -0.083 HD
BRANCH  18  21
ATOM     21  CA  UNL     1      33.002 -14.089 -24.444  0.00  0.00    +0.041 C 
BRANCH  21  23
ATOM     22  OXT UNL     1      33.756 -15.209 -26.470  0.00  0.00    -0.253 OA
ATOM     23  C   UNL     1      32.948 -14.479 -25.911  0.00  0.00    +0.293 C 
BRANCH  23  24
ATOM     24  O   UNL     1      31.875 -13.946 -26.551  0.00  0.00    -0.482 OA
ATOM     25  H   UNL     1      31.442 -14.433 -27.224  0.00  0.00    +0.295 HD
ENDBRANCH  23  24
ENDBRANCH  21  23
BRANCH  21  26
ATOM     26  C   UNL     1      34.066 -13.011 -24.197  0.00  0.00    -0.006 C 
BRANCH  26  27
ATOM     27  C   UNL     1      33.917 -11.757 -25.073  0.00  0.00    +0.025 C 
BRANCH  27  28
ATOM     28  C   UNL     1      33.865 -10.458 -24.305  0.00  0.00    -0.022 C 
ATOM     29  C   UNL     1      32.808 -10.208 -23.430  0.00  0.00    -0.004 C 
ATOM     30  C   UNL     1      34.875  -9.510 -24.469  0.00  0.00    -0.004 C 
ATOM     31  C   UNL     1      32.760  -9.008 -22.720  0.00  0.00    -0.000 C 
ATOM     32  C   UNL     1      34.827  -8.311 -23.759  0.00  0.00    -0.000 C 
ATOM     33  C   UNL     1      33.769  -8.060 -22.884  0.00  0.00    -0.000 C 
ENDBRANCH  27  28
ENDBRANCH  26  27
ENDBRANCH  21  26
ENDBRANCH  18  21
ENDBRANCH   1  18
TORSDOF 10
ENDMDL
MODEL 3
REMARK VINA RESULT:      -9.3      2.319      3.911
REMARK  Name = 5464097
REMARK  10 active torsions:
REMARK  status: ('A' for Active; 'I' for Inactive)
REMARK    1  A    between atoms: CA_1  and  C_13
REMARK    2  A    between atoms: CA_1  and  N_18
REMARK    3  A    between atoms: CA_8  and  C_15
REMARK    4  A    between atoms: C_15  and  O_16
REMARK    5  A    between atoms: N_18  and  CA_21
REMARK    6  A    between atoms: CA_21  and  C_23
REMARK    7  A    between atoms: CA_21  and  C_26
REMARK    8  A    between atoms: C_23  and  O_24
REMARK    9  A    between atoms: C_26  and  C_27
REMARK   10  A    between atoms: C_27  and  C_28
REMARK                            x       y       z     vdW  Elec       q    Type
REMARK                         _______ _______ _______ _____ _____    ______ ____
ROOT
ATOM      1  CA  UNL     1      33.307 -13.931 -24.183  0.00  0.00    +0.018 C 
ATOM      2  CB  UNL     1      32.786 -13.879 -25.604  0.00  0.00    -0.014 C 
ENDROOT
BRANCH   1  13
ATOM      3  O   UNL     1      34.898 -15.570 -24.829  0.00  0.00    -0.277 OA
ATOM      4  N   UNL     1      33.851 -15.878 -22.782  0.00  0.00    -0.275 N 
ATOM      5  C   UNL     1      33.860 -17.544 -21.127  0.00  0.00    +0.020 C 
ATOM      6  C   UNL     1      34.224 -17.277 -22.589  0.00  0.00    +0.076 C 
ATOM      7  C   UNL     1      32.568 -16.754 -20.971  0.00  0.00    +0.033 C 
ATOM      8  CA  UNL     1      32.903 -15.465 -21.737  0.00  0.00    +0.174 C 
ATOM      9  C   UNL     1      33.842 -19.036 -20.853  0.00  0.00    +0.002 C 
ATOM     10  C   UNL     1      35.670 -17.704 -22.812  0.00  0.00    +0.020 C 
ATOM     11  C   UNL     1      35.246 -19.600 -21.123  0.00  0.00    +0.000 C 
ATOM     12  C   UNL     1      35.806 -19.204 -22.499  0.00  0.00    +0.002 C 
ATOM     13  C   UNL     1      34.096 -15.199 -23.969  0.00  0.00    +0.206 C 
BRANCH   8  15
ATOM     14  OXT UNL     1      34.755 -14.519 -20.503  0.00  0.00    -0.248 OA
ATOM     15  C   UNL     1      33.581 -14.472 -20.840  0.00  0.00    +0.332 C 
BRANCH  15  16
ATOM     16  O   UNL     1      32.711 -13.510 -20.446  0.00  0.00    -0.479 OA
ATOM     17  H   UNL     1      32.827 -13.083 -19.621  0.00  0.00    +0.295 HD
ENDBRANCH  15  16
ENDBRANCH   8  15
ENDBRANCH   1  13
BRANCH   1  18
ATOM     18  N   UNL     1      34.210 -12.825 -23.915  0.00  0.00    +0.399 N 
ATOM     19  H1  UNL     1      35.101 -13.002 -24.378  0.00  0.00    -0.083 HD
ATOM     20  H2  UNL     1      34.339 -12.750 -22.906  0.00  0.00    -0.083 HD
BRANCH  18  21
ATOM     21  CA  UNL     1      33.659 -11.566 -24.405  0.00  0.00    +0.041 C 
BRANCH  21  23
ATOM     22  OXT UNL     1      35.120 -10.802 -26.196  0.00  0.00    -0.253 OA
ATOM     23  C   UNL     1      34.813 -10.786 -25.011  0.00  0.00    +0.293 C 
BRANCH  23  24
ATOM     24  O   UNL     1      35.469 -10.031 -24.093  0.00  0.00    -0.482 OA
ATOM     25  H   UNL     1      36.164  -9.464 -24.363  0.00  0.00    +0.295 HD
ENDBRANCH  23  24
ENDBRANCH  21  23
BRANCH  21  26
ATOM     26  C   UNL     1      33.027 -10.801 -23.235  0.00  0.00    -0.006 C 
BRANCH  26  27
ATOM     27  C   UNL     1      32.238  -9.548 -23.646  0.00  0.00    +0.025 C 
BRANCH  27  28
ATOM     28  C   UNL     1      32.200  -8.460 -22.601  0.00  0.00    -0.022 C 
ATOM     29  C   UNL     1      32.317  -8.787 -21.250  0.00  0.00    -0.004 C 
ATOM     30  C   UNL     1      32.051  -7.128 -22.986  0.00  0.00    -0.004 C 
ATOM     31  C   UNL     1      32.283  -7.781 -20.283  0.00  0.00    -0.000 C 
ATOM     32  C   UNL     1      32.017  -6.122 -22.020  0.00  0.00    -0.000 C 
ATOM     33  C   UNL     1      32.133  -6.449 -20.669  0.00  0.00    -0.000 C 
ENDBRANCH  27  28
ENDBRANCH  26  27
ENDBRANCH  21  26
ENDBRANCH  18  21
ENDBRANCH   1  18
TORSDOF 10
ENDMDL
MODEL 4
REMARK VINA RESULT:      -9.3      1.766      2.226
REMARK  Name = 5464097
REMARK  10 active torsions:
REMARK  status: ('A' for Active; 'I' for Inactive)
REMARK    1  A    between atoms: CA_1  and  C_13
REMARK    2  A    between atoms: CA_1  and  N_18
REMARK    3  A    between atoms: CA_8  and  C_15
REMARK    4  A    between atoms: C_15  and  O_16
REMARK    5  A    between atoms: N_18  and  CA_21
REMARK    6  A    between atoms: CA_21  and  C_23
REMARK    7  A    between atoms: CA_21  and  C_26
REMARK    8  A    between atoms: C_23  and  O_24
REMARK    9  A    between atoms: C_26  and  C_27
REMARK   10  A    between atoms: C_27  and  C_28
REMARK                            x       y       z     vdW  Elec       q    Type
REMARK                         _______ _______ _______ _____ _____    ______ ____
ROOT
ATOM      1  CA  UNL     1      33.510 -15.268 -21.663  0.00  0.00    +0.018 C 
ATOM      2  CB  UNL     1      34.496 -14.610 -20.719  0.00  0.00    -0.014 C 
ENDROOT
BRANCH   1  13
ATOM      3  O   UNL     1      32.044 -16.821 -20.628  0.00  0.00    -0.277 OA
ATOM      4  N   UNL     1      34.106 -17.628 -21.315  0.00  0.00    -0.275 N 
ATOM      5  C   UNL     1      35.249 -19.673 -21.146  0.00  0.00    +0.020 C 
ATOM      6  C   UNL     1      34.080 -18.877 -20.560  0.00  0.00    +0.076 C 
ATOM      7  C   UNL     1      36.291 -18.586 -21.374  0.00  0.00    +0.033 C 
ATOM      8  CA  UNL     1      35.427 -17.446 -21.936  0.00  0.00    +0.174 C 
ATOM      9  C   UNL     1      35.596 -20.841 -20.243  0.00  0.00    +0.002 C 
ATOM     10  C   UNL     1      32.832 -19.753 -20.602  0.00  0.00    +0.020 C 
ATOM     11  C   UNL     1      34.372 -21.764 -20.145  0.00  0.00    +0.000 C 
ATOM     12  C   UNL     1      33.079 -21.022 -19.769  0.00  0.00    +0.002 C 
ATOM     13  C   UNL     1      33.144 -16.640 -21.153  0.00  0.00    +0.206 C 
BRANCH   8  15
ATOM     14  OXT UNL     1      34.863 -18.563 -24.005  0.00  0.00    -0.248 OA
ATOM     15  C   UNL     1      35.280 -17.572 -23.423  0.00  0.00    +0.332 C 
BRANCH  15  16
ATOM     16  O   UNL     1      35.677 -16.434 -24.041  0.00  0.00    -0.479 OA
ATOM     17  H   UNL     1      35.840 -15.660 -23.540  0.00  0.00    +0.295 HD
ENDBRANCH  15  16
ENDBRANCH   8  15
ENDBRANCH   1  13
BRANCH   1  18
ATOM     18  N   UNL     1      32.275 -14.506 -21.745  0.00  0.00    +0.399 N 
ATOM     19  H1  UNL     1      32.179 -13.937 -20.903  0.00  0.00    -0.083 HD
ATOM     20  H2  UNL     1      31.497 -15.160 -21.825  0.00  0.00    -0.083 HD
BRANCH  18  21
ATOM     21  CA  UNL     1      32.271 -13.635 -22.913  0.00  0.00    +0.041 C 
BRANCH  21  23
ATOM     22  OXT UNL     1      33.146 -15.143 -24.612  0.00  0.00    -0.253 OA
ATOM     23  C   UNL     1      33.313 -14.180 -23.875  0.00  0.00    +0.293 C 
BRANCH  23  24
ATOM     24  O   UNL     1      34.464 -13.461 -23.857  0.00  0.00    -0.482 OA
ATOM     25  H   UNL     1      34.539 -12.682 -24.373  0.00  0.00    +0.295 HD
ENDBRANCH  23  24
ENDBRANCH  21  23
BRANCH  21  26
ATOM     26  C   UNL     1      32.614 -12.204 -22.479  0.00  0.00    -0.006 C 
BRANCH  26  27
ATOM     27  C   UNL     1      31.475 -11.467 -21.757  0.00  0.00    +0.025 C 
BRANCH  27  28
ATOM     28  C   UNL     1      31.697  -9.984 -21.585  0.00  0.00    -0.022 C 
ATOM     29  C   UNL     1      31.591  -9.131 -22.685  0.00  0.00    -0.004 C 
ATOM     30  C   UNL     1      32.008  -9.466 -20.328  0.00  0.00    -0.004 C 
ATOM     31  C   UNL     1      31.796  -7.761 -22.526  0.00  0.00    -0.000 C 
ATOM     32  C   UNL     1      32.212  -8.096 -20.170  0.00  0.00    -0.000 C 
ATOM     33  C   UNL     1      32.106  -7.243 -21.269  0.00  0.00    -0.000 C 
ENDBRANCH  27  28
ENDBRANCH  26  27
ENDBRANCH  21  26
ENDBRANCH  18  21
ENDBRANCH   1  18
TORSDOF 10
ENDMDL
MODEL 5
REMARK VINA RESULT:      -9.1      2.278      3.771
REMARK  Name = 5464097
REMARK  10 active torsions:
REMARK  status: ('A' for Active; 'I' for Inactive)
REMARK    1  A    between atoms: CA_1  and  C_13
REMARK    2  A    between atoms: CA_1  and  N_18
REMARK    3  A    between atoms: CA_8  and  C_15
REMARK    4  A    between atoms: C_15  and  O_16
REMARK    5  A    between atoms: N_18  and  CA_21
REMARK    6  A    between atoms: CA_21  and  C_23
REMARK    7  A    between atoms: CA_21  and  C_26
REMARK    8  A    between atoms: C_23  and  O_24
REMARK    9  A    between atoms: C_26  and  C_27
REMARK   10  A    between atoms: C_27  and  C_28
REMARK                            x       y       z     vdW  Elec       q    Type
REMARK                         _______ _______ _______ _____ _____    ______ ____
ROOT
ATOM      1  CA  UNL     1      34.375 -17.108 -23.800  0.00  0.00    +0.018 C 
ATOM      2  CB  UNL     1      34.705 -17.360 -25.257  0.00  0.00    -0.014 C 
ENDROOT
BRANCH   1  13
ATOM      3  O   UNL     1      36.399 -18.148 -23.128  0.00  0.00    -0.277 OA
ATOM      4  N   UNL     1      34.497 -18.676 -21.911  0.00  0.00    -0.275 N 
ATOM      5  C   UNL     1      33.984 -20.147 -20.153  0.00  0.00    +0.020 C 
ATOM      6  C   UNL     1      35.029 -19.855 -21.232  0.00  0.00    +0.076 C 
ATOM      7  C   UNL     1      32.682 -19.831 -20.877  0.00  0.00    +0.033 C 
ATOM      8  CA  UNL     1      33.058 -18.549 -21.636  0.00  0.00    +0.174 C 
ATOM      9  C   UNL     1      34.187 -21.541 -19.588  0.00  0.00    +0.002 C 
ATOM     10  C   UNL     1      36.400 -19.782 -20.568  0.00  0.00    +0.020 C 
ATOM     11  C   UNL     1      35.584 -21.613 -18.953  0.00  0.00    +0.000 C 
ATOM     12  C   UNL     1      36.703 -21.129 -19.890  0.00  0.00    +0.002 C 
ATOM     13  C   UNL     1      35.191 -18.022 -22.920  0.00  0.00    +0.206 C 
BRANCH   8  15
ATOM     14  OXT UNL     1      33.726 -16.637 -20.315  0.00  0.00    -0.248 OA
ATOM     15  C   UNL     1      32.839 -17.338 -20.779  0.00  0.00    +0.332 C 
BRANCH  15  16
ATOM     16  O   UNL     1      31.515 -17.124 -20.583  0.00  0.00    -0.479 OA
ATOM     17  H   UNL     1      31.030 -16.603 -21.192  0.00  0.00    +0.295 HD
ENDBRANCH  15  16
ENDBRANCH   8  15
ENDBRANCH   1  13
BRANCH   1  18
ATOM     18  N   UNL     1      34.708 -15.747 -23.416  0.00  0.00    +0.399 N 
ATOM     19  H1  UNL     1      35.368 -15.362 -24.093  0.00  0.00    -0.083 HD
ATOM     20  H2  UNL     1      35.122 -15.766 -22.484  0.00  0.00    -0.083 HD
BRANCH  18  21
ATOM     21  CA  UNL     1      33.519 -14.905 -23.377  0.00  0.00    +0.041 C 
BRANCH  21  23
ATOM     22  OXT UNL     1      33.068 -14.314 -25.696  0.00  0.00    -0.253 OA
ATOM     23  C   UNL     1      33.560 -14.023 -24.613  0.00  0.00    +0.293 C 
BRANCH  23  24
ATOM     24  O   UNL     1      34.189 -12.841 -24.387  0.00  0.00    -0.482 OA
ATOM     25  H   UNL     1      34.970 -12.817 -23.870  0.00  0.00    +0.295 HD
ENDBRANCH  23  24
ENDBRANCH  21  23
BRANCH  21  26
ATOM     26  C   UNL     1      33.537 -14.062 -22.095  0.00  0.00    -0.006 C 
BRANCH  26  27
ATOM     27  C   UNL     1      32.146 -13.701 -21.550  0.00  0.00    +0.025 C 
BRANCH  27  28
ATOM     28  C   UNL     1      31.972 -12.245 -21.193  0.00  0.00    -0.022 C 
ATOM     29  C   UNL     1      32.000 -11.274 -22.194  0.00  0.00    -0.004 C 
ATOM     30  C   UNL     1      31.782 -11.871 -19.863  0.00  0.00    -0.004 C 
ATOM     31  C   UNL     1      31.838  -9.928 -21.865  0.00  0.00    -0.000 C 
ATOM     32  C   UNL     1      31.620 -10.525 -19.534  0.00  0.00    -0.000 C 
ATOM     33  C   UNL     1      31.648  -9.554 -20.535  0.00  0.00    -0.000 C 
ENDBRANCH  27  28
ENDBRANCH  26  27
ENDBRANCH  21  26
ENDBRANCH  18  21
ENDBRANCH   1  18
TORSDOF 10
ENDMDL
MODEL 6
REMARK VINA RESULT:      -8.9      2.296      8.888
REMARK  Name = 5464097
REMARK  10 active torsions:
REMARK  status: ('A' for Active; 'I' for Inactive)
REMARK    1  A    between atoms: CA_1  and  C_13
REMARK    2  A    between atoms: CA_1  and  N_18
REMARK    3  A    between atoms: CA_8  and  C_15
REMARK    4  A    between atoms: C_15  and  O_16
REMARK    5  A    between atoms: N_18  and  CA_21
REMARK    6  A    between atoms: CA_21  and  C_23
REMARK    7  A    between atoms: CA_21  and  C_26
REMARK    8  A    between atoms: C_23  and  O_24
REMARK    9  A    between atoms: C_26  and  C_27
REMARK   10  A    between atoms: C_27  and  C_28
REMARK                            x       y       z     vdW  Elec       q    Type
REMARK                         _______ _______ _______ _____ _____    ______ ____
ROOT
ATOM      1  CA  UNL     1      33.073 -12.752 -23.330  0.00  0.00    +0.018 C 
ATOM      2  CB  UNL     1      31.909 -13.697 -23.543  0.00  0.00    -0.014 C 
ENDROOT
BRANCH   1  13
ATOM      3  O   UNL     1      32.425 -12.090 -21.145  0.00  0.00    -0.277 OA
ATOM      4  N   UNL     1      32.745 -10.398 -22.698  0.00  0.00    -0.275 N 
ATOM      5  C   UNL     1      32.469  -8.066 -22.721  0.00  0.00    +0.020 C 
ATOM      6  C   UNL     1      32.077  -9.332 -21.956  0.00  0.00    +0.076 C 
ATOM      7  C   UNL     1      32.433  -8.542 -24.166  0.00  0.00    +0.033 C 
ATOM      8  CA  UNL     1      33.089  -9.927 -24.049  0.00  0.00    +0.174 C 
ATOM      9  C   UNL     1      31.580  -6.907 -22.310  0.00  0.00    +0.002 C 
ATOM     10  C   UNL     1      32.406  -9.127 -20.481  0.00  0.00    +0.020 C 
ATOM     11  C   UNL     1      31.770  -6.654 -20.807  0.00  0.00    +0.000 C 
ATOM     12  C   UNL     1      31.610  -7.922 -19.952  0.00  0.00    +0.002 C 
ATOM     13  C   UNL     1      32.718 -11.724 -22.284  0.00  0.00    +0.206 C 
BRANCH   8  15
ATOM     14  OXT UNL     1      35.249  -8.887 -23.736  0.00  0.00    -0.248 OA
ATOM     15  C   UNL     1      34.581  -9.821 -24.154  0.00  0.00    +0.332 C 
BRANCH  15  16
ATOM     16  O   UNL     1      35.095 -10.906 -24.783  0.00  0.00    -0.479 OA
ATOM     17  H   UNL     1      35.575 -11.546 -24.296  0.00  0.00    +0.295 HD
ENDBRANCH  15  16
ENDBRANCH   8  15
ENDBRANCH   1  13
BRANCH   1  18
ATOM     18  N   UNL     1      34.242 -13.462 -22.840  0.00  0.00    +0.399 N 
ATOM     19  H1  UNL     1      34.577 -13.007 -21.991  0.00  0.00    -0.083 HD
ATOM     20  H2  UNL     1      34.960 -13.441 -23.564  0.00  0.00    -0.083 HD
BRANCH  18  21
ATOM     21  CA  UNL     1      33.926 -14.854 -22.542  0.00  0.00    +0.041 C 
BRANCH  21  23
ATOM     22  OXT UNL     1      34.989 -15.174 -20.375  0.00  0.00    -0.253 OA
ATOM     23  C   UNL     1      33.969 -15.003 -21.031  0.00  0.00    +0.293 C 
BRANCH  23  24
ATOM     24  O   UNL     1      32.740 -14.900 -20.464  0.00  0.00    -0.482 OA
ATOM     25  H   UNL     1      32.080 -15.536 -20.657  0.00  0.00    +0.295 HD
ENDBRANCH  23  24
ENDBRANCH  21  23
BRANCH  21  26
ATOM     26  C   UNL     1      34.960 -15.764 -23.218  0.00  0.00    -0.006 C 
BRANCH  26  27
ATOM     27  C   UNL     1      34.479 -17.202 -23.464  0.00  0.00    +0.025 C 
BRANCH  27  28
ATOM     28  C   UNL     1      34.906 -18.195 -22.409  0.00  0.00    -0.022 C 
ATOM     29  C   UNL     1      33.962 -19.039 -21.824  0.00  0.00    -0.004 C 
ATOM     30  C   UNL     1      36.243 -18.267 -22.022  0.00  0.00    -0.004 C 
ATOM     31  C   UNL     1      34.357 -19.957 -20.850  0.00  0.00    -0.000 C 
ATOM     32  C   UNL     1      36.638 -19.185 -21.048  0.00  0.00    -0.000 C 
ATOM     33  C   UNL     1      35.694 -20.029 -20.462  0.00  0.00    -0.000 C 
ENDBRANCH  27  28
ENDBRANCH  26  27
ENDBRANCH  21  26
ENDBRANCH  18  21
ENDBRANCH   1  18
TORSDOF 10
ENDMDL
MODEL 7
REMARK VINA RESULT:      -8.8      2.824      9.613
REMARK  Name = 5464097
REMARK  10 active torsions:
REMARK  status: ('A' for Active; 'I' for Inactive)
REMARK    1  A    between atoms: CA_1  and  C_13
REMARK    2  A    between atoms: CA_1  and  N_18
REMARK    3  A    between atoms: CA_8  and  C_15
REMARK    4  A    between atoms: C_15  and  O_16
REMARK    5  A    between atoms: N_18  and  CA_21
REMARK    6  A    between atoms: CA_21  and  C_23
REMARK    7  A    between atoms: CA_21  and  C_26
REMARK    8  A    between atoms: C_23  and  O_24
REMARK    9  A    between atoms: C_26  and  C_27
REMARK   10  A    between atoms: C_27  and  C_28
REMARK                            x       y       z     vdW  Elec       q    Type
REMARK                         _______ _______ _______ _____ _____    ______ ____
ROOT
ATOM      1  CA  UNL     1      35.647 -18.558 -21.704  0.00  0.00    +0.018 C 
ATOM      2  CB  UNL     1      37.141 -18.780 -21.823  0.00  0.00    -0.014 C 
ENDROOT
BRANCH   1  13
ATOM      3  O   UNL     1      35.174 -18.586 -24.030  0.00  0.00    -0.277 OA
ATOM      4  N   UNL     1      34.580 -16.671 -22.865  0.00  0.00    -0.275 N 
ATOM      5  C   UNL     1      33.685 -14.573 -23.428  0.00  0.00    +0.020 C 
ATOM      6  C   UNL     1      34.379 -15.802 -24.021  0.00  0.00    +0.076 C 
ATOM      7  C   UNL     1      34.397 -14.421 -22.091  0.00  0.00    +0.033 C 
ATOM      8  CA  UNL     1      34.494 -15.882 -21.626  0.00  0.00    +0.174 C 
ATOM      9  C   UNL     1      33.724 -13.421 -24.413  0.00  0.00    +0.002 C 
ATOM     10  C   UNL     1      33.549 -16.303 -25.199  0.00  0.00    +0.020 C 
ATOM     11  C   UNL     1      32.976 -13.841 -25.688  0.00  0.00    +0.000 C 
ATOM     12  C   UNL     1      33.452 -15.189 -26.255  0.00  0.00    +0.002 C 
ATOM     13  C   UNL     1      35.114 -17.948 -22.977  0.00  0.00    +0.206 C 
BRANCH   8  15
ATOM     14  OXT UNL     1      32.771 -17.411 -20.889  0.00  0.00    -0.248 OA
ATOM     15  C   UNL     1      33.256 -16.289 -20.884  0.00  0.00    +0.332 C 
BRANCH  15  16
ATOM     16  O   UNL     1      32.739 -15.237 -20.204  0.00  0.00    -0.479 OA
ATOM     17  H   UNL     1      33.308 -14.639 -19.762  0.00  0.00    +0.295 HD
ENDBRANCH  15  16
ENDBRANCH   8  15
ENDBRANCH   1  13
BRANCH   1  18
ATOM     18  N   UNL     1      34.944 -19.815 -21.514  0.00  0.00    +0.399 N 
ATOM     19  H1  UNL     1      35.434 -20.551 -22.023  0.00  0.00    -0.083 HD
ATOM     20  H2  UNL     1      33.992 -19.710 -21.864  0.00  0.00    -0.083 HD
BRANCH  18  21
ATOM     21  CA  UNL     1      34.881 -20.174 -20.102  0.00  0.00    +0.041 C 
BRANCH  21  23
ATOM     22  OXT UNL     1      36.528 -21.916 -20.528  0.00  0.00    -0.253 OA
ATOM     23  C   UNL     1      36.106 -21.021 -19.806  0.00  0.00    +0.293 C 
BRANCH  23  24
ATOM     24  O   UNL     1      36.718 -20.664 -18.648  0.00  0.00    -0.482 OA
ATOM     25  H   UNL     1      37.309 -21.257 -18.227  0.00  0.00    +0.295 HD
ENDBRANCH  23  24
ENDBRANCH  21  23
BRANCH  21  26
ATOM     26  C   UNL     1      33.589 -20.957 -19.836  0.00  0.00    -0.006 C 
BRANCH  26  27
ATOM     27  C   UNL     1      33.805 -22.425 -19.436  0.00  0.00    +0.025 C 
BRANCH  27  28
ATOM     28  C   UNL     1      33.517 -22.729 -17.985  0.00  0.00    -0.022 C 
ATOM     29  C   UNL     1      34.570 -22.940 -17.095  0.00  0.00    -0.004 C 
ATOM     30  C   UNL     1      32.198 -22.796 -17.536  0.00  0.00    -0.004 C 
ATOM     31  C   UNL     1      34.304 -23.220 -15.755  0.00  0.00    -0.000 C 
ATOM     32  C   UNL     1      31.932 -23.075 -16.195  0.00  0.00    -0.000 C 
ATOM     33  C   UNL     1      32.985 -23.287 -15.305  0.00  0.00    -0.000 C 
ENDBRANCH  27  28
ENDBRANCH  26  27
ENDBRANCH  21  26
ENDBRANCH  18  21
ENDBRANCH   1  18
TORSDOF 10
ENDMDL
MODEL 8
REMARK VINA RESULT:      -8.6      2.822      9.447
REMARK  Name = 5464097
REMARK  10 active torsions:
REMARK  status: ('A' for Active; 'I' for Inactive)
REMARK    1  A    between atoms: CA_1  and  C_13
REMARK    2  A    between atoms: CA_1  and  N_18
REMARK    3  A    between atoms: CA_8  and  C_15
REMARK    4  A    between atoms: C_15  and  O_16
REMARK    5  A    between atoms: N_18  and  CA_21
REMARK    6  A    between atoms: CA_21  and  C_23
REMARK    7  A    between atoms: CA_21  and  C_26
REMARK    8  A    between atoms: C_23  and  O_24
REMARK    9  A    between atoms: C_26  and  C_27
REMARK   10  A    between atoms: C_27  and  C_28
REMARK                            x       y       z     vdW  Elec       q    Type
REMARK                         _______ _______ _______ _____ _____    ______ ____
ROOT
ATOM      1  CA  UNL     1      33.687 -10.885 -23.635  0.00  0.00    +0.018 C 
ATOM      2  CB  UNL     1      34.994 -10.880 -24.402  0.00  0.00    -0.014 C 
ENDROOT
BRANCH   1  13
ATOM      3  O   UNL     1      32.809  -9.151 -24.997  0.00  0.00    -0.277 OA
ATOM      4  N   UNL     1      32.490  -8.947 -22.710  0.00  0.00    -0.275 N 
ATOM      5  C   UNL     1      31.574  -7.323 -21.281  0.00  0.00    +0.020 C 
ATOM      6  C   UNL     1      32.114  -7.536 -22.697  0.00  0.00    +0.076 C 
ATOM      7  C   UNL     1      32.516  -8.183 -20.449  0.00  0.00    +0.033 C 
ATOM      8  CA  UNL     1      32.649  -9.434 -21.331  0.00  0.00    +0.174 C 
ATOM      9  C   UNL     1      31.473  -5.841 -20.974  0.00  0.00    +0.002 C 
ATOM     10  C   UNL     1      31.075  -7.029 -23.691  0.00  0.00    +0.020 C 
ATOM     11  C   UNL     1      30.500  -5.199 -21.974  0.00  0.00    +0.000 C 
ATOM     12  C   UNL     1      30.826  -5.532 -23.439  0.00  0.00    +0.002 C 
ATOM     13  C   UNL     1      32.956  -9.584 -23.853  0.00  0.00    +0.206 C 
BRANCH   8  15
ATOM     14  OXT UNL     1      30.803 -10.900 -21.875  0.00  0.00    -0.248 OA
ATOM     15  C   UNL     1      31.549 -10.411 -21.038  0.00  0.00    +0.332 C 
BRANCH  15  16
ATOM     16  O   UNL     1      31.489 -10.681 -19.711  0.00  0.00    -0.479 OA
ATOM     17  H   UNL     1      30.663 -10.685 -19.271  0.00  0.00    +0.295 HD
ENDBRANCH  15  16
ENDBRANCH   8  15
ENDBRANCH   1  13
BRANCH   1  18
ATOM     18  N   UNL     1      32.810 -11.944 -24.104  0.00  0.00    +0.399 N 
ATOM     19  H1  UNL     1      32.258 -11.596 -24.888  0.00  0.00    -0.083 HD
ATOM     20  H2  UNL     1      32.201 -12.224 -23.335  0.00  0.00    -0.083 HD
BRANCH  18  21
ATOM     21  CA  UNL     1      33.573 -13.108 -24.538  0.00  0.00    +0.041 C 
BRANCH  21  23
ATOM     22  OXT UNL     1      33.502 -12.823 -26.955  0.00  0.00    -0.253 OA
ATOM     23  C   UNL     1      33.129 -13.425 -25.955  0.00  0.00    +0.293 C 
BRANCH  23  24
ATOM     24  O   UNL     1      32.279 -14.482 -26.009  0.00  0.00    -0.482 OA
ATOM     25  H   UNL     1      32.262 -15.031 -26.769  0.00  0.00    +0.295 HD
ENDBRANCH  23  24
ENDBRANCH  21  23
BRANCH  21  26
ATOM     26  C   UNL     1      33.287 -14.281 -23.592  0.00  0.00    -0.006 C 
BRANCH  26  27
ATOM     27  C   UNL     1      34.543 -14.973 -23.037  0.00  0.00    +0.025 C 
BRANCH  27  28
ATOM     28  C   UNL     1      34.665 -16.434 -23.397  0.00  0.00    -0.022 C 
ATOM     29  C   UNL     1      35.010 -17.366 -22.418  0.00  0.00    -0.004 C 
ATOM     30  C   UNL     1      34.432 -16.851 -24.707  0.00  0.00    -0.004 C 
ATOM     31  C   UNL     1      35.122 -18.716 -22.750  0.00  0.00    -0.000 C 
ATOM     32  C   UNL     1      34.544 -18.201 -25.039  0.00  0.00    -0.000 C 
ATOM     33  C   UNL     1      34.889 -19.133 -24.060  0.00  0.00    -0.000 C 
ENDBRANCH  27  28
ENDBRANCH  26  27
ENDBRANCH  21  26
ENDBRANCH  18  21
ENDBRANCH   1  18
TORSDOF 10
ENDMDL
MODEL 9
REMARK VINA RESULT:      -8.5     10.849     12.972
REMARK  Name = 5464097
REMARK  10 active torsions:
REMARK  status: ('A' for Active; 'I' for Inactive)
REMARK    1  A    between atoms: CA_1  and  C_13
REMARK    2  A    between atoms: CA_1  and  N_18
REMARK    3  A    between atoms: CA_8  and  C_15
REMARK    4  A    between atoms: C_15  and  O_16
REMARK    5  A    between atoms: N_18  and  CA_21
REMARK    6  A    between atoms: CA_21  and  C_23
REMARK    7  A    between atoms: CA_21  and  C_26
REMARK    8  A    between atoms: C_23  and  O_24
REMARK    9  A    between atoms: C_26  and  C_27
REMARK   10  A    between atoms: C_27  and  C_28
REMARK                            x       y       z     vdW  Elec       q    Type
REMARK                         _______ _______ _______ _____ _____    ______ ____
ROOT
ATOM      1  CA  UNL     1      33.869 -23.681 -13.880  0.00  0.00    +0.018 C 
ATOM      2  CB  UNL     1      33.234 -25.057 -13.902  0.00  0.00    -0.014 C 
ENDROOT
BRANCH   1  13
ATOM      3  O   UNL     1      35.420 -23.248 -15.622  0.00  0.00    -0.277 OA
ATOM      4  N   UNL     1      36.231 -24.354 -13.753  0.00  0.00    -0.275 N 
ATOM      5  C   UNL     1      38.278 -25.325 -13.132  0.00  0.00    +0.020 C 
ATOM      6  C   UNL     1      37.481 -24.827 -14.341  0.00  0.00    +0.076 C 
ATOM      7  C   UNL     1      37.193 -25.965 -12.278  0.00  0.00    +0.033 C 
ATOM      8  CA  UNL     1      36.051 -24.947 -12.419  0.00  0.00    +0.174 C 
ATOM      9  C   UNL     1      39.448 -26.176 -13.589  0.00  0.00    +0.002 C 
ATOM     10  C   UNL     1      38.354 -23.854 -15.127  0.00  0.00    +0.020 C 
ATOM     11  C   UNL     1      40.369 -25.313 -14.465  0.00  0.00    +0.000 C 
ATOM     12  C   UNL     1      39.624 -24.584 -15.595  0.00  0.00    +0.002 C 
ATOM     13  C   UNL     1      35.241 -23.736 -14.505  0.00  0.00    +0.206 C 
BRANCH   8  15
ATOM     14  OXT UNL     1      36.716 -22.781 -11.574  0.00  0.00    -0.248 OA
ATOM     15  C   UNL     1      36.175 -23.862 -11.391  0.00  0.00    +0.332 C 
BRANCH  15  16
ATOM     16  O   UNL     1      35.605 -24.242 -10.222  0.00  0.00    -0.479 OA
ATOM     17  H   UNL     1      35.802 -23.779  -9.433  0.00  0.00    +0.295 HD
ENDBRANCH  15  16
ENDBRANCH   8  15
ENDBRANCH   1  13
BRANCH   1  18
ATOM     18  N   UNL     1      33.090 -22.732 -14.656  0.00  0.00    +0.399 N 
ATOM     19  H1  UNL     1      33.708 -22.252 -15.311  0.00  0.00    -0.083 HD
ATOM     20  H2  UNL     1      32.660 -22.066 -14.015  0.00  0.00    -0.083 HD
BRANCH  18  21
ATOM     21  CA  UNL     1      32.034 -23.404 -15.403  0.00  0.00    +0.041 C 
BRANCH  21  23
ATOM     22  OXT UNL     1      31.545 -22.286 -17.509  0.00  0.00    -0.253 OA
ATOM     23  C   UNL     1      32.241 -23.062 -16.868  0.00  0.00    +0.293 C 
BRANCH  23  24
ATOM     24  O   UNL     1      33.316 -23.696 -17.403  0.00  0.00    -0.482 OA
ATOM     25  H   UNL     1      33.203 -24.280 -18.128  0.00  0.00    +0.295 HD
ENDBRANCH  23  24
ENDBRANCH  21  23
BRANCH  21  26
ATOM     26  C   UNL     1      30.669 -22.909 -14.907  0.00  0.00    -0.006 C 
BRANCH  26  27
ATOM     27  C   UNL     1      29.486 -23.812 -15.289  0.00  0.00    +0.025 C 
BRANCH  27  28
ATOM     28  C   UNL     1      28.329 -23.089 -15.936  0.00  0.00    -0.022 C 
ATOM     29  C   UNL     1      27.413 -22.394 -15.146  0.00  0.00    -0.004 C 
ATOM     30  C   UNL     1      28.178 -23.115 -17.322  0.00  0.00    -0.004 C 
ATOM     31  C   UNL     1      26.344 -21.725 -15.744  0.00  0.00    -0.000 C 
ATOM     32  C   UNL     1      27.109 -22.446 -17.919  0.00  0.00    -0.000 C 
ATOM     33  C   UNL     1      26.193 -21.751 -17.130  0.00  0.00    -0.000 C 
ENDBRANCH  27  28
ENDBRANCH  26  27
ENDBRANCH  21  26
ENDBRANCH  18  21
ENDBRANCH   1  18
TORSDOF 10
ENDMDL
