MODEL 1
REMARK VINA RESULT:      -5.3      0.000      0.000
REMARK  Name = 4617
REMARK  1 active torsions:
REMARK  status: ('A' for Active; 'I' for Inactive)
REMARK    1  A    between atoms: C_6  and  C_20
REMARK                            x       y       z     vdW  Elec       q    Type
REMARK                         _______ _______ _______ _____ _____    ______ ____
ROOT
ATOM      1 CL   UNL     1      30.665 -24.289 -13.838  0.00  0.00    -0.082 Cl
ATOM      2  O   UNL     1      35.539 -24.948 -12.292  0.00  0.00    -0.373 OA
ATOM      3  O   UNL     1      38.113 -22.265 -16.109  0.00  0.00    -0.277 OA
ATOM      4  N   UNL     1      36.873 -23.267 -13.262  0.00  0.00    +0.417 N 
ATOM      5  N   UNL     1      35.915 -22.909 -16.203  0.00  0.00    -0.286 N 
ATOM      6  C   UNL     1      35.920 -24.362 -13.571  0.00  0.00    +0.097 C 
ATOM      7  C   UNL     1      36.630 -22.950 -11.857  0.00  0.00    -0.042 C 
ATOM      8  C   UNL     1      36.358 -24.326 -11.296  0.00  0.00    +0.093 C 
ATOM      9  C   UNL     1      34.644 -23.891 -14.310  0.00  0.00    +0.003 C 
ATOM     10  C   UNL     1      36.844 -22.077 -14.090  0.00  0.00    +0.015 C 
ATOM     11  C   UNL     1      34.706 -23.320 -15.602  0.00  0.00    +0.047 C 
ATOM     12  C   UNL     1      35.627 -24.307  -9.968  0.00  0.00    +0.030 C 
ATOM     13  C   UNL     1      37.035 -22.449 -15.542  0.00  0.00    +0.205 C 
ATOM     14  C   UNL     1      33.367 -24.161 -13.776  0.00  0.00    +0.009 C 
ATOM     15  C   UNL     1      33.539 -23.149 -16.362  0.00  0.00    +0.015 C 
ATOM     16  C   UNL     1      32.207 -23.932 -14.519  0.00  0.00    +0.057 C 
ATOM     17  C   UNL     1      32.294 -23.446 -15.817  0.00  0.00    +0.013 C 
ATOM     18  H   UNL     1      37.811 -23.610 -13.470  0.00  0.00    -0.074 HD
ATOM     19  H   UNL     1      35.963 -22.955 -17.186  0.00  0.00    +0.155 HD
ENDROOT
BRANCH   6  20
ATOM     20  C   UNL     1      36.587 -25.546 -14.310  0.00  0.00    -0.012 C 
ATOM     21  C   UNL     1      37.919 -25.855 -14.055  0.00  0.00    -0.004 C 
ATOM     22  C   UNL     1      35.850 -26.291 -15.223  0.00  0.00    -0.004 C 
ATOM     23  C   UNL     1      38.520 -26.923 -14.721  0.00  0.00    -0.000 C 
ATOM     24  C   UNL     1      36.451 -27.358 -15.890  0.00  0.00    -0.000 C 
ATOM     25  C   UNL     1      37.786 -27.674 -15.639  0.00  0.00    -0.000 C 
ENDBRANCH   6  20
TORSDOF 1
ENDMDL
MODEL 2
REMARK VINA RESULT:      -5.1      2.465      4.876
REMARK  Name = 4617
REMARK  1 active torsions:
REMARK  status: ('A' for Active; 'I' for Inactive)
REMARK    1  A    between atoms: C_6  and  C_20
REMARK                            x       y       z     vdW  Elec       q    Type
REMARK                         _______ _______ _______ _____ _____    ______ ____
ROOT
ATOM      1 CL   UNL     1      36.761 -22.368  -9.910  0.00  0.00    -0.082 Cl
ATOM      2  O   UNL     1      33.947 -23.025 -14.179  0.00  0.00    -0.373 OA
ATOM      3  O   UNL     1      36.664 -26.976 -16.505  0.00  0.00    -0.277 OA
ATOM      4  N   UNL     1      34.369 -25.176 -15.038  0.00  0.00    +0.417 N 
ATOM      5  N   UNL     1      37.426 -25.700 -14.760  0.00  0.00    -0.286 N 
ATOM      6  C   UNL     1      35.017 -23.905 -14.631  0.00  0.00    +0.097 C 
ATOM      7  C   UNL     1      33.071 -25.164 -14.367  0.00  0.00    -0.042 C 
ATOM      8  C   UNL     1      32.715 -23.699 -14.463  0.00  0.00    +0.093 C 
ATOM      9  C   UNL     1      36.051 -24.068 -13.490  0.00  0.00    +0.003 C 
ATOM     10  C   UNL     1      35.080 -26.418 -14.800  0.00  0.00    +0.015 C 
ATOM     11  C   UNL     1      37.227 -24.836 -13.662  0.00  0.00    +0.047 C 
ATOM     12  C   UNL     1      31.652 -23.266 -13.472  0.00  0.00    +0.030 C 
ATOM     13  C   UNL     1      36.441 -26.371 -15.455  0.00  0.00    +0.205 C 
ATOM     14  C   UNL     1      35.925 -23.325 -12.298  0.00  0.00    +0.009 C 
ATOM     15  C   UNL     1      38.272 -24.756 -12.730  0.00  0.00    +0.015 C 
ATOM     16  C   UNL     1      36.947 -23.299 -11.348  0.00  0.00    +0.057 C 
ATOM     17  C   UNL     1      38.127 -23.997 -11.573  0.00  0.00    +0.013 C 
ATOM     18  H   UNL     1      34.327 -25.184 -16.058  0.00  0.00    -0.074 HD
ATOM     19  H   UNL     1      38.355 -25.835 -15.058  0.00  0.00    +0.155 HD
ENDROOT
BRANCH   6  20
ATOM     20  C   UNL     1      35.622 -23.131 -15.825  0.00  0.00    -0.012 C 
ATOM     21  C   UNL     1      34.899 -23.015 -17.008  0.00  0.00    -0.004 C 
ATOM     22  C   UNL     1      36.883 -22.557 -15.707  0.00  0.00    -0.004 C 
ATOM     23  C   UNL     1      35.445 -22.316 -18.085  0.00  0.00    -0.000 C 
ATOM     24  C   UNL     1      37.428 -21.859 -16.783  0.00  0.00    -0.000 C 
ATOM     25  C   UNL     1      36.709 -21.738 -17.973  0.00  0.00    -0.000 C 
ENDBRANCH   6  20
TORSDOF 1
ENDMDL
MODEL 3
REMARK VINA RESULT:      -4.5      1.880      3.964
REMARK  Name = 4617
REMARK  1 active torsions:
REMARK  status: ('A' for Active; 'I' for Inactive)
REMARK    1  A    between atoms: C_6  and  C_20
REMARK                            x       y       z     vdW  Elec       q    Type
REMARK                         _______ _______ _______ _____ _____    ______ ____
ROOT
ATOM      1 CL   UNL     1      30.714 -25.668 -14.913  0.00  0.00    -0.082 Cl
ATOM      2  O   UNL     1      35.784 -25.776 -15.839  0.00  0.00    -0.373 OA
ATOM      3  O   UNL     1      37.551 -22.809 -11.781  0.00  0.00    -0.277 OA
ATOM      4  N   UNL     1      36.927 -25.257 -13.847  0.00  0.00    +0.417 N 
ATOM      5  N   UNL     1      35.366 -22.947 -12.460  0.00  0.00    -0.286 N 
ATOM      6  C   UNL     1      35.897 -24.766 -14.795  0.00  0.00    +0.097 C 
ATOM      7  C   UNL     1      37.005 -26.695 -14.095  0.00  0.00    -0.042 C 
ATOM      8  C   UNL     1      36.819 -26.736 -15.594  0.00  0.00    +0.093 C 
ATOM      9  C   UNL     1      34.506 -24.550 -14.150  0.00  0.00    +0.003 C 
ATOM     10  C   UNL     1      36.757 -24.969 -12.436  0.00  0.00    +0.015 C 
ATOM     11  C   UNL     1      34.304 -23.589 -13.133  0.00  0.00    +0.047 C 
ATOM     12  C   UNL     1      36.394 -28.095 -16.116  0.00  0.00    +0.030 C 
ATOM     13  C   UNL     1      36.617 -23.479 -12.223  0.00  0.00    +0.205 C 
ATOM     14  C   UNL     1      33.368 -25.199 -14.671  0.00  0.00    +0.009 C 
ATOM     15  C   UNL     1      33.006 -23.217 -12.752  0.00  0.00    +0.015 C 
ATOM     16  C   UNL     1      32.082 -24.863 -14.243  0.00  0.00    +0.057 C 
ATOM     17  C   UNL     1      31.900 -23.859 -13.299  0.00  0.00    +0.013 C 
ATOM     18  H   UNL     1      37.787 -24.741 -14.035  0.00  0.00    -0.074 HD
ATOM     19  H   UNL     1      35.199 -22.034 -12.130  0.00  0.00    +0.155 HD
ENDROOT
BRANCH   6  20
ATOM     20  C   UNL     1      36.350 -23.510 -15.575  0.00  0.00    -0.012 C 
ATOM     21  C   UNL     1      35.479 -22.907 -16.477  0.00  0.00    -0.004 C 
ATOM     22  C   UNL     1      37.625 -22.994 -15.370  0.00  0.00    -0.004 C 
ATOM     23  C   UNL     1      35.887 -21.775 -17.180  0.00  0.00    -0.000 C 
ATOM     24  C   UNL     1      38.033 -21.861 -16.074  0.00  0.00    -0.000 C 
ATOM     25  C   UNL     1      37.164 -21.252 -16.980  0.00  0.00    -0.000 C 
ENDBRANCH   6  20
TORSDOF 1
ENDMDL
MODEL 4
REMARK VINA RESULT:      -4.0      2.255      3.275
REMARK  Name = 4617
REMARK  1 active torsions:
REMARK  status: ('A' for Active; 'I' for Inactive)
REMARK    1  A    between atoms: C_6  and  C_20
REMARK                            x       y       z     vdW  Elec       q    Type
REMARK                         _______ _______ _______ _____ _____    ______ ____
ROOT
ATOM      1 CL   UNL     1      34.100 -22.030 -19.288  0.00  0.00    -0.082 Cl
ATOM      2  O   UNL     1      33.711 -24.873 -15.006  0.00  0.00    -0.373 OA
ATOM      3  O   UNL     1      37.879 -23.015 -12.254  0.00  0.00    -0.277 OA
ATOM      4  N   UNL     1      34.876 -23.789 -13.270  0.00  0.00    +0.417 N 
ATOM      5  N   UNL     1      37.510 -22.660 -14.488  0.00  0.00    -0.286 N 
ATOM      6  C   UNL     1      35.014 -24.330 -14.644  0.00  0.00    +0.097 C 
ATOM      7  C   UNL     1      33.439 -23.596 -13.090  0.00  0.00    -0.042 C 
ATOM      8  C   UNL     1      32.895 -24.795 -13.831  0.00  0.00    +0.093 C 
ATOM      9  C   UNL     1      35.429 -23.272 -15.695  0.00  0.00    +0.003 C 
ATOM     10  C   UNL     1      35.621 -22.593 -12.924  0.00  0.00    +0.015 C 
ATOM     11  C   UNL     1      36.675 -22.607 -15.625  0.00  0.00    +0.047 C 
ATOM     12  C   UNL     1      31.438 -24.655 -14.227  0.00  0.00    +0.030 C 
ATOM     13  C   UNL     1      37.095 -22.807 -13.181  0.00  0.00    +0.205 C 
ATOM     14  C   UNL     1      34.636 -23.054 -16.842  0.00  0.00    +0.009 C 
ATOM     15  C   UNL     1      37.146 -21.861 -16.715  0.00  0.00    +0.015 C 
ATOM     16  C   UNL     1      35.090 -22.261 -17.898  0.00  0.00    +0.057 C 
ATOM     17  C   UNL     1      36.352 -21.681 -17.843  0.00  0.00    +0.013 C 
ATOM     18  H   UNL     1      35.303 -24.460 -12.632  0.00  0.00    -0.074 HD
ATOM     19  H   UNL     1      38.480 -22.586 -14.644  0.00  0.00    +0.155 HD
ENDROOT
BRANCH   6  20
ATOM     20  C   UNL     1      35.937 -25.570 -14.710  0.00  0.00    -0.012 C 
ATOM     21  C   UNL     1      36.646 -25.961 -13.579  0.00  0.00    -0.004 C 
ATOM     22  C   UNL     1      36.050 -26.283 -15.898  0.00  0.00    -0.004 C 
ATOM     23  C   UNL     1      37.478 -27.079 -13.637  0.00  0.00    -0.000 C 
ATOM     24  C   UNL     1      36.883 -27.401 -15.956  0.00  0.00    -0.000 C 
ATOM     25  C   UNL     1      37.597 -27.799 -14.826  0.00  0.00    -0.000 C 
ENDBRANCH   6  20
TORSDOF 1
ENDMDL
MODEL 5
REMARK VINA RESULT:      -3.1      2.307      5.217
REMARK  Name = 4617
REMARK  1 active torsions:
REMARK  status: ('A' for Active; 'I' for Inactive)
REMARK    1  A    between atoms: C_6  and  C_20
REMARK                            x       y       z     vdW  Elec       q    Type
REMARK                         _______ _______ _______ _____ _____    ______ ____
ROOT
ATOM      1 CL   UNL     1      37.120 -28.215 -17.070  0.00  0.00    -0.082 Cl
ATOM      2  O   UNL     1      35.060 -23.523 -16.503  0.00  0.00    -0.373 OA
ATOM      3  O   UNL     1      36.135 -22.632 -11.361  0.00  0.00    -0.277 OA
ATOM      4  N   UNL     1      36.029 -22.495 -14.620  0.00  0.00    +0.417 N 
ATOM      5  N   UNL     1      36.275 -24.669 -12.404  0.00  0.00    -0.286 N 
ATOM      6  C   UNL     1      35.294 -23.700 -15.076  0.00  0.00    +0.097 C 
ATOM      7  C   UNL     1      36.605 -21.929 -15.837  0.00  0.00    -0.042 C 
ATOM      8  C   UNL     1      35.499 -22.199 -16.829  0.00  0.00    +0.093 C 
ATOM      9  C   UNL     1      36.064 -25.025 -14.852  0.00  0.00    +0.003 C 
ATOM     10  C   UNL     1      37.029 -22.651 -13.581  0.00  0.00    +0.015 C 
ATOM     11  C   UNL     1      36.391 -25.480 -13.553  0.00  0.00    +0.047 C 
ATOM     12  C   UNL     1      35.953 -22.150 -18.275  0.00  0.00    +0.030 C 
ATOM     13  C   UNL     1      36.413 -23.296 -12.361  0.00  0.00    +0.205 C 
ATOM     14  C   UNL     1      36.324 -25.893 -15.933  0.00  0.00    +0.009 C 
ATOM     15  C   UNL     1      36.841 -26.792 -13.351  0.00  0.00    +0.015 C 
ATOM     16  C   UNL     1      36.828 -27.178 -15.725  0.00  0.00    +0.057 C 
ATOM     17  C   UNL     1      37.068 -27.634 -14.435  0.00  0.00    +0.013 C 
ATOM     18  H   UNL     1      35.361 -21.892 -14.140  0.00  0.00    -0.074 HD
ATOM     19  H   UNL     1      36.078 -25.125 -11.554  0.00  0.00    +0.155 HD
ENDROOT
BRANCH   6  20
ATOM     20  C   UNL     1      33.862 -23.784 -14.498  0.00  0.00    -0.012 C 
ATOM     21  C   UNL     1      33.040 -22.662 -14.529  0.00  0.00    -0.004 C 
ATOM     22  C   UNL     1      33.408 -24.978 -13.951  0.00  0.00    -0.004 C 
ATOM     23  C   UNL     1      31.749 -22.737 -14.007  0.00  0.00    -0.000 C 
ATOM     24  C   UNL     1      32.117 -25.053 -13.429  0.00  0.00    -0.000 C 
ATOM     25  C   UNL     1      31.287 -23.932 -13.457  0.00  0.00    -0.000 C 
ENDBRANCH   6  20
TORSDOF 1
ENDMDL
