MODEL 1
REMARK VINA RESULT:      -7.9      0.000      0.000
REMARK  Name = 9600421
REMARK  6 active torsions:
REMARK  status: ('A' for Active; 'I' for Inactive)
REMARK    1  A    between atoms: N_1  and  O_6
REMARK    2  A    between atoms: C_2  and  S_3
REMARK    3  A    between atoms: C_2  and  C_11
REMARK    4  A    between atoms: S_3  and  C_4
REMARK    5  A    between atoms: O_6  and  S_7
REMARK    6  A    between atoms: C_11  and  C_12
REMARK                            x       y       z     vdW  Elec       q    Type
REMARK                         _______ _______ _______ _____ _____    ______ ____
ROOT
ATOM      1  N   UNL     1      35.569 -22.802 -16.697  0.00  0.00    -0.047 NA
ATOM      2  C   UNL     1      34.319 -23.054 -16.930  0.00  0.00    +0.129 C 
ENDROOT
BRANCH   2   3
ATOM      3  S   UNL     1      33.213 -23.280 -15.571  0.00  0.00    -0.096 S 
BRANCH   3   4
ATOM      4  C   UNL     1      31.614 -23.116 -16.394  0.00  0.00    +0.063 C 
ATOM      5  C   UNL     1      30.496 -23.029 -15.373  0.00  0.00    +0.013 C 
ENDBRANCH   3   4
ENDBRANCH   2   3
BRANCH   1   6
ATOM      6  O   UNL     1      35.833 -22.759 -15.327  0.00  0.00    -0.205 OA
BRANCH   6   7
ATOM      7  S   UNL     1      37.157 -23.633 -14.944  0.00  0.00    +0.302 S 
ATOM      8  O   UNL     1      38.294 -23.014 -15.935  0.00  0.00    -0.103 OA
ATOM      9  O   UNL     1      36.929 -25.010 -15.342  0.00  0.00    -0.011 OA
ATOM     10  O   UNL     1      37.539 -23.310 -13.582  0.00  0.00    -0.103 OA
ENDBRANCH   6   7
ENDBRANCH   1   6
BRANCH   2  11
ATOM     11  C   UNL     1      33.676 -23.175 -18.298  0.00  0.00    +0.082 C 
BRANCH  11  12
ATOM     12  C   UNL     1      33.969 -21.986 -19.181  0.00  0.00    -0.016 C 
ATOM     13  C   UNL     1      32.927 -21.165 -19.583  0.00  0.00    -0.004 C 
ATOM     14  C   UNL     1      35.275 -21.737 -19.574  0.00  0.00    -0.004 C 
ATOM     15  C   UNL     1      33.198 -20.067 -20.399  0.00  0.00    -0.000 C 
ATOM     16  C   UNL     1      35.545 -20.639 -20.390  0.00  0.00    -0.000 C 
ATOM     17  C   UNL     1      34.507 -19.804 -20.803  0.00  0.00    -0.000 C 
ENDBRANCH  11  12
ENDBRANCH   2  11
TORSDOF 6
ENDMDL
MODEL 2
REMARK VINA RESULT:      -7.8      6.591      8.217
REMARK  Name = 9600421
REMARK  6 active torsions:
REMARK  status: ('A' for Active; 'I' for Inactive)
REMARK    1  A    between atoms: N_1  and  O_6
REMARK    2  A    between atoms: C_2  and  S_3
REMARK    3  A    between atoms: C_2  and  C_11
REMARK    4  A    between atoms: S_3  and  C_4
REMARK    5  A    between atoms: O_6  and  S_7
REMARK    6  A    between atoms: C_11  and  C_12
REMARK                            x       y       z     vdW  Elec       q    Type
REMARK                         _______ _______ _______ _____ _____    ______ ____
ROOT
ATOM      1  N   UNL     1      34.980 -16.586 -20.585  0.00  0.00    -0.047 NA
ATOM      2  C   UNL     1      35.416 -17.363 -21.527  0.00  0.00    +0.129 C 
ENDROOT
BRANCH   2   3
ATOM      3  S   UNL     1      35.288 -16.840 -23.209  0.00  0.00    -0.096 S 
BRANCH   3   4
ATOM      4  C   UNL     1      35.261 -18.430 -24.066  0.00  0.00    +0.063 C 
ATOM      5  C   UNL     1      34.168 -18.449 -25.118  0.00  0.00    +0.013 C 
ENDBRANCH   3   4
ENDBRANCH   2   3
BRANCH   1   6
ATOM      6  O   UNL     1      34.447 -15.405 -21.105  0.00  0.00    -0.205 OA
BRANCH   6   7
ATOM      7  S   UNL     1      32.839 -15.307 -20.844  0.00  0.00    +0.302 S 
ATOM      8  O   UNL     1      32.276 -14.763 -22.273  0.00  0.00    -0.103 OA
ATOM      9  O   UNL     1      32.598 -14.273 -19.854  0.00  0.00    -0.011 OA
ATOM     10  O   UNL     1      32.325 -16.650 -20.650  0.00  0.00    -0.103 OA
ENDBRANCH   6   7
ENDBRANCH   1   6
BRANCH   2  11
ATOM     11  C   UNL     1      36.056 -18.724 -21.332  0.00  0.00    +0.082 C 
BRANCH  11  12
ATOM     12  C   UNL     1      35.114 -19.720 -20.701  0.00  0.00    -0.016 C 
ATOM     13  C   UNL     1      35.632 -20.760 -19.944  0.00  0.00    -0.004 C 
ATOM     14  C   UNL     1      33.748 -19.578 -20.887  0.00  0.00    -0.004 C 
ATOM     15  C   UNL     1      34.762 -21.681 -19.361  0.00  0.00    -0.000 C 
ATOM     16  C   UNL     1      32.878 -20.498 -20.303  0.00  0.00    -0.000 C 
ATOM     17  C   UNL     1      33.385 -21.550 -19.540  0.00  0.00    -0.000 C 
ENDBRANCH  11  12
ENDBRANCH   2  11
TORSDOF 6
ENDMDL
MODEL 3
REMARK VINA RESULT:      -7.7      3.162      4.619
REMARK  Name = 9600421
REMARK  6 active torsions:
REMARK  status: ('A' for Active; 'I' for Inactive)
REMARK    1  A    between atoms: N_1  and  O_6
REMARK    2  A    between atoms: C_2  and  S_3
REMARK    3  A    between atoms: C_2  and  C_11
REMARK    4  A    between atoms: S_3  and  C_4
REMARK    5  A    between atoms: O_6  and  S_7
REMARK    6  A    between atoms: C_11  and  C_12
REMARK                            x       y       z     vdW  Elec       q    Type
REMARK                         _______ _______ _______ _____ _____    ______ ____
ROOT
ATOM      1  N   UNL     1      36.226 -23.032 -13.621  0.00  0.00    -0.047 NA
ATOM      2  C   UNL     1      36.907 -23.339 -14.680  0.00  0.00    +0.129 C 
ENDROOT
BRANCH   2   3
ATOM      3  S   UNL     1      37.428 -25.010 -14.919  0.00  0.00    -0.096 S 
BRANCH   3   4
ATOM      4  C   UNL     1      39.222 -24.810 -14.974  0.00  0.00    +0.063 C 
ATOM      5  C   UNL     1      39.896 -25.798 -14.041  0.00  0.00    +0.013 C 
ENDBRANCH   3   4
ENDBRANCH   2   3
BRANCH   1   6
ATOM      6  O   UNL     1      36.020 -24.146 -12.806  0.00  0.00    -0.205 OA
BRANCH   6   7
ATOM      7  S   UNL     1      36.603 -23.903 -11.301  0.00  0.00    +0.302 S 
ATOM      8  O   UNL     1      37.887 -24.905 -11.247  0.00  0.00    -0.103 OA
ATOM      9  O   UNL     1      35.624 -24.389 -10.346  0.00  0.00    -0.011 OA
ATOM     10  O   UNL     1      37.102 -22.542 -11.220  0.00  0.00    -0.103 OA
ENDBRANCH   6   7
ENDBRANCH   1   6
BRANCH   2  11
ATOM     11  C   UNL     1      37.316 -22.383 -15.784  0.00  0.00    +0.082 C 
BRANCH  11  12
ATOM     12  C   UNL     1      36.302 -22.321 -16.899  0.00  0.00    -0.016 C 
ATOM     13  C   UNL     1      35.048 -22.883 -16.710  0.00  0.00    -0.004 C 
ATOM     14  C   UNL     1      36.640 -21.704 -18.094  0.00  0.00    -0.004 C 
ATOM     15  C   UNL     1      34.111 -22.826 -17.741  0.00  0.00    -0.000 C 
ATOM     16  C   UNL     1      35.703 -21.647 -19.124  0.00  0.00    -0.000 C 
ATOM     17  C   UNL     1      34.438 -22.208 -18.948  0.00  0.00    -0.000 C 
ENDBRANCH  11  12
ENDBRANCH   2  11
TORSDOF 6
ENDMDL
MODEL 4
REMARK VINA RESULT:      -7.5      6.521      8.177
REMARK  Name = 9600421
REMARK  6 active torsions:
REMARK  status: ('A' for Active; 'I' for Inactive)
REMARK    1  A    between atoms: N_1  and  O_6
REMARK    2  A    between atoms: C_2  and  S_3
REMARK    3  A    between atoms: C_2  and  C_11
REMARK    4  A    between atoms: S_3  and  C_4
REMARK    5  A    between atoms: O_6  and  S_7
REMARK    6  A    between atoms: C_11  and  C_12
REMARK                            x       y       z     vdW  Elec       q    Type
REMARK                         _______ _______ _______ _____ _____    ______ ____
ROOT
ATOM      1  N   UNL     1      34.232 -17.344 -21.201  0.00  0.00    -0.047 NA
ATOM      2  C   UNL     1      34.393 -18.467 -21.828  0.00  0.00    +0.129 C 
ENDROOT
BRANCH   2   3
ATOM      3  S   UNL     1      35.540 -18.554 -23.169  0.00  0.00    -0.096 S 
BRANCH   3   4
ATOM      4  C   UNL     1      34.427 -18.437 -24.586  0.00  0.00    +0.063 C 
ATOM      5  C   UNL     1      34.498 -17.055 -25.207  0.00  0.00    +0.013 C 
ENDBRANCH   3   4
ENDBRANCH   2   3
BRANCH   1   6
ATOM      6  O   UNL     1      35.040 -16.340 -21.738  0.00  0.00    -0.205 OA
BRANCH   6   7
ATOM      7  S   UNL     1      34.274 -14.900 -21.756  0.00  0.00    +0.302 S 
ATOM      8  O   UNL     1      32.702 -15.328 -21.736  0.00  0.00    -0.103 OA
ATOM      9  O   UNL     1      34.538 -14.255 -23.029  0.00  0.00    -0.011 OA
ATOM     10  O   UNL     1      34.560 -14.216 -20.508  0.00  0.00    -0.103 OA
ENDBRANCH   6   7
ENDBRANCH   1   6
BRANCH   2  11
ATOM     11  C   UNL     1      33.679 -19.769 -21.519  0.00  0.00    +0.082 C 
BRANCH  11  12
ATOM     12  C   UNL     1      34.377 -20.568 -20.445  0.00  0.00    -0.016 C 
ATOM     13  C   UNL     1      33.629 -21.391 -19.617  0.00  0.00    -0.004 C 
ATOM     14  C   UNL     1      35.752 -20.466 -20.306  0.00  0.00    -0.004 C 
ATOM     15  C   UNL     1      34.273 -22.130 -18.624  0.00  0.00    -0.000 C 
ATOM     16  C   UNL     1      36.396 -21.205 -19.314  0.00  0.00    -0.000 C 
ATOM     17  C   UNL     1      35.656 -22.036 -18.473  0.00  0.00    -0.000 C 
ENDBRANCH  11  12
ENDBRANCH   2  11
TORSDOF 6
ENDMDL
MODEL 5
REMARK VINA RESULT:      -7.5      3.179      4.200
REMARK  Name = 9600421
REMARK  6 active torsions:
REMARK  status: ('A' for Active; 'I' for Inactive)
REMARK    1  A    between atoms: N_1  and  O_6
REMARK    2  A    between atoms: C_2  and  S_3
REMARK    3  A    between atoms: C_2  and  C_11
REMARK    4  A    between atoms: S_3  and  C_4
REMARK    5  A    between atoms: O_6  and  S_7
REMARK    6  A    between atoms: C_11  and  C_12
REMARK                            x       y       z     vdW  Elec       q    Type
REMARK                         _______ _______ _______ _____ _____    ______ ____
ROOT
ATOM      1  N   UNL     1      38.573 -23.966 -15.181  0.00  0.00    -0.047 NA
ATOM      2  C   UNL     1      37.373 -23.537 -14.945  0.00  0.00    +0.129 C 
ENDROOT
BRANCH   2   3
ATOM      3  S   UNL     1      36.233 -24.578 -14.087  0.00  0.00    -0.096 S 
BRANCH   3   4
ATOM      4  C   UNL     1      35.944 -23.615 -12.587  0.00  0.00    +0.063 C 
ATOM      5  C   UNL     1      37.189 -23.593 -11.720  0.00  0.00    +0.013 C 
ENDBRANCH   3   4
ENDBRANCH   2   3
BRANCH   1   6
ATOM      6  O   UNL     1      38.757 -25.260 -14.690  0.00  0.00    -0.205 OA
BRANCH   6   7
ATOM      7  S   UNL     1      40.325 -25.705 -14.747  0.00  0.00    +0.302 S 
ATOM      8  O   UNL     1      41.107 -24.310 -14.431  0.00  0.00    -0.103 OA
ATOM      9  O   UNL     1      40.644 -26.090 -16.109  0.00  0.00    -0.011 OA
ATOM     10  O   UNL     1      40.582 -26.612 -13.643  0.00  0.00    -0.103 OA
ENDBRANCH   6   7
ENDBRANCH   1   6
BRANCH   2  11
ATOM     11  C   UNL     1      36.821 -22.179 -15.336  0.00  0.00    +0.082 C 
BRANCH  11  12
ATOM     12  C   UNL     1      36.140 -22.198 -16.682  0.00  0.00    -0.016 C 
ATOM     13  C   UNL     1      36.779 -21.631 -17.774  0.00  0.00    -0.004 C 
ATOM     14  C   UNL     1      34.889 -22.782 -16.804  0.00  0.00    -0.004 C 
ATOM     15  C   UNL     1      36.149 -21.648 -19.019  0.00  0.00    -0.000 C 
ATOM     16  C   UNL     1      34.261 -22.800 -18.048  0.00  0.00    -0.000 C 
ATOM     17  C   UNL     1      34.890 -22.233 -19.156  0.00  0.00    -0.000 C 
ENDBRANCH  11  12
ENDBRANCH   2  11
TORSDOF 6
ENDMDL
MODEL 6
REMARK VINA RESULT:      -7.5      3.994      5.844
REMARK  Name = 9600421
REMARK  6 active torsions:
REMARK  status: ('A' for Active; 'I' for Inactive)
REMARK    1  A    between atoms: N_1  and  O_6
REMARK    2  A    between atoms: C_2  and  S_3
REMARK    3  A    between atoms: C_2  and  C_11
REMARK    4  A    between atoms: S_3  and  C_4
REMARK    5  A    between atoms: O_6  and  S_7
REMARK    6  A    between atoms: C_11  and  C_12
REMARK                            x       y       z     vdW  Elec       q    Type
REMARK                         _______ _______ _______ _____ _____    ______ ____
ROOT
ATOM      1  N   UNL     1      33.486 -23.457 -16.553  0.00  0.00    -0.047 NA
ATOM      2  C   UNL     1      33.837 -23.450 -15.306  0.00  0.00    +0.129 C 
ENDROOT
BRANCH   2   3
ATOM      3  S   UNL     1      35.501 -23.041 -14.876  0.00  0.00    -0.096 S 
BRANCH   3   4
ATOM      4  C   UNL     1      36.026 -24.554 -14.042  0.00  0.00    +0.063 C 
ATOM      5  C   UNL     1      36.208 -25.679 -15.044  0.00  0.00    +0.013 C 
ENDBRANCH   3   4
ENDBRANCH   2   3
BRANCH   1   6
ATOM      6  O   UNL     1      34.558 -23.127 -17.386  0.00  0.00    -0.205 OA
BRANCH   6   7
ATOM      7  S   UNL     1      34.045 -22.619 -18.849  0.00  0.00    +0.302 S 
ATOM      8  O   UNL     1      34.014 -23.998 -19.718  0.00  0.00    -0.103 OA
ATOM      9  O   UNL     1      35.067 -21.761 -19.420  0.00  0.00    -0.011 OA
ATOM     10  O   UNL     1      32.677 -22.152 -18.716  0.00  0.00    -0.103 OA
ENDBRANCH   6   7
ENDBRANCH   1   6
BRANCH   2  11
ATOM     11  C   UNL     1      32.935 -23.760 -14.126  0.00  0.00    +0.082 C 
BRANCH  11  12
ATOM     12  C   UNL     1      31.485 -23.880 -14.524  0.00  0.00    -0.016 C 
ATOM     13  C   UNL     1      30.782 -22.740 -14.886  0.00  0.00    -0.004 C 
ATOM     14  C   UNL     1      30.879 -25.127 -14.521  0.00  0.00    -0.004 C 
ATOM     15  C   UNL     1      29.441 -22.851 -15.253  0.00  0.00    -0.000 C 
ATOM     16  C   UNL     1      29.539 -25.238 -14.889  0.00  0.00    -0.000 C 
ATOM     17  C   UNL     1      28.820 -24.100 -15.254  0.00  0.00    -0.000 C 
ENDBRANCH  11  12
ENDBRANCH   2  11
TORSDOF 6
ENDMDL
MODEL 7
REMARK VINA RESULT:      -7.4      3.826      5.535
REMARK  Name = 9600421
REMARK  6 active torsions:
REMARK  status: ('A' for Active; 'I' for Inactive)
REMARK    1  A    between atoms: N_1  and  O_6
REMARK    2  A    between atoms: C_2  and  S_3
REMARK    3  A    between atoms: C_2  and  C_11
REMARK    4  A    between atoms: S_3  and  C_4
REMARK    5  A    between atoms: O_6  and  S_7
REMARK    6  A    between atoms: C_11  and  C_12
REMARK                            x       y       z     vdW  Elec       q    Type
REMARK                         _______ _______ _______ _____ _____    ______ ____
ROOT
ATOM      1  N   UNL     1      34.296 -24.008 -12.788  0.00  0.00    -0.047 NA
ATOM      2  C   UNL     1      34.361 -23.939 -14.080  0.00  0.00    +0.129 C 
ENDROOT
BRANCH   2   3
ATOM      3  S   UNL     1      35.575 -24.893 -14.938  0.00  0.00    -0.096 S 
BRANCH   3   4
ATOM      4  C   UNL     1      36.967 -23.742 -14.961  0.00  0.00    +0.063 C 
ATOM      5  C   UNL     1      36.861 -22.802 -16.147  0.00  0.00    +0.013 C 
ENDBRANCH   3   4
ENDBRANCH   2   3
BRANCH   1   6
ATOM      6  O   UNL     1      35.264 -24.872 -12.274  0.00  0.00    -0.205 OA
BRANCH   6   7
ATOM      7  S   UNL     1      36.211 -24.125 -11.175  0.00  0.00    +0.302 S 
ATOM      8  O   UNL     1      37.608 -24.960 -11.278  0.00  0.00    -0.103 OA
ATOM      9  O   UNL     1      35.655 -24.360  -9.855  0.00  0.00    -0.011 OA
ATOM     10  O   UNL     1      36.471 -22.775 -11.638  0.00  0.00    -0.103 OA
ENDBRANCH   6   7
ENDBRANCH   1   6
BRANCH   2  11
ATOM     11  C   UNL     1      33.467 -23.100 -14.973  0.00  0.00    +0.082 C 
BRANCH  11  12
ATOM     12  C   UNL     1      32.062 -23.645 -15.060  0.00  0.00    -0.016 C 
ATOM     13  C   UNL     1      31.714 -24.750 -14.298  0.00  0.00    -0.004 C 
ATOM     14  C   UNL     1      31.145 -23.033 -15.900  0.00  0.00    -0.004 C 
ATOM     15  C   UNL     1      30.416 -25.255 -14.379  0.00  0.00    -0.000 C 
ATOM     16  C   UNL     1      29.848 -23.537 -15.980  0.00  0.00    -0.000 C 
ATOM     17  C   UNL     1      29.483 -24.648 -15.219  0.00  0.00    -0.000 C 
ENDBRANCH  11  12
ENDBRANCH   2  11
TORSDOF 6
ENDMDL
MODEL 8
REMARK VINA RESULT:      -7.4      7.055      8.429
REMARK  Name = 9600421
REMARK  6 active torsions:
REMARK  status: ('A' for Active; 'I' for Inactive)
REMARK    1  A    between atoms: N_1  and  O_6
REMARK    2  A    between atoms: C_2  and  S_3
REMARK    3  A    between atoms: C_2  and  C_11
REMARK    4  A    between atoms: S_3  and  C_4
REMARK    5  A    between atoms: O_6  and  S_7
REMARK    6  A    between atoms: C_11  and  C_12
REMARK                            x       y       z     vdW  Elec       q    Type
REMARK                         _______ _______ _______ _____ _____    ______ ____
ROOT
ATOM      1  N   UNL     1      34.522 -18.584 -23.235  0.00  0.00    -0.047 NA
ATOM      2  C   UNL     1      34.162 -18.360 -22.010  0.00  0.00    +0.129 C 
ENDROOT
BRANCH   2   3
ATOM      3  S   UNL     1      34.602 -16.830 -21.244  0.00  0.00    -0.096 S 
BRANCH   3   4
ATOM      4  C   UNL     1      32.982 -16.051 -21.070  0.00  0.00    +0.063 C 
ATOM      5  C   UNL     1      33.133 -14.581 -20.725  0.00  0.00    +0.013 C 
ENDBRANCH   3   4
ENDBRANCH   2   3
BRANCH   1   6
ATOM      6  O   UNL     1      35.245 -17.510 -23.758  0.00  0.00    -0.205 OA
BRANCH   6   7
ATOM      7  S   UNL     1      34.474 -16.830 -25.025  0.00  0.00    +0.302 S 
ATOM      8  O   UNL     1      33.537 -18.047 -25.571  0.00  0.00    -0.103 OA
ATOM      9  O   UNL     1      35.455 -16.535 -26.054  0.00  0.00    -0.011 OA
ATOM     10  O   UNL     1      33.596 -15.791 -24.521  0.00  0.00    -0.103 OA
ENDBRANCH   6   7
ENDBRANCH   1   6
BRANCH   2  11
ATOM     11  C   UNL     1      33.367 -19.305 -21.129  0.00  0.00    +0.082 C 
BRANCH  11  12
ATOM     12  C   UNL     1      34.249 -20.256 -20.359  0.00  0.00    -0.016 C 
ATOM     13  C   UNL     1      35.627 -20.124 -20.442  0.00  0.00    -0.004 C 
ATOM     14  C   UNL     1      33.667 -21.247 -19.584  0.00  0.00    -0.004 C 
ATOM     15  C   UNL     1      36.442 -21.004 -19.731  0.00  0.00    -0.000 C 
ATOM     16  C   UNL     1      34.482 -22.126 -18.872  0.00  0.00    -0.000 C 
ATOM     17  C   UNL     1      35.870 -22.005 -18.946  0.00  0.00    -0.000 C 
ENDBRANCH  11  12
ENDBRANCH   2  11
TORSDOF 6
ENDMDL
MODEL 9
REMARK VINA RESULT:      -7.1      7.903      9.368
REMARK  Name = 9600421
REMARK  6 active torsions:
REMARK  status: ('A' for Active; 'I' for Inactive)
REMARK    1  A    between atoms: N_1  and  O_6
REMARK    2  A    between atoms: C_2  and  S_3
REMARK    3  A    between atoms: C_2  and  C_11
REMARK    4  A    between atoms: S_3  and  C_4
REMARK    5  A    between atoms: O_6  and  S_7
REMARK    6  A    between atoms: C_11  and  C_12
REMARK                            x       y       z     vdW  Elec       q    Type
REMARK                         _______ _______ _______ _____ _____    ______ ____
ROOT
ATOM      1  N   UNL     1      34.790 -15.923 -23.719  0.00  0.00    -0.047 NA
ATOM      2  C   UNL     1      34.998 -16.802 -22.790  0.00  0.00    +0.129 C 
ENDROOT
BRANCH   2   3
ATOM      3  S   UNL     1      34.810 -16.332 -21.097  0.00  0.00    -0.096 S 
BRANCH   3   4
ATOM      4  C   UNL     1      33.015 -16.159 -20.983  0.00  0.00    +0.063 C 
ATOM      5  C   UNL     1      32.650 -14.910 -20.202  0.00  0.00    +0.013 C 
ENDBRANCH   3   4
ENDBRANCH   2   3
BRANCH   1   6
ATOM      6  O   UNL     1      34.441 -14.684 -23.181  0.00  0.00    -0.205 OA
BRANCH   6   7
ATOM      7  S   UNL     1      33.317 -13.929 -24.092  0.00  0.00    +0.302 S 
ATOM      8  O   UNL     1      34.086 -12.568 -24.555  0.00  0.00    -0.103 OA
ATOM      9  O   UNL     1      32.214 -13.541 -23.233  0.00  0.00    -0.011 OA
ATOM     10  O   UNL     1      33.083 -14.728 -25.281  0.00  0.00    -0.103 OA
ENDBRANCH   6   7
ENDBRANCH   1   6
BRANCH   2  11
ATOM     11  C   UNL     1      35.394 -18.250 -23.006  0.00  0.00    +0.082 C 
BRANCH  11  12
ATOM     12  C   UNL     1      34.908 -19.153 -21.900  0.00  0.00    -0.016 C 
ATOM     13  C   UNL     1      35.830 -19.736 -21.043  0.00  0.00    -0.004 C 
ATOM     14  C   UNL     1      33.548 -19.385 -21.758  0.00  0.00    -0.004 C 
ATOM     15  C   UNL     1      35.380 -20.571 -20.021  0.00  0.00    -0.000 C 
ATOM     16  C   UNL     1      33.099 -20.219 -20.736  0.00  0.00    -0.000 C 
ATOM     17  C   UNL     1      34.015 -20.813 -19.867  0.00  0.00    -0.000 C 
ENDBRANCH  11  12
ENDBRANCH   2  11
TORSDOF 6
ENDMDL
