MODEL 1
REMARK VINA RESULT:      -8.9      0.000      0.000
REMARK  Name = 6918140
REMARK  13 active torsions:
REMARK  status: ('A' for Active; 'I' for Inactive)
REMARK    1  A    between atoms: C_3  and  C_22
REMARK    2  A    between atoms: C_4  and  O_14
REMARK    3  A    between atoms: C_10  and  O_16
REMARK    4  A    between atoms: O_16  and  C_17
REMARK    5  A    between atoms: C_17  and  C_19
REMARK    6  A    between atoms: C_19  and  O_20
REMARK    7  A    between atoms: C_22  and  C_23
REMARK    8  A    between atoms: C_23  and  C_24
REMARK    9  A    between atoms: C_24  and  O_25
REMARK   10  A    between atoms: C_24  and  C_27
REMARK   11  A    between atoms: C_27  and  C_28
REMARK   12  A    between atoms: C_28  and  C_29
REMARK   13  A    between atoms: C_29  and  C_30
REMARK                            x       y       z     vdW  Elec       q    Type
REMARK                         _______ _______ _______ _____ _____    ______ ____
ROOT
ATOM      1  C   UNL     1      34.597 -16.492 -21.819  0.00  0.00    +0.007 C 
ATOM      2  C   UNL     1      34.279 -15.027 -21.410  0.00  0.00    +0.007 C 
ATOM      3  C   UNL     1      33.297 -17.282 -21.541  0.00  0.00    +0.027 C 
ATOM      4  C   UNL     1      32.622 -16.479 -20.432  0.00  0.00    +0.110 C 
ATOM      5  C   UNL     1      32.830 -15.047 -20.899  0.00  0.00    +0.030 C 
ATOM      6  C   UNL     1      35.098 -16.660 -23.261  0.00  0.00    +0.026 C 
ATOM      7  C   UNL     1      34.499 -13.979 -22.507  0.00  0.00    +0.029 C 
ATOM      8  C   UNL     1      34.336 -15.791 -24.227  0.00  0.00    -0.023 C 
ATOM      9  C   UNL     1      34.039 -14.469 -23.855  0.00  0.00    +0.008 C 
ATOM     10  C   UNL     1      33.373 -13.628 -24.750  0.00  0.00    +0.135 C 
ATOM     11  C   UNL     1      33.963 -16.258 -25.491  0.00  0.00    -0.004 C 
ATOM     12  C   UNL     1      32.993 -14.104 -26.005  0.00  0.00    +0.037 C 
ATOM     13  C   UNL     1      33.288 -15.416 -26.374  0.00  0.00    +0.003 C 
ENDROOT
BRANCH   4  14
ATOM     14  O   UNL     1      31.247 -16.797 -20.335  0.00  0.00    -0.384 OA
ATOM     15  H   UNL     1      30.802 -16.562 -21.163  0.00  0.00    +0.210 HD
ENDBRANCH   4  14
BRANCH  10  16
ATOM     16  O   UNL     1      33.085 -12.335 -24.428  0.00  0.00    -0.464 OA
BRANCH  16  17
ATOM     17  C   UNL     1      33.916 -11.325 -24.998  0.00  0.00    +0.314 C 
BRANCH  17  19
ATOM     18  O   UNL     1      33.260  -9.778 -23.244  0.00  0.00    -0.246 OA
ATOM     19  C   UNL     1      34.108 -10.207 -24.011  0.00  0.00    +0.359 C 
BRANCH  19  20
ATOM     20  O   UNL     1      35.376  -9.730 -24.087  0.00  0.00    -0.478 OA
ATOM     21  H   UNL     1      35.927  -9.973 -24.804  0.00  0.00    +0.295 HD
ENDBRANCH  19  20
ENDBRANCH  17  19
ENDBRANCH  16  17
ENDBRANCH  10  16
BRANCH   3  22
ATOM     22  C   UNL     1      33.544 -18.733 -21.145  0.00  0.00    +0.005 C 
BRANCH  22  23
ATOM     23  C   UNL     1      35.029 -19.079 -21.004  0.00  0.00    +0.029 C 
BRANCH  23  24
ATOM     24  C   UNL     1      35.304 -20.480 -20.438  0.00  0.00    +0.111 C 
BRANCH  24  25
ATOM     25  O   UNL     1      36.333 -20.401 -19.451  0.00  0.00    -0.384 OA
ATOM     26  H   UNL     1      36.127 -19.689 -18.825  0.00  0.00    +0.210 HD
ENDBRANCH  24  25
BRANCH  24  27
ATOM     27  C   UNL     1      34.072 -21.122 -19.783  0.00  0.00    +0.029 C 
BRANCH  27  28
ATOM     28  C   UNL     1      34.395 -22.365 -18.954  0.00  0.00    +0.002 C 
BRANCH  28  29
ATOM     29  C   UNL     1      33.214 -22.757 -18.061  0.00  0.00    +0.000 C 
BRANCH  29  30
ATOM     30  C   UNL     1      33.691 -23.296 -16.713  0.00  0.00    +0.000 C 
ATOM     31  C   UNL     1      35.146 -22.940 -16.454  0.00  0.00    +0.000 C 
ENDBRANCH  29  30
ENDBRANCH  28  29
ENDBRANCH  27  28
ENDBRANCH  24  27
ENDBRANCH  23  24
ENDBRANCH  22  23
ENDBRANCH   3  22
TORSDOF 13
ENDMDL
MODEL 2
REMARK VINA RESULT:      -8.4      4.402     10.421
REMARK  Name = 6918140
REMARK  13 active torsions:
REMARK  status: ('A' for Active; 'I' for Inactive)
REMARK    1  A    between atoms: C_3  and  C_22
REMARK    2  A    between atoms: C_4  and  O_14
REMARK    3  A    between atoms: C_10  and  O_16
REMARK    4  A    between atoms: O_16  and  C_17
REMARK    5  A    between atoms: C_17  and  C_19
REMARK    6  A    between atoms: C_19  and  O_20
REMARK    7  A    between atoms: C_22  and  C_23
REMARK    8  A    between atoms: C_23  and  C_24
REMARK    9  A    between atoms: C_24  and  O_25
REMARK   10  A    between atoms: C_24  and  C_27
REMARK   11  A    between atoms: C_27  and  C_28
REMARK   12  A    between atoms: C_28  and  C_29
REMARK   13  A    between atoms: C_29  and  C_30
REMARK                            x       y       z     vdW  Elec       q    Type
REMARK                         _______ _______ _______ _____ _____    ______ ____
ROOT
ATOM      1  C   UNL     1      31.116  -9.551 -21.451  0.00  0.00    +0.007 C 
ATOM      2  C   UNL     1      30.787 -10.978 -20.932  0.00  0.00    +0.007 C 
ATOM      3  C   UNL     1      32.207  -9.013 -20.496  0.00  0.00    +0.027 C 
ATOM      4  C   UNL     1      31.951  -9.775 -19.198  0.00  0.00    +0.110 C 
ATOM      5  C   UNL     1      31.682 -11.184 -19.700  0.00  0.00    +0.030 C 
ATOM      6  C   UNL     1      31.532  -9.486 -22.928  0.00  0.00    +0.026 C 
ATOM      7  C   UNL     1      30.944 -12.101 -21.965  0.00  0.00    +0.029 C 
ATOM      8  C   UNL     1      32.453 -10.618 -23.303  0.00  0.00    -0.023 C 
ATOM      9  C   UNL     1      32.163 -11.908 -22.827  0.00  0.00    +0.008 C 
ATOM     10  C   UNL     1      32.974 -12.984 -23.198  0.00  0.00    +0.135 C 
ATOM     11  C   UNL     1      33.551 -10.418 -24.145  0.00  0.00    -0.004 C 
ATOM     12  C   UNL     1      34.076 -12.775 -24.027  0.00  0.00    +0.037 C 
ATOM     13  C   UNL     1      34.363 -11.494 -24.500  0.00  0.00    +0.003 C 
ENDROOT
BRANCH   4  14
ATOM     14  O   UNL     1      33.083  -9.735 -18.351  0.00  0.00    -0.384 OA
ATOM     15  H   UNL     1      33.333 -10.638 -18.103  0.00  0.00    +0.210 HD
ENDBRANCH   4  14
BRANCH  10  16
ATOM     16  O   UNL     1      32.711 -14.251 -22.769  0.00  0.00    -0.464 OA
BRANCH  16  17
ATOM     17  C   UNL     1      33.828 -15.046 -22.376  0.00  0.00    +0.314 C 
BRANCH  17  19
ATOM     18  O   UNL     1      34.916 -15.366 -20.228  0.00  0.00    -0.246 OA
ATOM     19  C   UNL     1      33.918 -15.091 -20.876  0.00  0.00    +0.359 C 
BRANCH  19  20
ATOM     20  O   UNL     1      32.718 -14.778 -20.325  0.00  0.00    -0.478 OA
ATOM     21  H   UNL     1      32.356 -15.317 -19.651  0.00  0.00    +0.295 HD
ENDBRANCH  19  20
ENDBRANCH  17  19
ENDBRANCH  16  17
ENDBRANCH  10  16
BRANCH   3  22
ATOM     22  C   UNL     1      32.154  -7.501 -20.306  0.00  0.00    +0.005 C 
BRANCH  22  23
ATOM     23  C   UNL     1      32.362  -6.720 -21.607  0.00  0.00    +0.029 C 
BRANCH  23  24
ATOM     24  C   UNL     1      31.113  -5.980 -22.111  0.00  0.00    +0.111 C 
BRANCH  24  25
ATOM     25  O   UNL     1      30.740  -4.978 -21.165  0.00  0.00    -0.384 OA
ATOM     26  H   UNL     1      29.830  -4.690 -21.341  0.00  0.00    +0.210 HD
ENDBRANCH  24  25
BRANCH  24  27
ATOM     27  C   UNL     1      31.323  -5.293 -23.468  0.00  0.00    +0.029 C 
BRANCH  27  28
ATOM     28  C   UNL     1      31.974  -6.194 -24.518  0.00  0.00    +0.002 C 
BRANCH  28  29
ATOM     29  C   UNL     1      32.836  -5.380 -25.487  0.00  0.00    +0.000 C 
BRANCH  29  30
ATOM     30  C   UNL     1      34.236  -5.979 -25.623  0.00  0.00    +0.000 C 
ATOM     31  C   UNL     1      34.539  -6.948 -24.493  0.00  0.00    +0.000 C 
ENDBRANCH  29  30
ENDBRANCH  28  29
ENDBRANCH  27  28
ENDBRANCH  24  27
ENDBRANCH  23  24
ENDBRANCH  22  23
ENDBRANCH   3  22
TORSDOF 13
ENDMDL
MODEL 3
REMARK VINA RESULT:      -8.4      3.133      9.782
REMARK  Name = 6918140
REMARK  13 active torsions:
REMARK  status: ('A' for Active; 'I' for Inactive)
REMARK    1  A    between atoms: C_3  and  C_22
REMARK    2  A    between atoms: C_4  and  O_14
REMARK    3  A    between atoms: C_10  and  O_16
REMARK    4  A    between atoms: O_16  and  C_17
REMARK    5  A    between atoms: C_17  and  C_19
REMARK    6  A    between atoms: C_19  and  O_20
REMARK    7  A    between atoms: C_22  and  C_23
REMARK    8  A    between atoms: C_23  and  C_24
REMARK    9  A    between atoms: C_24  and  O_25
REMARK   10  A    between atoms: C_24  and  C_27
REMARK   11  A    between atoms: C_27  and  C_28
REMARK   12  A    between atoms: C_28  and  C_29
REMARK   13  A    between atoms: C_29  and  C_30
REMARK                            x       y       z     vdW  Elec       q    Type
REMARK                         _______ _______ _______ _____ _____    ______ ____
ROOT
ATOM      1  C   UNL     1      35.266 -21.140 -20.807  0.00  0.00    +0.007 C 
ATOM      2  C   UNL     1      33.940 -21.855 -20.426  0.00  0.00    +0.007 C 
ATOM      3  C   UNL     1      34.978 -19.631 -20.635  0.00  0.00    +0.027 C 
ATOM      4  C   UNL     1      33.470 -19.529 -20.850  0.00  0.00    +0.110 C 
ATOM      5  C   UNL     1      32.953 -20.731 -20.076  0.00  0.00    +0.030 C 
ATOM      6  C   UNL     1      36.496 -21.606 -20.014  0.00  0.00    +0.026 C 
ATOM      7  C   UNL     1      34.058 -22.901 -19.310  0.00  0.00    +0.029 C 
ATOM      8  C   UNL     1      36.181 -21.809 -18.555  0.00  0.00    -0.023 C 
ATOM      9  C   UNL     1      34.978 -22.446 -18.208  0.00  0.00    +0.008 C 
ATOM     10  C   UNL     1      34.683 -22.688 -16.863  0.00  0.00    +0.135 C 
ATOM     11  C   UNL     1      37.076 -21.420 -17.553  0.00  0.00    -0.004 C 
ATOM     12  C   UNL     1      35.573 -22.286 -15.869  0.00  0.00    +0.037 C 
ATOM     13  C   UNL     1      36.768 -21.654 -16.214  0.00  0.00    +0.003 C 
ENDROOT
BRANCH   4  14
ATOM     14  O   UNL     1      32.960 -18.318 -20.327  0.00  0.00    -0.384 OA
ATOM     15  H   UNL     1      33.358 -18.147 -19.459  0.00  0.00    +0.210 HD
ENDBRANCH   4  14
BRANCH  10  16
ATOM     16  O   UNL     1      33.532 -23.320 -16.492  0.00  0.00    -0.464 OA
BRANCH  16  17
ATOM     17  C   UNL     1      33.419 -23.709 -15.125  0.00  0.00    +0.314 C 
BRANCH  17  19
ATOM     18  O   UNL     1      31.219 -22.679 -15.143  0.00  0.00    -0.246 OA
ATOM     19  C   UNL     1      32.185 -23.097 -14.523  0.00  0.00    +0.359 C 
BRANCH  19  20
ATOM     20  O   UNL     1      32.287 -23.071 -13.170  0.00  0.00    -0.478 OA
ATOM     21  H   UNL     1      32.976 -22.587 -12.762  0.00  0.00    +0.295 HD
ENDBRANCH  19  20
ENDBRANCH  17  19
ENDBRANCH  16  17
ENDBRANCH  10  16
BRANCH   3  22
ATOM     22  C   UNL     1      35.767 -18.750 -21.597  0.00  0.00    +0.005 C 
BRANCH  22  23
ATOM     23  C   UNL     1      35.049 -18.514 -22.929  0.00  0.00    +0.029 C 
BRANCH  23  24
ATOM     24  C   UNL     1      35.216 -17.097 -23.498  0.00  0.00    +0.111 C 
BRANCH  24  25
ATOM     25  O   UNL     1      35.227 -17.156 -24.925  0.00  0.00    -0.384 OA
ATOM     26  H   UNL     1      35.004 -16.283 -25.286  0.00  0.00    +0.210 HD
ENDBRANCH  24  25
BRANCH  24  27
ATOM     27  C   UNL     1      34.094 -16.138 -23.075  0.00  0.00    +0.029 C 
BRANCH  27  28
ATOM     28  C   UNL     1      34.589 -14.925 -22.285  0.00  0.00    +0.002 C 
BRANCH  28  29
ATOM     29  C   UNL     1      34.371 -15.118 -20.782  0.00  0.00    +0.000 C 
BRANCH  29  30
ATOM     30  C   UNL     1      32.914 -14.866 -20.394  0.00  0.00    +0.000 C 
ATOM     31  C   UNL     1      32.413 -13.542 -20.945  0.00  0.00    +0.000 C 
ENDBRANCH  29  30
ENDBRANCH  28  29
ENDBRANCH  27  28
ENDBRANCH  24  27
ENDBRANCH  23  24
ENDBRANCH  22  23
ENDBRANCH   3  22
TORSDOF 13
ENDMDL
MODEL 4
REMARK VINA RESULT:      -8.2      2.047      8.394
REMARK  Name = 6918140
REMARK  13 active torsions:
REMARK  status: ('A' for Active; 'I' for Inactive)
REMARK    1  A    between atoms: C_3  and  C_22
REMARK    2  A    between atoms: C_4  and  O_14
REMARK    3  A    between atoms: C_10  and  O_16
REMARK    4  A    between atoms: O_16  and  C_17
REMARK    5  A    between atoms: C_17  and  C_19
REMARK    6  A    between atoms: C_19  and  O_20
REMARK    7  A    between atoms: C_22  and  C_23
REMARK    8  A    between atoms: C_23  and  C_24
REMARK    9  A    between atoms: C_24  and  O_25
REMARK   10  A    between atoms: C_24  and  C_27
REMARK   11  A    between atoms: C_27  and  C_28
REMARK   12  A    between atoms: C_28  and  C_29
REMARK   13  A    between atoms: C_29  and  C_30
REMARK                            x       y       z     vdW  Elec       q    Type
REMARK                         _______ _______ _______ _____ _____    ______ ____
ROOT
ATOM      1  C   UNL     1      34.422 -14.487 -23.666  0.00  0.00    +0.007 C 
ATOM      2  C   UNL     1      35.100 -15.835 -24.041  0.00  0.00    +0.007 C 
ATOM      3  C   UNL     1      33.205 -14.369 -24.613  0.00  0.00    +0.027 C 
ATOM      4  C   UNL     1      33.619 -15.191 -25.830  0.00  0.00    +0.110 C 
ATOM      5  C   UNL     1      34.261 -16.412 -25.191  0.00  0.00    +0.030 C 
ATOM      6  C   UNL     1      34.040 -14.353 -22.185  0.00  0.00    +0.026 C 
ATOM      7  C   UNL     1      35.269 -16.826 -22.883  0.00  0.00    +0.029 C 
ATOM      8  C   UNL     1      33.458 -15.629 -21.636  0.00  0.00    -0.023 C 
ATOM      9  C   UNL     1      34.064 -16.849 -21.981  0.00  0.00    +0.008 C 
ATOM     10  C   UNL     1      33.573 -18.044 -21.448  0.00  0.00    +0.135 C 
ATOM     11  C   UNL     1      32.367 -15.618 -20.761  0.00  0.00    -0.004 C 
ATOM     12  C   UNL     1      32.476 -18.026 -20.587  0.00  0.00    +0.037 C 
ATOM     13  C   UNL     1      31.875 -16.815 -20.244  0.00  0.00    +0.003 C 
ENDROOT
BRANCH   4  14
ATOM     14  O   UNL     1      32.495 -15.548 -26.612  0.00  0.00    -0.384 OA
ATOM     15  H   UNL     1      31.866 -16.043 -26.066  0.00  0.00    +0.210 HD
ENDBRANCH   4  14
BRANCH  10  16
ATOM     16  O   UNL     1      34.148 -19.244 -21.748  0.00  0.00    -0.464 OA
BRANCH  16  17
ATOM     17  C   UNL     1      34.351 -20.152 -20.668  0.00  0.00    +0.314 C 
BRANCH  17  19
ATOM     18  O   UNL     1      36.618 -19.357 -20.308  0.00  0.00    -0.246 OA
ATOM     19  C   UNL     1      35.822 -20.280 -20.381  0.00  0.00    +0.359 C 
BRANCH  19  20
ATOM     20  O   UNL     1      36.153 -21.584 -20.208  0.00  0.00    -0.478 OA
ATOM     21  H   UNL     1      36.902 -21.939 -20.643  0.00  0.00    +0.295 HD
ENDBRANCH  19  20
ENDBRANCH  17  19
ENDBRANCH  16  17
ENDBRANCH  10  16
BRANCH   3  22
ATOM     22  C   UNL     1      32.855 -12.929 -24.971  0.00  0.00    +0.005 C 
BRANCH  22  23
ATOM     23  C   UNL     1      34.069 -11.996 -24.987  0.00  0.00    +0.029 C 
BRANCH  23  24
ATOM     24  C   UNL     1      34.077 -10.945 -23.867  0.00  0.00    +0.111 C 
BRANCH  24  25
ATOM     25  O   UNL     1      35.141 -10.019 -24.090  0.00  0.00    -0.384 OA
ATOM     26  H   UNL     1      34.906  -9.427 -24.822  0.00  0.00    +0.210 HD
ENDBRANCH  24  25
BRANCH  24  27
ATOM     27  C   UNL     1      32.769 -10.146 -23.776  0.00  0.00    +0.029 C 
BRANCH  27  28
ATOM     28  C   UNL     1      32.215 -10.033 -22.355  0.00  0.00    +0.002 C 
BRANCH  28  29
ATOM     29  C   UNL     1      31.239 -11.173 -22.050  0.00  0.00    +0.000 C 
BRANCH  29  30
ATOM     30  C   UNL     1      31.607 -11.885 -20.748  0.00  0.00    +0.000 C 
ATOM     31  C   UNL     1      31.455 -10.965 -19.548  0.00  0.00    +0.000 C 
ENDBRANCH  29  30
ENDBRANCH  28  29
ENDBRANCH  27  28
ENDBRANCH  24  27
ENDBRANCH  23  24
ENDBRANCH  22  23
ENDBRANCH   3  22
TORSDOF 13
ENDMDL
MODEL 5
REMARK VINA RESULT:      -8.1      2.892     10.093
REMARK  Name = 6918140
REMARK  13 active torsions:
REMARK  status: ('A' for Active; 'I' for Inactive)
REMARK    1  A    between atoms: C_3  and  C_22
REMARK    2  A    between atoms: C_4  and  O_14
REMARK    3  A    between atoms: C_10  and  O_16
REMARK    4  A    between atoms: O_16  and  C_17
REMARK    5  A    between atoms: C_17  and  C_19
REMARK    6  A    between atoms: C_19  and  O_20
REMARK    7  A    between atoms: C_22  and  C_23
REMARK    8  A    between atoms: C_23  and  C_24
REMARK    9  A    between atoms: C_24  and  O_25
REMARK   10  A    between atoms: C_24  and  C_27
REMARK   11  A    between atoms: C_27  and  C_28
REMARK   12  A    between atoms: C_28  and  C_29
REMARK   13  A    between atoms: C_29  and  C_30
REMARK                            x       y       z     vdW  Elec       q    Type
REMARK                         _______ _______ _______ _____ _____    ______ ____
ROOT
ATOM      1  C   UNL     1      34.909 -21.355 -20.714  0.00  0.00    +0.007 C 
ATOM      2  C   UNL     1      33.707 -22.175 -20.165  0.00  0.00    +0.007 C 
ATOM      3  C   UNL     1      34.490 -19.874 -20.564  0.00  0.00    +0.027 C 
ATOM      4  C   UNL     1      32.966 -19.926 -20.618  0.00  0.00    +0.110 C 
ATOM      5  C   UNL     1      32.655 -21.135 -19.750  0.00  0.00    +0.030 C 
ATOM      6  C   UNL     1      36.255 -21.664 -20.043  0.00  0.00    +0.026 C 
ATOM      7  C   UNL     1      34.046 -23.152 -19.033  0.00  0.00    +0.029 C 
ATOM      8  C   UNL     1      36.116 -21.829 -18.552  0.00  0.00    -0.023 C 
ATOM      9  C   UNL     1      35.026 -22.562 -18.054  0.00  0.00    +0.008 C 
ATOM     10  C   UNL     1      34.899 -22.769 -16.678  0.00  0.00    +0.135 C 
ATOM     11  C   UNL     1      37.068 -21.311 -17.668  0.00  0.00    -0.004 C 
ATOM     12  C   UNL     1      35.845 -22.238 -15.801  0.00  0.00    +0.037 C 
ATOM     13  C   UNL     1      36.927 -21.511 -16.296  0.00  0.00    +0.003 C 
ENDROOT
BRANCH   4  14
ATOM     14  O   UNL     1      32.394 -18.747 -20.085  0.00  0.00    -0.384 OA
ATOM     15  H   UNL     1      32.904 -17.978 -20.382  0.00  0.00    +0.210 HD
ENDBRANCH   4  14
BRANCH  10  16
ATOM     16  O   UNL     1      33.863 -23.490 -16.162  0.00  0.00    -0.464 OA
BRANCH  16  17
ATOM     17  C   UNL     1      34.057 -24.071 -14.874  0.00  0.00    +0.314 C 
BRANCH  17  19
ATOM     18  O   UNL     1      31.899 -23.164 -14.225  0.00  0.00    -0.246 OA
ATOM     19  C   UNL     1      32.778 -24.000 -14.086  0.00  0.00    +0.359 C 
BRANCH  19  20
ATOM     20  O   UNL     1      32.730 -25.009 -13.181  0.00  0.00    -0.478 OA
ATOM     21  H   UNL     1      31.921 -25.223 -12.760  0.00  0.00    +0.295 HD
ENDBRANCH  19  20
ENDBRANCH  17  19
ENDBRANCH  16  17
ENDBRANCH  10  16
BRANCH   3  22
ATOM     22  C   UNL     1      35.082 -18.966 -21.637  0.00  0.00    +0.005 C 
BRANCH  22  23
ATOM     23  C   UNL     1      35.576 -17.624 -21.091  0.00  0.00    +0.029 C 
BRANCH  23  24
ATOM     24  C   UNL     1      34.664 -16.431 -21.414  0.00  0.00    +0.111 C 
BRANCH  24  25
ATOM     25  O   UNL     1      34.808 -15.433 -20.403  0.00  0.00    -0.384 OA
ATOM     26  H   UNL     1      34.943 -15.862 -19.543  0.00  0.00    +0.210 HD
ENDBRANCH  24  25
BRANCH  24  27
ATOM     27  C   UNL     1      34.977 -15.779 -22.769  0.00  0.00    +0.029 C 
BRANCH  27  28
ATOM     28  C   UNL     1      33.738 -15.519 -23.627  0.00  0.00    +0.002 C 
BRANCH  28  29
ATOM     29  C   UNL     1      33.936 -16.036 -25.054  0.00  0.00    +0.000 C 
BRANCH  29  30
ATOM     30  C   UNL     1      34.907 -17.216 -25.089  0.00  0.00    +0.000 C 
ATOM     31  C   UNL     1      34.170 -18.545 -25.090  0.00  0.00    +0.000 C 
ENDBRANCH  29  30
ENDBRANCH  28  29
ENDBRANCH  27  28
ENDBRANCH  24  27
ENDBRANCH  23  24
ENDBRANCH  22  23
ENDBRANCH   3  22
TORSDOF 13
ENDMDL
MODEL 6
REMARK VINA RESULT:      -8.1      2.968      5.804
REMARK  Name = 6918140
REMARK  13 active torsions:
REMARK  status: ('A' for Active; 'I' for Inactive)
REMARK    1  A    between atoms: C_3  and  C_22
REMARK    2  A    between atoms: C_4  and  O_14
REMARK    3  A    between atoms: C_10  and  O_16
REMARK    4  A    between atoms: O_16  and  C_17
REMARK    5  A    between atoms: C_17  and  C_19
REMARK    6  A    between atoms: C_19  and  O_20
REMARK    7  A    between atoms: C_22  and  C_23
REMARK    8  A    between atoms: C_23  and  C_24
REMARK    9  A    between atoms: C_24  and  O_25
REMARK   10  A    between atoms: C_24  and  C_27
REMARK   11  A    between atoms: C_27  and  C_28
REMARK   12  A    between atoms: C_28  and  C_29
REMARK   13  A    between atoms: C_29  and  C_30
REMARK                            x       y       z     vdW  Elec       q    Type
REMARK                         _______ _______ _______ _____ _____    ______ ____
ROOT
ATOM      1  C   UNL     1      31.642 -12.971 -21.538  0.00  0.00    +0.007 C 
ATOM      2  C   UNL     1      31.737 -12.263 -22.918  0.00  0.00    +0.007 C 
ATOM      3  C   UNL     1      33.065 -13.507 -21.257  0.00  0.00    +0.027 C 
ATOM      4  C   UNL     1      33.654 -13.699 -22.652  0.00  0.00    +0.110 C 
ATOM      5  C   UNL     1      33.194 -12.442 -23.372  0.00  0.00    +0.030 C 
ATOM      6  C   UNL     1      31.103 -12.090 -20.401  0.00  0.00    +0.026 C 
ATOM      7  C   UNL     1      31.295 -10.794 -22.931  0.00  0.00    +0.029 C 
ATOM      8  C   UNL     1      31.665 -10.693 -20.457  0.00  0.00    -0.023 C 
ATOM      9  C   UNL     1      31.761 -10.055 -21.704  0.00  0.00    +0.008 C 
ATOM     10  C   UNL     1      32.236  -8.743 -21.779  0.00  0.00    +0.135 C 
ATOM     11  C   UNL     1      32.045 -10.013 -19.296  0.00  0.00    -0.004 C 
ATOM     12  C   UNL     1      32.626  -8.074 -20.619  0.00  0.00    +0.037 C 
ATOM     13  C   UNL     1      32.530  -8.708 -19.380  0.00  0.00    +0.003 C 
ENDROOT
BRANCH   4  14
ATOM     14  O   UNL     1      35.066 -13.779 -22.604  0.00  0.00    -0.384 OA
ATOM     15  H   UNL     1      35.397 -13.219 -21.885  0.00  0.00    +0.210 HD
ENDBRANCH   4  14
BRANCH  10  16
ATOM     16  O   UNL     1      32.325  -8.087 -22.971  0.00  0.00    -0.464 OA
BRANCH  16  17
ATOM     17  C   UNL     1      33.271  -7.023 -23.055  0.00  0.00    +0.314 C 
BRANCH  17  19
ATOM     18  O   UNL     1      35.132  -8.449 -23.691  0.00  0.00    -0.246 OA
ATOM     19  C   UNL     1      34.450  -7.455 -23.883  0.00  0.00    +0.359 C 
BRANCH  19  20
ATOM     20  O   UNL     1      34.658  -6.575 -24.895  0.00  0.00    -0.478 OA
ATOM     21  H   UNL     1      35.456  -6.603 -25.384  0.00  0.00    +0.295 HD
ENDBRANCH  19  20
ENDBRANCH  17  19
ENDBRANCH  16  17
ENDBRANCH  10  16
BRANCH   3  22
ATOM     22  C   UNL     1      33.077 -14.791 -20.435  0.00  0.00    +0.005 C 
BRANCH  22  23
ATOM     23  C   UNL     1      33.027 -16.059 -21.292  0.00  0.00    +0.029 C 
BRANCH  23  24
ATOM     24  C   UNL     1      34.334 -16.866 -21.311  0.00  0.00    +0.111 C 
BRANCH  24  25
ATOM     25  O   UNL     1      35.178 -16.430 -20.245  0.00  0.00    -0.384 OA
ATOM     26  H   UNL     1      36.082 -16.748 -20.397  0.00  0.00    +0.210 HD
ENDBRANCH  24  25
BRANCH  24  27
ATOM     27  C   UNL     1      34.116 -18.377 -21.152  0.00  0.00    +0.029 C 
BRANCH  27  28
ATOM     28  C   UNL     1      34.504 -19.187 -22.390  0.00  0.00    +0.002 C 
BRANCH  28  29
ATOM     29  C   UNL     1      35.325 -18.344 -23.368  0.00  0.00    +0.000 C 
BRANCH  29  30
ATOM     30  C   UNL     1      34.609 -18.195 -24.711  0.00  0.00    +0.000 C 
ATOM     31  C   UNL     1      34.539 -16.740 -25.145  0.00  0.00    +0.000 C 
ENDBRANCH  29  30
ENDBRANCH  28  29
ENDBRANCH  27  28
ENDBRANCH  24  27
ENDBRANCH  23  24
ENDBRANCH  22  23
ENDBRANCH   3  22
TORSDOF 13
ENDMDL
MODEL 7
REMARK VINA RESULT:      -8.1      4.851     10.798
REMARK  Name = 6918140
REMARK  13 active torsions:
REMARK  status: ('A' for Active; 'I' for Inactive)
REMARK    1  A    between atoms: C_3  and  C_22
REMARK    2  A    between atoms: C_4  and  O_14
REMARK    3  A    between atoms: C_10  and  O_16
REMARK    4  A    between atoms: O_16  and  C_17
REMARK    5  A    between atoms: C_17  and  C_19
REMARK    6  A    between atoms: C_19  and  O_20
REMARK    7  A    between atoms: C_22  and  C_23
REMARK    8  A    between atoms: C_23  and  C_24
REMARK    9  A    between atoms: C_24  and  O_25
REMARK   10  A    between atoms: C_24  and  C_27
REMARK   11  A    between atoms: C_27  and  C_28
REMARK   12  A    between atoms: C_28  and  C_29
REMARK   13  A    between atoms: C_29  and  C_30
REMARK                            x       y       z     vdW  Elec       q    Type
REMARK                         _______ _______ _______ _____ _____    ______ ____
ROOT
ATOM      1  C   UNL     1      31.182  -9.256 -21.683  0.00  0.00    +0.007 C 
ATOM      2  C   UNL     1      30.921 -10.760 -21.389  0.00  0.00    +0.007 C 
ATOM      3  C   UNL     1      32.172  -8.795 -20.590  0.00  0.00    +0.027 C 
ATOM      4  C   UNL     1      31.891  -9.746 -19.430  0.00  0.00    +0.110 C 
ATOM      5  C   UNL     1      31.751 -11.084 -20.138  0.00  0.00    +0.030 C 
ATOM      6  C   UNL     1      31.682  -8.958 -23.104  0.00  0.00    +0.026 C 
ATOM      7  C   UNL     1      31.217 -11.714 -22.553  0.00  0.00    +0.029 C 
ATOM      8  C   UNL     1      32.699  -9.969 -23.566  0.00  0.00    -0.023 C 
ATOM      9  C   UNL     1      32.470 -11.327 -23.293  0.00  0.00    +0.008 C 
ATOM     10  C   UNL     1      33.375 -12.290 -23.751  0.00  0.00    +0.135 C 
ATOM     11  C   UNL     1      33.830  -9.586 -24.294  0.00  0.00    -0.004 C 
ATOM     12  C   UNL     1      34.508 -11.900 -24.465  0.00  0.00    +0.037 C 
ATOM     13  C   UNL     1      34.734 -10.551 -24.736  0.00  0.00    +0.003 C 
ENDROOT
BRANCH   4  14
ATOM     14  O   UNL     1      32.965  -9.759 -18.508  0.00  0.00    -0.384 OA
ATOM     15  H   UNL     1      32.618  -9.876 -17.610  0.00  0.00    +0.210 HD
ENDBRANCH   4  14
BRANCH  10  16
ATOM     16  O   UNL     1      33.174 -13.619 -23.519  0.00  0.00    -0.464 OA
BRANCH  16  17
ATOM     17  C   UNL     1      34.270 -14.353 -22.978  0.00  0.00    +0.314 C 
BRANCH  17  19
ATOM     18  O   UNL     1      33.795 -16.004 -24.696  0.00  0.00    -0.246 OA
ATOM     19  C   UNL     1      34.524 -15.577 -23.814  0.00  0.00    +0.359 C 
BRANCH  19  20
ATOM     20  O   UNL     1      35.696 -16.157 -23.451  0.00  0.00    -0.478 OA
ATOM     21  H   UNL     1      36.335 -15.664 -22.975  0.00  0.00    +0.295 HD
ENDBRANCH  19  20
ENDBRANCH  17  19
ENDBRANCH  16  17
ENDBRANCH  10  16
BRANCH   3  22
ATOM     22  C   UNL     1      32.004  -7.331 -20.198  0.00  0.00    +0.005 C 
BRANCH  22  23
ATOM     23  C   UNL     1      32.362  -6.357 -21.325  0.00  0.00    +0.029 C 
BRANCH  23  24
ATOM     24  C   UNL     1      31.152  -5.710 -22.015  0.00  0.00    +0.111 C 
BRANCH  24  25
ATOM     25  O   UNL     1      30.423  -4.931 -21.065  0.00  0.00    -0.384 OA
ATOM     26  H   UNL     1      30.618  -5.249 -20.169  0.00  0.00    +0.210 HD
ENDBRANCH  24  25
BRANCH  24  27
ATOM     27  C   UNL     1      31.539  -4.790 -23.181  0.00  0.00    +0.029 C 
BRANCH  27  28
ATOM     28  C   UNL     1      31.634  -5.511 -24.527  0.00  0.00    +0.002 C 
BRANCH  28  29
ATOM     29  C   UNL     1      33.079  -5.907 -24.841  0.00  0.00    +0.000 C 
BRANCH  29  30
ATOM     30  C   UNL     1      33.517  -5.375 -26.206  0.00  0.00    +0.000 C 
ATOM     31  C   UNL     1      32.597  -4.268 -26.692  0.00  0.00    +0.000 C 
ENDBRANCH  29  30
ENDBRANCH  28  29
ENDBRANCH  27  28
ENDBRANCH  24  27
ENDBRANCH  23  24
ENDBRANCH  22  23
ENDBRANCH   3  22
TORSDOF 13
ENDMDL
MODEL 8
REMARK VINA RESULT:      -7.9      2.284      4.068
REMARK  Name = 6918140
REMARK  13 active torsions:
REMARK  status: ('A' for Active; 'I' for Inactive)
REMARK    1  A    between atoms: C_3  and  C_22
REMARK    2  A    between atoms: C_4  and  O_14
REMARK    3  A    between atoms: C_10  and  O_16
REMARK    4  A    between atoms: O_16  and  C_17
REMARK    5  A    between atoms: C_17  and  C_19
REMARK    6  A    between atoms: C_19  and  O_20
REMARK    7  A    between atoms: C_22  and  C_23
REMARK    8  A    between atoms: C_23  and  C_24
REMARK    9  A    between atoms: C_24  and  O_25
REMARK   10  A    between atoms: C_24  and  C_27
REMARK   11  A    between atoms: C_27  and  C_28
REMARK   12  A    between atoms: C_28  and  C_29
REMARK   13  A    between atoms: C_29  and  C_30
REMARK                            x       y       z     vdW  Elec       q    Type
REMARK                         _______ _______ _______ _____ _____    ______ ____
ROOT
ATOM      1  C   UNL     1      34.651 -19.082 -21.787  0.00  0.00    +0.007 C 
ATOM      2  C   UNL     1      34.987 -18.625 -23.234  0.00  0.00    +0.007 C 
ATOM      3  C   UNL     1      35.990 -19.008 -21.017  0.00  0.00    +0.027 C 
ATOM      4  C   UNL     1      37.040 -19.198 -22.108  0.00  0.00    +0.110 C 
ATOM      5  C   UNL     1      36.496 -18.332 -23.233  0.00  0.00    +0.030 C 
ATOM      6  C   UNL     1      33.528 -18.286 -21.108  0.00  0.00    +0.026 C 
ATOM      7  C   UNL     1      34.161 -17.443 -23.755  0.00  0.00    +0.029 C 
ATOM      8  C   UNL     1      33.635 -16.809 -21.390  0.00  0.00    -0.023 C 
ATOM      9  C   UNL     1      33.949 -16.394 -22.695  0.00  0.00    +0.008 C 
ATOM     10  C   UNL     1      34.009 -15.030 -22.994  0.00  0.00    +0.135 C 
ATOM     11  C   UNL     1      33.385 -15.857 -20.398  0.00  0.00    -0.004 C 
ATOM     12  C   UNL     1      33.772 -14.085 -21.996  0.00  0.00    +0.037 C 
ATOM     13  C   UNL     1      33.460 -14.498 -20.701  0.00  0.00    +0.003 C 
ENDROOT
BRANCH   4  14
ATOM     14  O   UNL     1      38.310 -18.748 -21.678  0.00  0.00    -0.384 OA
ATOM     15  H   UNL     1      38.421 -17.815 -21.916  0.00  0.00    +0.210 HD
ENDBRANCH   4  14
BRANCH  10  16
ATOM     16  O   UNL     1      34.293 -14.592 -24.254  0.00  0.00    -0.464 OA
BRANCH  16  17
ATOM     17  C   UNL     1      33.200 -14.114 -25.034  0.00  0.00    +0.314 C 
BRANCH  17  19
ATOM     18  O   UNL     1      32.794 -15.947 -26.576  0.00  0.00    -0.246 OA
ATOM     19  C   UNL     1      33.184 -14.809 -26.368  0.00  0.00    +0.359 C 
BRANCH  19  20
ATOM     20  O   UNL     1      33.669 -13.985 -27.331  0.00  0.00    -0.478 OA
ATOM     21  H   UNL     1      33.110 -13.691 -28.021  0.00  0.00    +0.295 HD
ENDBRANCH  19  20
ENDBRANCH  17  19
ENDBRANCH  16  17
ENDBRANCH  10  16
BRANCH   3  22
ATOM     22  C   UNL     1      36.107 -20.045 -19.906  0.00  0.00    +0.005 C 
BRANCH  22  23
ATOM     23  C   UNL     1      35.292 -21.314 -20.172  0.00  0.00    +0.029 C 
BRANCH  23  24
ATOM     24  C   UNL     1      34.105 -21.518 -19.220  0.00  0.00    +0.111 C 
BRANCH  24  25
ATOM     25  O   UNL     1      32.974 -21.980 -19.960  0.00  0.00    -0.384 OA
ATOM     26  H   UNL     1      33.268 -22.606 -20.641  0.00  0.00    +0.210 HD
ENDBRANCH  24  25
BRANCH  24  27
ATOM     27  C   UNL     1      34.388 -22.539 -18.108  0.00  0.00    +0.029 C 
BRANCH  27  28
ATOM     28  C   UNL     1      33.126 -23.154 -17.502  0.00  0.00    +0.002 C 
BRANCH  28  29
ATOM     29  C   UNL     1      33.303 -23.416 -16.004  0.00  0.00    +0.000 C 
BRANCH  29  30
ATOM     30  C   UNL     1      32.015 -23.126 -15.234  0.00  0.00    +0.000 C 
ATOM     31  C   UNL     1      30.820 -23.019 -16.167  0.00  0.00    +0.000 C 
ENDBRANCH  29  30
ENDBRANCH  28  29
ENDBRANCH  27  28
ENDBRANCH  24  27
ENDBRANCH  23  24
ENDBRANCH  22  23
ENDBRANCH   3  22
TORSDOF 13
ENDMDL
MODEL 9
REMARK VINA RESULT:      -7.9      3.840      7.539
REMARK  Name = 6918140
REMARK  13 active torsions:
REMARK  status: ('A' for Active; 'I' for Inactive)
REMARK    1  A    between atoms: C_3  and  C_22
REMARK    2  A    between atoms: C_4  and  O_14
REMARK    3  A    between atoms: C_10  and  O_16
REMARK    4  A    between atoms: O_16  and  C_17
REMARK    5  A    between atoms: C_17  and  C_19
REMARK    6  A    between atoms: C_19  and  O_20
REMARK    7  A    between atoms: C_22  and  C_23
REMARK    8  A    between atoms: C_23  and  C_24
REMARK    9  A    between atoms: C_24  and  O_25
REMARK   10  A    between atoms: C_24  and  C_27
REMARK   11  A    between atoms: C_27  and  C_28
REMARK   12  A    between atoms: C_28  and  C_29
REMARK   13  A    between atoms: C_29  and  C_30
REMARK                            x       y       z     vdW  Elec       q    Type
REMARK                         _______ _______ _______ _____ _____    ______ ____
ROOT
ATOM      1  C   UNL     1      32.238 -10.856 -23.721  0.00  0.00    +0.007 C 
ATOM      2  C   UNL     1      32.292  -9.375 -24.187  0.00  0.00    +0.007 C 
ATOM      3  C   UNL     1      33.715 -11.301 -23.611  0.00  0.00    +0.027 C 
ATOM      4  C   UNL     1      34.435 -10.395 -24.606  0.00  0.00    +0.110 C 
ATOM      5  C   UNL     1      33.784  -9.046 -24.343  0.00  0.00    +0.030 C 
ATOM      6  C   UNL     1      31.446 -11.093 -22.426  0.00  0.00    +0.026 C 
ATOM      7  C   UNL     1      31.563  -8.377 -23.279  0.00  0.00    +0.029 C 
ATOM      8  C   UNL     1      31.716 -10.024 -21.399  0.00  0.00    -0.023 C 
ATOM      9  C   UNL     1      31.774  -8.685 -21.820  0.00  0.00    +0.008 C 
ATOM     10  C   UNL     1      31.977  -7.670 -20.881  0.00  0.00    +0.135 C 
ATOM     11  C   UNL     1      31.860 -10.334 -20.044  0.00  0.00    -0.004 C 
ATOM     12  C   UNL     1      32.134  -7.987 -19.532  0.00  0.00    +0.037 C 
ATOM     13  C   UNL     1      32.075  -9.317 -19.115  0.00  0.00    +0.003 C 
ENDROOT
BRANCH   4  14
ATOM     14  O   UNL     1      35.825 -10.357 -24.349  0.00  0.00    -0.384 OA
ATOM     15  H   UNL     1      36.311 -10.470 -25.180  0.00  0.00    +0.210 HD
ENDBRANCH   4  14
BRANCH  10  16
ATOM     16  O   UNL     1      32.021  -6.358 -21.252  0.00  0.00    -0.464 OA
BRANCH  16  17
ATOM     17  C   UNL     1      30.778  -5.665 -21.328  0.00  0.00    +0.314 C 
BRANCH  17  19
ATOM     18  O   UNL     1      31.118  -5.016 -23.644  0.00  0.00    -0.246 OA
ATOM     19  C   UNL     1      30.789  -4.728 -22.504  0.00  0.00    +0.359 C 
BRANCH  19  20
ATOM     20  O   UNL     1      30.374  -3.493 -22.123  0.00  0.00    -0.478 OA
ATOM     21  H   UNL     1      30.185  -2.842 -22.769  0.00  0.00    +0.295 HD
ENDBRANCH  19  20
ENDBRANCH  17  19
ENDBRANCH  16  17
ENDBRANCH  10  16
BRANCH   3  22
ATOM     22  C   UNL     1      33.926 -12.781 -23.909  0.00  0.00    +0.005 C 
BRANCH  22  23
ATOM     23  C   UNL     1      33.420 -13.198 -25.293  0.00  0.00    +0.029 C 
BRANCH  23  24
ATOM     24  C   UNL     1      33.123 -14.699 -25.435  0.00  0.00    +0.111 C 
BRANCH  24  25
ATOM     25  O   UNL     1      33.430 -15.120 -26.764  0.00  0.00    -0.384 OA
ATOM     26  H   UNL     1      32.998 -15.972 -26.941  0.00  0.00    +0.210 HD
ENDBRANCH  24  25
BRANCH  24  27
ATOM     27  C   UNL     1      33.932 -15.571 -24.465  0.00  0.00    +0.029 C 
BRANCH  27  28
ATOM     28  C   UNL     1      34.809 -16.612 -25.161  0.00  0.00    +0.002 C 
BRANCH  28  29
ATOM     29  C   UNL     1      34.369 -18.034 -24.804  0.00  0.00    +0.000 C 
BRANCH  29  30
ATOM     30  C   UNL     1      35.299 -18.661 -23.766  0.00  0.00    +0.000 C 
ATOM     31  C   UNL     1      34.529 -19.144 -22.549  0.00  0.00    +0.000 C 
ENDBRANCH  29  30
ENDBRANCH  28  29
ENDBRANCH  27  28
ENDBRANCH  24  27
ENDBRANCH  23  24
ENDBRANCH  22  23
ENDBRANCH   3  22
TORSDOF 13
ENDMDL
