MODEL 1
REMARK VINA RESULT:      -7.9      0.000      0.000
REMARK  Name = 121026
REMARK  3 active torsions:
REMARK  status: ('A' for Active; 'I' for Inactive)
REMARK    1  A    between atoms: N_1  and  C_6
REMARK    2  A    between atoms: C_4  and  C_13
REMARK    3  A    between atoms: C_13  and  O_14
REMARK                            x       y       z     vdW  Elec       q    Type
REMARK                         _______ _______ _______ _____ _____    ______ ____
ROOT
ATOM      1  N   UNL     1      34.770 -18.437 -21.740  0.00  0.00    -0.189 N 
ATOM      2  N   UNL     1      35.050 -17.226 -21.217  0.00  0.00    -0.172 NA
ATOM      3  C   UNL     1      34.531 -18.399 -23.088  0.00  0.00    +0.097 C 
ATOM      4  C   UNL     1      34.665 -17.085 -23.464  0.00  0.00    +0.113 C 
ATOM      5  C   UNL     1      34.984 -16.408 -22.272  0.00  0.00    +0.126 C 
ENDROOT
BRANCH   1   6
ATOM      6  C   UNL     1      34.742 -19.565 -20.939  0.00  0.00    +0.074 C 
ATOM      7  C   UNL     1      35.935 -20.170 -20.545  0.00  0.00    +0.017 C 
ATOM      8  C   UNL     1      33.520 -20.098 -20.529  0.00  0.00    +0.017 C 
ATOM      9  C   UNL     1      35.906 -21.308 -19.739  0.00  0.00    +0.001 C 
ATOM     10  C   UNL     1      33.492 -21.235 -19.722  0.00  0.00    +0.001 C 
ATOM     11  C   UNL     1      34.685 -21.840 -19.327  0.00  0.00    +0.000 C 
ENDBRANCH   1   6
BRANCH   4  13
ATOM     12  O   UNL     1      34.926 -17.109 -25.826  0.00  0.00    -0.245 OA
ATOM     13  C   UNL     1      34.503 -16.569 -24.789  0.00  0.00    +0.341 C 
BRANCH  13  14
ATOM     14  O   UNL     1      33.822 -15.379 -24.873  0.00  0.00    -0.477 OA
ATOM     15  H   UNL     1      33.283 -15.199 -25.618  0.00  0.00    +0.295 HD
ENDBRANCH  13  14
ENDBRANCH   4  13
TORSDOF 3
ENDMDL
MODEL 2
REMARK VINA RESULT:      -7.8      3.782      5.815
REMARK  Name = 121026
REMARK  3 active torsions:
REMARK  status: ('A' for Active; 'I' for Inactive)
REMARK    1  A    between atoms: N_1  and  C_6
REMARK    2  A    between atoms: C_4  and  C_13
REMARK    3  A    between atoms: C_13  and  O_14
REMARK                            x       y       z     vdW  Elec       q    Type
REMARK                         _______ _______ _______ _____ _____    ______ ____
ROOT
ATOM      1  N   UNL     1      34.955 -19.813 -20.755  0.00  0.00    -0.189 N 
ATOM      2  N   UNL     1      36.097 -20.214 -20.162  0.00  0.00    -0.172 NA
ATOM      3  C   UNL     1      33.869 -20.568 -20.397  0.00  0.00    +0.097 C 
ATOM      4  C   UNL     1      34.334 -21.516 -19.518  0.00  0.00    +0.113 C 
ATOM      5  C   UNL     1      35.713 -21.250 -19.411  0.00  0.00    +0.126 C 
ENDROOT
BRANCH   1   6
ATOM      6  C   UNL     1      34.948 -18.741 -21.629  0.00  0.00    +0.074 C 
ATOM      7  C   UNL     1      35.002 -18.961 -23.005  0.00  0.00    +0.017 C 
ATOM      8  C   UNL     1      34.888 -17.438 -21.133  0.00  0.00    +0.017 C 
ATOM      9  C   UNL     1      34.997 -17.880 -23.885  0.00  0.00    +0.001 C 
ATOM     10  C   UNL     1      34.881 -16.357 -22.014  0.00  0.00    +0.001 C 
ATOM     11  C   UNL     1      34.936 -16.578 -23.390  0.00  0.00    +0.000 C 
ENDBRANCH   1   6
BRANCH   4  13
ATOM     12  O   UNL     1      33.882 -23.718 -18.749  0.00  0.00    -0.245 OA
ATOM     13  C   UNL     1      33.550 -22.528 -18.880  0.00  0.00    +0.341 C 
BRANCH  13  14
ATOM     14  O   UNL     1      32.337 -22.105 -18.390  0.00  0.00    -0.477 OA
ATOM     15  H   UNL     1      31.716 -21.699 -18.963  0.00  0.00    +0.295 HD
ENDBRANCH  13  14
ENDBRANCH   4  13
TORSDOF 3
ENDMDL
MODEL 3
REMARK VINA RESULT:      -7.8      3.773      5.821
REMARK  Name = 121026
REMARK  3 active torsions:
REMARK  status: ('A' for Active; 'I' for Inactive)
REMARK    1  A    between atoms: N_1  and  C_6
REMARK    2  A    between atoms: C_4  and  C_13
REMARK    3  A    between atoms: C_13  and  O_14
REMARK                            x       y       z     vdW  Elec       q    Type
REMARK                         _______ _______ _______ _____ _____    ______ ____
ROOT
ATOM      1  N   UNL     1      34.949 -19.810 -20.783  0.00  0.00    -0.189 N 
ATOM      2  N   UNL     1      36.101 -20.228 -20.220  0.00  0.00    -0.172 NA
ATOM      3  C   UNL     1      33.864 -20.557 -20.407  0.00  0.00    +0.097 C 
ATOM      4  C   UNL     1      34.340 -21.518 -19.549  0.00  0.00    +0.113 C 
ATOM      5  C   UNL     1      35.723 -21.267 -19.471  0.00  0.00    +0.126 C 
ENDROOT
BRANCH   1   6
ATOM      6  C   UNL     1      34.933 -18.728 -21.646  0.00  0.00    +0.074 C 
ATOM      7  C   UNL     1      34.877 -17.431 -21.137  0.00  0.00    +0.017 C 
ATOM      8  C   UNL     1      34.972 -18.936 -23.024  0.00  0.00    +0.017 C 
ATOM      9  C   UNL     1      34.860 -16.341 -22.007  0.00  0.00    +0.001 C 
ATOM     10  C   UNL     1      34.956 -17.845 -23.894  0.00  0.00    +0.001 C 
ATOM     11  C   UNL     1      34.900 -16.548 -23.385  0.00  0.00    +0.000 C 
ENDBRANCH   1   6
BRANCH   4  13
ATOM     12  O   UNL     1      33.894 -23.717 -18.769  0.00  0.00    -0.245 OA
ATOM     13  C   UNL     1      33.559 -22.528 -18.903  0.00  0.00    +0.341 C 
BRANCH  13  14
ATOM     14  O   UNL     1      32.349 -22.104 -18.408  0.00  0.00    -0.477 OA
ATOM     15  H   UNL     1      31.573 -22.599 -18.582  0.00  0.00    +0.295 HD
ENDBRANCH  13  14
ENDBRANCH   4  13
TORSDOF 3
ENDMDL
MODEL 4
REMARK VINA RESULT:      -7.6      1.103      1.577
REMARK  Name = 121026
REMARK  3 active torsions:
REMARK  status: ('A' for Active; 'I' for Inactive)
REMARK    1  A    between atoms: N_1  and  C_6
REMARK    2  A    between atoms: C_4  and  C_13
REMARK    3  A    between atoms: C_13  and  O_14
REMARK                            x       y       z     vdW  Elec       q    Type
REMARK                         _______ _______ _______ _____ _____    ______ ____
ROOT
ATOM      1  N   UNL     1      34.691 -18.699 -22.093  0.00  0.00    -0.189 N 
ATOM      2  N   UNL     1      35.069 -18.988 -23.355  0.00  0.00    -0.172 NA
ATOM      3  C   UNL     1      34.400 -17.373 -21.909  0.00  0.00    +0.097 C 
ATOM      4  C   UNL     1      34.600 -16.764 -23.124  0.00  0.00    +0.113 C 
ATOM      5  C   UNL     1      35.012 -17.806 -23.976  0.00  0.00    +0.126 C 
ENDROOT
BRANCH   1   6
ATOM      6  C   UNL     1      34.626 -19.688 -21.129  0.00  0.00    +0.074 C 
ATOM      7  C   UNL     1      35.800 -20.236 -20.611  0.00  0.00    +0.017 C 
ATOM      8  C   UNL     1      33.387 -20.140 -20.676  0.00  0.00    +0.017 C 
ATOM      9  C   UNL     1      35.734 -21.234 -19.639  0.00  0.00    +0.001 C 
ATOM     10  C   UNL     1      33.321 -21.137 -19.703  0.00  0.00    +0.001 C 
ATOM     11  C   UNL     1      34.494 -21.685 -19.185  0.00  0.00    +0.000 C 
ENDBRANCH   1   6
BRANCH   4  13
ATOM     12  O   UNL     1      33.845 -14.915 -24.411  0.00  0.00    -0.245 OA
ATOM     13  C   UNL     1      34.417 -15.374 -23.408  0.00  0.00    +0.341 C 
BRANCH  13  14
ATOM     14  O   UNL     1      34.934 -14.514 -22.469  0.00  0.00    -0.477 OA
ATOM     15  H   UNL     1      35.794 -14.656 -22.126  0.00  0.00    +0.295 HD
ENDBRANCH  13  14
ENDBRANCH   4  13
TORSDOF 3
ENDMDL
MODEL 5
REMARK VINA RESULT:      -7.6      1.107      2.043
REMARK  Name = 121026
REMARK  3 active torsions:
REMARK  status: ('A' for Active; 'I' for Inactive)
REMARK    1  A    between atoms: N_1  and  C_6
REMARK    2  A    between atoms: C_4  and  C_13
REMARK    3  A    between atoms: C_13  and  O_14
REMARK                            x       y       z     vdW  Elec       q    Type
REMARK                         _______ _______ _______ _____ _____    ______ ____
ROOT
ATOM      1  N   UNL     1      34.666 -18.730 -22.082  0.00  0.00    -0.189 N 
ATOM      2  N   UNL     1      35.015 -19.024 -23.351  0.00  0.00    -0.172 NA
ATOM      3  C   UNL     1      34.399 -17.401 -21.891  0.00  0.00    +0.097 C 
ATOM      4  C   UNL     1      34.584 -16.794 -23.110  0.00  0.00    +0.113 C 
ATOM      5  C   UNL     1      34.963 -17.842 -23.970  0.00  0.00    +0.126 C 
ENDROOT
BRANCH   1   6
ATOM      6  C   UNL     1      34.605 -19.719 -21.116  0.00  0.00    +0.074 C 
ATOM      7  C   UNL     1      33.368 -20.151 -20.638  0.00  0.00    +0.017 C 
ATOM      8  C   UNL     1      35.780 -20.283 -20.620  0.00  0.00    +0.017 C 
ATOM      9  C   UNL     1      33.306 -21.148 -19.664  0.00  0.00    +0.001 C 
ATOM     10  C   UNL     1      35.718 -21.280 -19.647  0.00  0.00    +0.001 C 
ATOM     11  C   UNL     1      34.481 -21.712 -19.169  0.00  0.00    +0.000 C 
ENDBRANCH   1   6
BRANCH   4  13
ATOM     12  O   UNL     1      33.836 -14.933 -24.383  0.00  0.00    -0.245 OA
ATOM     13  C   UNL     1      34.417 -15.401 -23.389  0.00  0.00    +0.341 C 
BRANCH  13  14
ATOM     14  O   UNL     1      34.959 -14.549 -22.457  0.00  0.00    -0.477 OA
ATOM     15  H   UNL     1      34.570 -14.475 -21.608  0.00  0.00    +0.295 HD
ENDBRANCH  13  14
ENDBRANCH   4  13
TORSDOF 3
ENDMDL
MODEL 6
REMARK VINA RESULT:      -7.4      0.959      1.883
REMARK  Name = 121026
REMARK  3 active torsions:
REMARK  status: ('A' for Active; 'I' for Inactive)
REMARK    1  A    between atoms: N_1  and  C_6
REMARK    2  A    between atoms: C_4  and  C_13
REMARK    3  A    between atoms: C_13  and  O_14
REMARK                            x       y       z     vdW  Elec       q    Type
REMARK                         _______ _______ _______ _____ _____    ______ ____
ROOT
ATOM      1  N   UNL     1      34.720 -17.523 -21.990  0.00  0.00    -0.189 N 
ATOM      2  N   UNL     1      34.753 -16.323 -21.375  0.00  0.00    -0.172 NA
ATOM      3  C   UNL     1      34.408 -17.436 -23.321  0.00  0.00    +0.097 C 
ATOM      4  C   UNL     1      34.228 -16.101 -23.587  0.00  0.00    +0.113 C 
ATOM      5  C   UNL     1      34.453 -15.463 -22.352  0.00  0.00    +0.126 C 
ENDROOT
BRANCH   1   6
ATOM      6  C   UNL     1      34.983 -18.686 -21.289  0.00  0.00    +0.074 C 
ATOM      7  C   UNL     1      33.933 -19.518 -20.899  0.00  0.00    +0.017 C 
ATOM      8  C   UNL     1      36.297 -19.026 -20.971  0.00  0.00    +0.017 C 
ATOM      9  C   UNL     1      34.199 -20.690 -20.192  0.00  0.00    +0.001 C 
ATOM     10  C   UNL     1      36.563 -20.199 -20.265  0.00  0.00    +0.001 C 
ATOM     11  C   UNL     1      35.513 -21.031 -19.875  0.00  0.00    +0.000 C 
ENDBRANCH   1   6
BRANCH   4  13
ATOM     12  O   UNL     1      33.227 -14.496 -25.025  0.00  0.00    -0.245 OA
ATOM     13  C   UNL     1      33.888 -15.535 -24.856  0.00  0.00    +0.341 C 
BRANCH  13  14
ATOM     14  O   UNL     1      34.349 -16.231 -25.948  0.00  0.00    -0.477 OA
ATOM     15  H   UNL     1      34.074 -15.986 -26.809  0.00  0.00    +0.295 HD
ENDBRANCH  13  14
ENDBRANCH   4  13
TORSDOF 3
ENDMDL
MODEL 7
REMARK VINA RESULT:      -7.2      9.208     10.777
REMARK  Name = 121026
REMARK  3 active torsions:
REMARK  status: ('A' for Active; 'I' for Inactive)
REMARK    1  A    between atoms: N_1  and  C_6
REMARK    2  A    between atoms: C_4  and  C_13
REMARK    3  A    between atoms: C_13  and  O_14
REMARK                            x       y       z     vdW  Elec       q    Type
REMARK                         _______ _______ _______ _____ _____    ______ ____
ROOT
ATOM      1  N   UNL     1      36.566 -24.799 -14.255  0.00  0.00    -0.189 N 
ATOM      2  N   UNL     1      36.813 -25.618 -13.212  0.00  0.00    -0.172 NA
ATOM      3  C   UNL     1      37.679 -24.536 -15.008  0.00  0.00    +0.097 C 
ATOM      4  C   UNL     1      38.712 -25.225 -14.419  0.00  0.00    +0.113 C 
ATOM      5  C   UNL     1      38.120 -25.872 -13.318  0.00  0.00    +0.126 C 
ENDROOT
BRANCH   1   6
ATOM      6  C   UNL     1      35.293 -24.309 -14.485  0.00  0.00    +0.074 C 
ATOM      7  C   UNL     1      34.341 -24.335 -13.467  0.00  0.00    +0.017 C 
ATOM      8  C   UNL     1      34.961 -23.790 -15.737  0.00  0.00    +0.017 C 
ATOM      9  C   UNL     1      33.057 -23.841 -13.699  0.00  0.00    +0.001 C 
ATOM     10  C   UNL     1      33.678 -23.295 -15.969  0.00  0.00    +0.001 C 
ATOM     11  C   UNL     1      32.726 -23.321 -14.950  0.00  0.00    +0.000 C 
ENDBRANCH   1   6
BRANCH   4  13
ATOM     12  O   UNL     1      41.027 -24.713 -14.279  0.00  0.00    -0.245 OA
ATOM     13  C   UNL     1      40.070 -25.246 -14.866  0.00  0.00    +0.341 C 
BRANCH  13  14
ATOM     14  O   UNL     1      40.288 -25.920 -16.044  0.00  0.00    -0.477 OA
ATOM     15  H   UNL     1      40.515 -26.829 -16.029  0.00  0.00    +0.295 HD
ENDBRANCH  13  14
ENDBRANCH   4  13
TORSDOF 3
ENDMDL
MODEL 8
REMARK VINA RESULT:      -7.2      8.695     10.322
REMARK  Name = 121026
REMARK  3 active torsions:
REMARK  status: ('A' for Active; 'I' for Inactive)
REMARK    1  A    between atoms: N_1  and  C_6
REMARK    2  A    between atoms: C_4  and  C_13
REMARK    3  A    between atoms: C_13  and  O_14
REMARK                            x       y       z     vdW  Elec       q    Type
REMARK                         _______ _______ _______ _____ _____    ______ ____
ROOT
ATOM      1  N   UNL     1      35.445 -23.631 -14.789  0.00  0.00    -0.189 N 
ATOM      2  N   UNL     1      36.517 -24.029 -15.504  0.00  0.00    -0.172 NA
ATOM      3  C   UNL     1      35.721 -23.451 -13.460  0.00  0.00    +0.097 C 
ATOM      4  C   UNL     1      37.052 -23.749 -13.301  0.00  0.00    +0.113 C 
ATOM      5  C   UNL     1      37.491 -24.099 -14.592  0.00  0.00    +0.126 C 
ENDROOT
BRANCH   1   6
ATOM      6  C   UNL     1      34.217 -23.443 -15.399  0.00  0.00    +0.074 C 
ATOM      7  C   UNL     1      34.147 -23.229 -16.775  0.00  0.00    +0.017 C 
ATOM      8  C   UNL     1      33.050 -23.466 -14.636  0.00  0.00    +0.017 C 
ATOM      9  C   UNL     1      32.910 -23.038 -17.389  0.00  0.00    +0.001 C 
ATOM     10  C   UNL     1      31.812 -23.276 -15.250  0.00  0.00    +0.001 C 
ATOM     11  C   UNL     1      31.742 -23.062 -16.627  0.00  0.00    +0.000 C 
ENDBRANCH   1   6
BRANCH   4  13
ATOM     12  O   UNL     1      38.449 -22.730 -11.671  0.00  0.00    -0.245 OA
ATOM     13  C   UNL     1      37.784 -23.700 -12.072  0.00  0.00    +0.341 C 
BRANCH  13  14
ATOM     14  O   UNL     1      37.718 -24.840 -11.308  0.00  0.00    -0.477 OA
ATOM     15  H   UNL     1      37.187 -24.857 -10.537  0.00  0.00    +0.295 HD
ENDBRANCH  13  14
ENDBRANCH   4  13
TORSDOF 3
ENDMDL
MODEL 9
REMARK VINA RESULT:      -7.2      7.853      9.425
REMARK  Name = 121026
REMARK  3 active torsions:
REMARK  status: ('A' for Active; 'I' for Inactive)
REMARK    1  A    between atoms: N_1  and  C_6
REMARK    2  A    between atoms: C_4  and  C_13
REMARK    3  A    between atoms: C_13  and  O_14
REMARK                            x       y       z     vdW  Elec       q    Type
REMARK                         _______ _______ _______ _____ _____    ______ ____
ROOT
ATOM      1  N   UNL     1      30.562 -23.467 -15.856  0.00  0.00    -0.189 N 
ATOM      2  N   UNL     1      29.935 -24.592 -15.453  0.00  0.00    -0.172 NA
ATOM      3  C   UNL     1      29.697 -22.463 -16.198  0.00  0.00    +0.097 C 
ATOM      4  C   UNL     1      28.432 -22.964 -16.007  0.00  0.00    +0.113 C 
ATOM      5  C   UNL     1      28.641 -24.278 -15.548  0.00  0.00    +0.126 C 
ENDROOT
BRANCH   1   6
ATOM      6  C   UNL     1      31.943 -23.401 -15.896  0.00  0.00    +0.074 C 
ATOM      7  C   UNL     1      32.685 -23.593 -14.731  0.00  0.00    +0.017 C 
ATOM      8  C   UNL     1      32.594 -23.141 -17.102  0.00  0.00    +0.017 C 
ATOM      9  C   UNL     1      34.078 -23.525 -14.772  0.00  0.00    +0.001 C 
ATOM     10  C   UNL     1      33.986 -23.074 -17.143  0.00  0.00    +0.001 C 
ATOM     11  C   UNL     1      34.728 -23.266 -15.978  0.00  0.00    +0.000 C 
ENDBRANCH   1   6
BRANCH   4  13
ATOM     12  O   UNL     1      26.222 -22.268 -15.479  0.00  0.00    -0.245 OA
ATOM     13  C   UNL     1      27.206 -22.263 -16.238  0.00  0.00    +0.341 C 
BRANCH  13  14
ATOM     14  O   UNL     1      27.158 -21.542 -17.407  0.00  0.00    -0.477 OA
ATOM     15  H   UNL     1      27.821 -20.908 -17.594  0.00  0.00    +0.295 HD
ENDBRANCH  13  14
ENDBRANCH   4  13
TORSDOF 3
ENDMDL
