MODEL 1
REMARK VINA RESULT:      -8.2      0.000      0.000
REMARK  Name = 2737071
REMARK  2 active torsions:
REMARK  status: ('A' for Active; 'I' for Inactive)
REMARK    1  A    between atoms: C_1  and  C_9
REMARK    2  A    between atoms: C_4  and  N_15
REMARK                            x       y       z     vdW  Elec       q    Type
REMARK                         _______ _______ _______ _____ _____    ______ ____
ROOT
ATOM      1  C   UNL     1      34.661 -19.146 -21.121  0.00  0.00    +0.015 C 
ATOM      2  C   UNL     1      33.408 -19.663 -20.792  0.00  0.00    +0.003 C 
ATOM      3  C   UNL     1      35.818 -19.801 -20.701  0.00  0.00    +0.003 C 
ATOM      4  C   UNL     1      34.470 -21.490 -19.621  0.00  0.00    +0.143 C 
ATOM      5  C   UNL     1      33.312 -20.834 -20.041  0.00  0.00    +0.024 C 
ATOM      6  C   UNL     1      35.723 -20.974 -19.950  0.00  0.00    +0.024 C 
ENDROOT
BRANCH   1   9
ATOM      7  N   UNL     1      34.644 -16.692 -21.348  0.00  0.00    -0.236 N 
ATOM      8  N   UNL     1      34.769 -15.693 -22.239  0.00  0.00    -0.180 NA
ATOM      9  C   UNL     1      34.760 -17.935 -21.898  0.00  0.00    +0.067 C 
ATOM     10  C   UNL     1      34.974 -17.737 -23.239  0.00  0.00    +0.038 C 
ATOM     11  C   UNL     1      34.970 -16.337 -23.392  0.00  0.00    +0.119 C 
ATOM     12  H   UNL     1      34.484 -16.541 -20.389  0.00  0.00    +0.174 HD
ENDBRANCH   1   9
BRANCH   4  15
ATOM     13  O   UNL     1      33.835 -23.694 -19.372  0.00  0.00    -0.126 OA
ATOM     14  O   UNL     1      34.825 -22.694 -17.687  0.00  0.00    -0.126 OA
ATOM     15  N   UNL     1      34.371 -22.684 -18.856  0.00  0.00    +0.058 N 
ENDBRANCH   4  15
TORSDOF 2
ENDMDL
MODEL 2
REMARK VINA RESULT:      -8.2      0.154      1.542
REMARK  Name = 2737071
REMARK  2 active torsions:
REMARK  status: ('A' for Active; 'I' for Inactive)
REMARK    1  A    between atoms: C_1  and  C_9
REMARK    2  A    between atoms: C_4  and  N_15
REMARK                            x       y       z     vdW  Elec       q    Type
REMARK                         _______ _______ _______ _____ _____    ______ ____
ROOT
ATOM      1  C   UNL     1      34.662 -19.275 -21.085  0.00  0.00    +0.015 C 
ATOM      2  C   UNL     1      35.818 -19.927 -20.657  0.00  0.00    +0.003 C 
ATOM      3  C   UNL     1      33.409 -19.771 -20.731  0.00  0.00    +0.003 C 
ATOM      4  C   UNL     1      34.466 -21.574 -19.519  0.00  0.00    +0.143 C 
ATOM      5  C   UNL     1      35.720 -21.077 -19.875  0.00  0.00    +0.024 C 
ATOM      6  C   UNL     1      33.310 -20.922 -19.947  0.00  0.00    +0.024 C 
ENDROOT
BRANCH   1   9
ATOM      7  N   UNL     1      34.697 -16.827 -21.374  0.00  0.00    -0.236 N 
ATOM      8  N   UNL     1      34.816 -15.854 -22.293  0.00  0.00    -0.180 NA
ATOM      9  C   UNL     1      34.764 -18.085 -21.895  0.00  0.00    +0.067 C 
ATOM     10  C   UNL     1      34.939 -17.926 -23.247  0.00  0.00    +0.038 C 
ATOM     11  C   UNL     1      34.963 -16.530 -23.435  0.00  0.00    +0.119 C 
ATOM     12  H   UNL     1      34.572 -16.649 -20.414  0.00  0.00    +0.174 HD
ENDBRANCH   1   9
BRANCH   4  15
ATOM     13  O   UNL     1      34.860 -22.740 -17.568  0.00  0.00    -0.126 OA
ATOM     14  O   UNL     1      33.787 -23.754 -19.193  0.00  0.00    -0.126 OA
ATOM     15  N   UNL     1      34.367 -22.746 -18.721  0.00  0.00    +0.058 N 
ENDBRANCH   4  15
TORSDOF 2
ENDMDL
MODEL 3
REMARK VINA RESULT:      -8.1      0.995      1.685
REMARK  Name = 2737071
REMARK  2 active torsions:
REMARK  status: ('A' for Active; 'I' for Inactive)
REMARK    1  A    between atoms: C_1  and  C_9
REMARK    2  A    between atoms: C_4  and  N_15
REMARK                            x       y       z     vdW  Elec       q    Type
REMARK                         _______ _______ _______ _____ _____    ______ ____
ROOT
ATOM      1  C   UNL     1      34.885 -18.722 -21.178  0.00  0.00    +0.015 C 
ATOM      2  C   UNL     1      36.069 -19.313 -20.736  0.00  0.00    +0.003 C 
ATOM      3  C   UNL     1      33.662 -19.348 -20.938  0.00  0.00    +0.003 C 
ATOM      4  C   UNL     1      34.806 -21.156 -19.816  0.00  0.00    +0.143 C 
ATOM      5  C   UNL     1      36.031 -20.530 -20.056  0.00  0.00    +0.024 C 
ATOM      6  C   UNL     1      33.622 -20.565 -20.257  0.00  0.00    +0.024 C 
ENDROOT
BRANCH   1   9
ATOM      7  N   UNL     1      35.444 -17.334 -23.136  0.00  0.00    -0.236 N 
ATOM      8  N   UNL     1      35.387 -16.080 -23.618  0.00  0.00    -0.180 NA
ATOM      9  C   UNL     1      34.926 -17.464 -21.881  0.00  0.00    +0.067 C 
ATOM     10  C   UNL     1      34.502 -16.211 -21.516  0.00  0.00    +0.038 C 
ATOM     11  C   UNL     1      34.811 -15.399 -22.624  0.00  0.00    +0.119 C 
ATOM     12  H   UNL     1      35.824 -18.088 -23.641  0.00  0.00    +0.174 HD
ENDBRANCH   1   9
BRANCH   4  15
ATOM     13  O   UNL     1      34.122 -23.349 -19.619  0.00  0.00    -0.126 OA
ATOM     14  O   UNL     1      35.381 -22.501 -18.033  0.00  0.00    -0.126 OA
ATOM     15  N   UNL     1      34.767 -22.395 -19.122  0.00  0.00    +0.058 N 
ENDBRANCH   4  15
TORSDOF 2
ENDMDL
MODEL 4
REMARK VINA RESULT:      -8.0      4.086      6.033
REMARK  Name = 2737071
REMARK  2 active torsions:
REMARK  status: ('A' for Active; 'I' for Inactive)
REMARK    1  A    between atoms: C_1  and  C_9
REMARK    2  A    between atoms: C_4  and  N_15
REMARK                            x       y       z     vdW  Elec       q    Type
REMARK                         _______ _______ _______ _____ _____    ______ ____
ROOT
ATOM      1  C   UNL     1      35.102 -19.009 -21.649  0.00  0.00    +0.015 C 
ATOM      2  C   UNL     1      35.018 -17.651 -21.339  0.00  0.00    +0.003 C 
ATOM      3  C   UNL     1      34.953 -19.433 -22.969  0.00  0.00    +0.003 C 
ATOM      4  C   UNL     1      34.636 -17.142 -23.670  0.00  0.00    +0.143 C 
ATOM      5  C   UNL     1      34.784 -16.718 -22.348  0.00  0.00    +0.024 C 
ATOM      6  C   UNL     1      34.720 -18.500 -23.980  0.00  0.00    +0.024 C 
ENDROOT
BRANCH   1   9
ATOM      7  N   UNL     1      36.524 -20.049 -19.926  0.00  0.00    -0.236 N 
ATOM      8  N   UNL     1      36.548 -21.013 -18.989  0.00  0.00    -0.180 NA
ATOM      9  C   UNL     1      35.344 -19.973 -20.604  0.00  0.00    +0.067 C 
ATOM     10  C   UNL     1      34.541 -20.954 -20.077  0.00  0.00    +0.038 C 
ATOM     11  C   UNL     1      35.335 -21.562 -19.086  0.00  0.00    +0.119 C 
ATOM     12  H   UNL     1      37.287 -19.454 -20.106  0.00  0.00    +0.174 HD
ENDBRANCH   1   9
BRANCH   4  15
ATOM     13  O   UNL     1      33.922 -15.072 -24.392  0.00  0.00    -0.126 OA
ATOM     14  O   UNL     1      34.671 -16.498 -25.883  0.00  0.00    -0.126 OA
ATOM     15  N   UNL     1      34.398 -16.192 -24.698  0.00  0.00    +0.058 N 
ENDBRANCH   4  15
TORSDOF 2
ENDMDL
MODEL 5
REMARK VINA RESULT:      -8.0      4.090      5.994
REMARK  Name = 2737071
REMARK  2 active torsions:
REMARK  status: ('A' for Active; 'I' for Inactive)
REMARK    1  A    between atoms: C_1  and  C_9
REMARK    2  A    between atoms: C_4  and  N_15
REMARK                            x       y       z     vdW  Elec       q    Type
REMARK                         _______ _______ _______ _____ _____    ______ ____
ROOT
ATOM      1  C   UNL     1      35.091 -18.999 -21.656  0.00  0.00    +0.015 C 
ATOM      2  C   UNL     1      34.936 -19.424 -22.975  0.00  0.00    +0.003 C 
ATOM      3  C   UNL     1      35.013 -17.641 -21.348  0.00  0.00    +0.003 C 
ATOM      4  C   UNL     1      34.623 -17.134 -23.678  0.00  0.00    +0.143 C 
ATOM      5  C   UNL     1      34.702 -18.493 -23.986  0.00  0.00    +0.024 C 
ATOM      6  C   UNL     1      34.779 -16.708 -22.359  0.00  0.00    +0.024 C 
ENDROOT
BRANCH   1   9
ATOM      7  N   UNL     1      36.508 -20.030 -19.923  0.00  0.00    -0.236 N 
ATOM      8  N   UNL     1      36.533 -20.996 -18.988  0.00  0.00    -0.180 NA
ATOM      9  C   UNL     1      35.333 -19.963 -20.612  0.00  0.00    +0.067 C 
ATOM     10  C   UNL     1      34.534 -20.952 -20.094  0.00  0.00    +0.038 C 
ATOM     11  C   UNL     1      35.325 -21.555 -19.097  0.00  0.00    +0.119 C 
ATOM     12  H   UNL     1      37.267 -19.428 -20.095  0.00  0.00    +0.174 HD
ENDBRANCH   1   9
BRANCH   4  15
ATOM     13  O   UNL     1      34.632 -16.503 -25.896  0.00  0.00    -0.126 OA
ATOM     14  O   UNL     1      33.934 -15.056 -24.401  0.00  0.00    -0.126 OA
ATOM     15  N   UNL     1      34.385 -16.185 -24.708  0.00  0.00    +0.058 N 
ENDBRANCH   4  15
TORSDOF 2
ENDMDL
MODEL 6
REMARK VINA RESULT:      -7.7      4.620      6.530
REMARK  Name = 2737071
REMARK  2 active torsions:
REMARK  status: ('A' for Active; 'I' for Inactive)
REMARK    1  A    between atoms: C_1  and  C_9
REMARK    2  A    between atoms: C_4  and  N_15
REMARK                            x       y       z     vdW  Elec       q    Type
REMARK                         _______ _______ _______ _____ _____    ______ ____
ROOT
ATOM      1  C   UNL     1      34.834 -17.931 -22.528  0.00  0.00    +0.015 C 
ATOM      2  C   UNL     1      34.851 -18.268 -23.882  0.00  0.00    +0.003 C 
ATOM      3  C   UNL     1      34.428 -16.658 -22.131  0.00  0.00    +0.003 C 
ATOM      4  C   UNL     1      34.055 -16.056 -24.441  0.00  0.00    +0.143 C 
ATOM      5  C   UNL     1      34.462 -17.331 -24.838  0.00  0.00    +0.024 C 
ATOM      6  C   UNL     1      34.038 -15.720 -23.088  0.00  0.00    +0.024 C 
ENDROOT
BRANCH   1   9
ATOM      7  N   UNL     1      36.425 -18.831 -20.875  0.00  0.00    -0.236 N 
ATOM      8  N   UNL     1      36.611 -19.828 -19.993  0.00  0.00    -0.180 NA
ATOM      9  C   UNL     1      35.237 -18.901 -21.539  0.00  0.00    +0.067 C 
ATOM     10  C   UNL     1      34.601 -20.020 -21.061  0.00  0.00    +0.038 C 
ATOM     11  C   UNL     1      35.494 -20.551 -20.111  0.00  0.00    +0.119 C 
ATOM     12  H   UNL     1      37.085 -18.117 -21.027  0.00  0.00    +0.174 HD
ENDBRANCH   1   9
BRANCH   4  15
ATOM     13  O   UNL     1      33.421 -13.925 -25.053  0.00  0.00    -0.126 OA
ATOM     14  O   UNL     1      33.558 -15.463 -26.613  0.00  0.00    -0.126 OA
ATOM     15  N   UNL     1      33.658 -15.102 -25.416  0.00  0.00    +0.058 N 
ENDBRANCH   4  15
TORSDOF 2
ENDMDL
MODEL 7
REMARK VINA RESULT:      -7.4      3.108      5.948
REMARK  Name = 2737071
REMARK  2 active torsions:
REMARK  status: ('A' for Active; 'I' for Inactive)
REMARK    1  A    between atoms: C_1  and  C_9
REMARK    2  A    between atoms: C_4  and  N_15
REMARK                            x       y       z     vdW  Elec       q    Type
REMARK                         _______ _______ _______ _____ _____    ______ ____
ROOT
ATOM      1  C   UNL     1      34.033 -21.263 -19.499  0.00  0.00    +0.015 C 
ATOM      2  C   UNL     1      35.379 -21.133 -19.841  0.00  0.00    +0.003 C 
ATOM      3  C   UNL     1      33.063 -20.543 -20.196  0.00  0.00    +0.003 C 
ATOM      4  C   UNL     1      34.785 -19.562 -21.578  0.00  0.00    +0.143 C 
ATOM      5  C   UNL     1      35.756 -20.283 -20.880  0.00  0.00    +0.024 C 
ATOM      6  C   UNL     1      33.440 -19.692 -21.236  0.00  0.00    +0.024 C 
ENDROOT
BRANCH   1   9
ATOM      7  N   UNL     1      32.341 -22.404 -18.116  0.00  0.00    -0.236 N 
ATOM      8  N   UNL     1      32.189 -23.252 -17.084  0.00  0.00    -0.180 NA
ATOM      9  C   UNL     1      33.644 -22.143 -18.425  0.00  0.00    +0.067 C 
ATOM     10  C   UNL     1      34.396 -22.868 -17.534  0.00  0.00    +0.038 C 
ATOM     11  C   UNL     1      33.447 -23.532 -16.733  0.00  0.00    +0.119 C 
ATOM     12  H   UNL     1      31.584 -22.008 -18.604  0.00  0.00    +0.174 HD
ENDBRANCH   1   9
BRANCH   4  15
ATOM     13  O   UNL     1      34.971 -19.057 -23.821  0.00  0.00    -0.126 OA
ATOM     14  O   UNL     1      35.697 -17.592 -22.356  0.00  0.00    -0.126 OA
ATOM     15  N   UNL     1      35.170 -18.696 -22.636  0.00  0.00    +0.058 N 
ENDBRANCH   4  15
TORSDOF 2
ENDMDL
MODEL 8
REMARK VINA RESULT:      -7.4      2.758      3.949
REMARK  Name = 2737071
REMARK  2 active torsions:
REMARK  status: ('A' for Active; 'I' for Inactive)
REMARK    1  A    between atoms: C_1  and  C_9
REMARK    2  A    between atoms: C_4  and  N_15
REMARK                            x       y       z     vdW  Elec       q    Type
REMARK                         _______ _______ _______ _____ _____    ______ ____
ROOT
ATOM      1  C   UNL     1      34.428 -16.792 -23.501  0.00  0.00    +0.015 C 
ATOM      2  C   UNL     1      34.714 -18.100 -23.892  0.00  0.00    +0.003 C 
ATOM      3  C   UNL     1      34.598 -16.408 -22.171  0.00  0.00    +0.003 C 
ATOM      4  C   UNL     1      35.340 -18.641 -21.622  0.00  0.00    +0.143 C 
ATOM      5  C   UNL     1      35.169 -19.025 -22.953  0.00  0.00    +0.024 C 
ATOM      6  C   UNL     1      35.054 -17.333 -21.231  0.00  0.00    +0.024 C 
ENDROOT
BRANCH   1   9
ATOM      7  N   UNL     1      33.907 -16.103 -25.809  0.00  0.00    -0.236 N 
ATOM      8  N   UNL     1      33.436 -15.083 -26.547  0.00  0.00    -0.180 NA
ATOM      9  C   UNL     1      33.957 -15.836 -24.473  0.00  0.00    +0.067 C 
ATOM     10  C   UNL     1      33.487 -14.555 -24.325  0.00  0.00    +0.038 C 
ATOM     11  C   UNL     1      33.181 -14.140 -25.636  0.00  0.00    +0.119 C 
ATOM     12  H   UNL     1      34.190 -16.962 -26.197  0.00  0.00    +0.174 HD
ENDBRANCH   1   9
BRANCH   4  15
ATOM     13  O   UNL     1      36.966 -19.464 -20.208  0.00  0.00    -0.126 OA
ATOM     14  O   UNL     1      35.038 -20.509 -20.304  0.00  0.00    -0.126 OA
ATOM     15  N   UNL     1      35.804 -19.583 -20.665  0.00  0.00    +0.058 N 
ENDBRANCH   4  15
TORSDOF 2
ENDMDL
MODEL 9
REMARK VINA RESULT:      -7.3      7.345      8.375
REMARK  Name = 2737071
REMARK  2 active torsions:
REMARK  status: ('A' for Active; 'I' for Inactive)
REMARK    1  A    between atoms: C_1  and  C_9
REMARK    2  A    between atoms: C_4  and  N_15
REMARK                            x       y       z     vdW  Elec       q    Type
REMARK                         _______ _______ _______ _____ _____    ______ ____
ROOT
ATOM      1  C   UNL     1      30.355 -23.318 -15.580  0.00  0.00    +0.015 C 
ATOM      2  C   UNL     1      31.540 -23.099 -16.281  0.00  0.00    +0.003 C 
ATOM      3  C   UNL     1      30.393 -23.872 -14.301  0.00  0.00    +0.003 C 
ATOM      4  C   UNL     1      32.803 -23.990 -14.424  0.00  0.00    +0.143 C 
ATOM      5  C   UNL     1      32.764 -23.435 -15.704  0.00  0.00    +0.024 C 
ATOM      6  C   UNL     1      31.617 -24.209 -13.723  0.00  0.00    +0.024 C 
ENDROOT
BRANCH   1   9
ATOM      7  N   UNL     1      28.724 -23.375 -17.428  0.00  0.00    -0.236 N 
ATOM      8  N   UNL     1      27.506 -22.948 -17.801  0.00  0.00    -0.180 NA
ATOM      9  C   UNL     1      29.089 -22.969 -16.178  0.00  0.00    +0.067 C 
ATOM     10  C   UNL     1      28.040 -22.225 -15.701  0.00  0.00    +0.038 C 
ATOM     11  C   UNL     1      27.092 -22.245 -16.743  0.00  0.00    +0.119 C 
ATOM     12  H   UNL     1      29.300 -23.930 -18.002  0.00  0.00    +0.174 HD
ENDBRANCH   1   9
BRANCH   4  15
ATOM     13  O   UNL     1      34.155 -24.325 -12.586  0.00  0.00    -0.126 OA
ATOM     14  O   UNL     1      35.011 -24.635 -14.584  0.00  0.00    -0.126 OA
ATOM     15  N   UNL     1      34.050 -24.333 -13.836  0.00  0.00    +0.058 N 
ENDBRANCH   4  15
TORSDOF 2
ENDMDL
