MODEL 1
REMARK VINA RESULT:      -8.3      0.000      0.000
REMARK  Name = 5362
REMARK  12 active torsions:
REMARK  status: ('A' for Active; 'I' for Inactive)
REMARK    1  A    between atoms: N_3  and  C_8
REMARK    2  A    between atoms: N_4  and  C_14
REMARK    3  A    between atoms: C_5  and  C_20
REMARK    4  A    between atoms: C_5  and  C_24
REMARK    5  A    between atoms: C_20  and  C_21
REMARK    6  A    between atoms: C_21  and  C_22
REMARK    7  A    between atoms: C_24  and  O_25
REMARK    8  A    between atoms: O_25  and  C_27
REMARK    9  A    between atoms: C_27  and  C_28
REMARK   10  A    between atoms: C_28  and  C_29
REMARK   11  A    between atoms: C_29  and  C_31
REMARK   12  A    between atoms: C_31  and  O_32
REMARK                            x       y       z     vdW  Elec       q    Type
REMARK                         _______ _______ _______ _____ _____    ______ ____
ROOT
ATOM      1  O   UNL     1      36.554 -23.925 -16.350  0.00  0.00    -0.272 OA
ATOM      2  O   UNL     1      33.494 -23.697 -12.750  0.00  0.00    -0.272 OA
ATOM      3  N   UNL     1      34.240 -23.396 -16.168  0.00  0.00    -0.179 N 
ATOM      4  N   UNL     1      33.304 -23.440 -15.108  0.00  0.00    -0.179 N 
ATOM      5  C   UNL     1      35.409 -23.933 -14.216  0.00  0.00    +0.181 C 
ATOM      6  C   UNL     1      35.511 -23.796 -15.725  0.00  0.00    +0.257 C 
ATOM      7  C   UNL     1      33.956 -23.644 -13.881  0.00  0.00    +0.257 C 
ENDROOT
BRANCH   3   8
ATOM      8  C   UNL     1      34.050 -22.658 -17.376  0.00  0.00    +0.073 C 
ATOM      9  C   UNL     1      32.761 -22.421 -17.853  0.00  0.00    +0.017 C 
ATOM     10  C   UNL     1      35.154 -22.174 -18.078  0.00  0.00    +0.017 C 
ATOM     11  C   UNL     1      32.576 -21.699 -19.033  0.00  0.00    +0.001 C 
ATOM     12  C   UNL     1      34.969 -21.453 -19.257  0.00  0.00    +0.001 C 
ATOM     13  C   UNL     1      33.680 -21.215 -19.735  0.00  0.00    +0.000 C 
ENDBRANCH   3   8
BRANCH   4  14
ATOM     14  C   UNL     1      31.908 -23.679 -15.280  0.00  0.00    +0.073 C 
ATOM     15  C   UNL     1      31.452 -24.964 -15.575  0.00  0.00    +0.017 C 
ATOM     16  C   UNL     1      30.998 -22.629 -15.151  0.00  0.00    +0.017 C 
ATOM     17  C   UNL     1      30.087 -25.198 -15.742  0.00  0.00    +0.001 C 
ATOM     18  C   UNL     1      29.633 -22.863 -15.318  0.00  0.00    +0.001 C 
ATOM     19  C   UNL     1      29.178 -24.149 -15.614  0.00  0.00    +0.000 C 
ENDBRANCH   4  14
BRANCH   5  20
ATOM     20  C   UNL     1      36.308 -22.904 -13.534  0.00  0.00    +0.021 C 
BRANCH  20  21
ATOM     21  C   UNL     1      37.201 -23.558 -12.483  0.00  0.00    +0.001 C 
BRANCH  21  22
ATOM     22  C   UNL     1      36.784 -23.145 -11.072  0.00  0.00    +0.000 C 
ATOM     23  C   UNL     1      35.902 -24.197 -10.420  0.00  0.00    +0.000 C 
ENDBRANCH  21  22
ENDBRANCH  20  21
ENDBRANCH   5  20
BRANCH   5  24
ATOM     24  C   UNL     1      35.769 -25.358 -13.803  0.00  0.00    +0.226 C 
BRANCH  24  25
ATOM     25  O   UNL     1      35.650 -26.198 -14.936  0.00  0.00    -0.447 OA
BRANCH  25  27
ATOM     26  O   UNL     1      36.904 -27.542 -16.329  0.00  0.00    -0.250 OA
ATOM     27  C   UNL     1      36.795 -26.848 -15.328  0.00  0.00    +0.318 C 
BRANCH  27  28
ATOM     28  C   UNL     1      37.897 -26.571 -14.327  0.00  0.00    +0.121 C 
BRANCH  28  29
ATOM     29  C   UNL     1      39.271 -26.442 -14.971  0.00  0.00    +0.121 C 
BRANCH  29  31
ATOM     30  O   UNL     1      40.834 -24.792 -14.150  0.00  0.00    -0.250 OA
ATOM     31  C   UNL     1      39.828 -25.050 -14.798  0.00  0.00    +0.314 C 
BRANCH  31  32
ATOM     32  O   UNL     1      39.107 -24.112 -15.459  0.00  0.00    -0.480 OA
ATOM     33  H   UNL     1      39.537 -23.509 -16.033  0.00  0.00    +0.295 HD
ENDBRANCH  31  32
ENDBRANCH  29  31
ENDBRANCH  28  29
ENDBRANCH  27  28
ENDBRANCH  25  27
ENDBRANCH  24  25
ENDBRANCH   5  24
TORSDOF 12
ENDMDL
MODEL 2
REMARK VINA RESULT:      -7.3     14.079     17.884
REMARK  Name = 5362
REMARK  12 active torsions:
REMARK  status: ('A' for Active; 'I' for Inactive)
REMARK    1  A    between atoms: N_3  and  C_8
REMARK    2  A    between atoms: N_4  and  C_14
REMARK    3  A    between atoms: C_5  and  C_20
REMARK    4  A    between atoms: C_5  and  C_24
REMARK    5  A    between atoms: C_20  and  C_21
REMARK    6  A    between atoms: C_21  and  C_22
REMARK    7  A    between atoms: C_24  and  O_25
REMARK    8  A    between atoms: O_25  and  C_27
REMARK    9  A    between atoms: C_27  and  C_28
REMARK   10  A    between atoms: C_28  and  C_29
REMARK   11  A    between atoms: C_29  and  C_31
REMARK   12  A    between atoms: C_31  and  O_32
REMARK                            x       y       z     vdW  Elec       q    Type
REMARK                         _______ _______ _______ _____ _____    ______ ____
ROOT
ATOM      1  O   UNL     1      30.404 -10.642 -21.826  0.00  0.00    -0.272 OA
ATOM      2  O   UNL     1      33.866  -7.911 -23.540  0.00  0.00    -0.272 OA
ATOM      3  N   UNL     1      32.396 -11.064 -23.058  0.00  0.00    -0.179 N 
ATOM      4  N   UNL     1      33.368 -10.234 -23.666  0.00  0.00    -0.179 N 
ATOM      5  C   UNL     1      31.905  -8.854 -22.474  0.00  0.00    +0.181 C 
ATOM      6  C   UNL     1      31.414 -10.291 -22.419  0.00  0.00    +0.257 C 
ATOM      7  C   UNL     1      33.202  -8.900 -23.263  0.00  0.00    +0.257 C 
ENDROOT
BRANCH   3   8
ATOM      8  C   UNL     1      32.595 -12.446 -22.758  0.00  0.00    +0.073 C 
ATOM      9  C   UNL     1      32.364 -12.920 -21.466  0.00  0.00    +0.017 C 
ATOM     10  C   UNL     1      33.020 -13.322 -23.757  0.00  0.00    +0.017 C 
ATOM     11  C   UNL     1      32.558 -14.270 -21.174  0.00  0.00    +0.001 C 
ATOM     12  C   UNL     1      33.214 -14.672 -23.464  0.00  0.00    +0.001 C 
ATOM     13  C   UNL     1      32.983 -15.146 -22.173  0.00  0.00    +0.000 C 
ENDBRANCH   3   8
BRANCH   4  14
ATOM     14  C   UNL     1      34.116 -10.594 -24.828  0.00  0.00    +0.073 C 
ATOM     15  C   UNL     1      33.609 -11.540 -25.718  0.00  0.00    +0.017 C 
ATOM     16  C   UNL     1      35.353  -9.997 -25.074  0.00  0.00    +0.017 C 
ATOM     17  C   UNL     1      34.340 -11.890 -26.854  0.00  0.00    +0.001 C 
ATOM     18  C   UNL     1      36.084 -10.347 -26.209  0.00  0.00    +0.001 C 
ATOM     19  C   UNL     1      35.576 -11.295 -27.099  0.00  0.00    +0.000 C 
ENDBRANCH   4  14
BRANCH   5  20
ATOM     20  C   UNL     1      32.178  -8.339 -21.064  0.00  0.00    +0.021 C 
BRANCH  20  21
ATOM     21  C   UNL     1      32.519  -9.482 -20.112  0.00  0.00    +0.001 C 
BRANCH  21  22
ATOM     22  C   UNL     1      31.536  -9.539 -18.943  0.00  0.00    +0.000 C 
ATOM     23  C   UNL     1      31.303 -10.967 -18.479  0.00  0.00    +0.000 C 
ENDBRANCH  21  22
ENDBRANCH  20  21
ENDBRANCH   5  20
BRANCH   5  24
ATOM     24  C   UNL     1      30.879  -7.989 -23.202  0.00  0.00    +0.226 C 
BRANCH  24  25
ATOM     25  O   UNL     1      30.730  -6.774 -22.491  0.00  0.00    -0.447 OA
BRANCH  25  27
ATOM     26  O   UNL     1      30.497  -4.508 -22.856  0.00  0.00    -0.250 OA
ATOM     27  C   UNL     1      30.826  -5.623 -23.236  0.00  0.00    +0.318 C 
BRANCH  27  28
ATOM     28  C   UNL     1      31.399  -5.953 -24.597  0.00  0.00    +0.121 C 
BRANCH  28  29
ATOM     29  C   UNL     1      32.086  -4.766 -25.260  0.00  0.00    +0.121 C 
BRANCH  29  31
ATOM     30  O   UNL     1      33.227  -4.932 -27.384  0.00  0.00    -0.250 OA
ATOM     31  C   UNL     1      33.181  -5.220 -26.195  0.00  0.00    +0.314 C 
BRANCH  31  32
ATOM     32  O   UNL     1      34.126  -5.965 -25.571  0.00  0.00    -0.480 OA
ATOM     33  H   UNL     1      34.977  -6.059 -25.954  0.00  0.00    +0.295 HD
ENDBRANCH  31  32
ENDBRANCH  29  31
ENDBRANCH  28  29
ENDBRANCH  27  28
ENDBRANCH  25  27
ENDBRANCH  24  25
ENDBRANCH   5  24
TORSDOF 12
ENDMDL
MODEL 3
REMARK VINA RESULT:      -7.2      8.002     11.374
REMARK  Name = 5362
REMARK  12 active torsions:
REMARK  status: ('A' for Active; 'I' for Inactive)
REMARK    1  A    between atoms: N_3  and  C_8
REMARK    2  A    between atoms: N_4  and  C_14
REMARK    3  A    between atoms: C_5  and  C_20
REMARK    4  A    between atoms: C_5  and  C_24
REMARK    5  A    between atoms: C_20  and  C_21
REMARK    6  A    between atoms: C_21  and  C_22
REMARK    7  A    between atoms: C_24  and  O_25
REMARK    8  A    between atoms: O_25  and  C_27
REMARK    9  A    between atoms: C_27  and  C_28
REMARK   10  A    between atoms: C_28  and  C_29
REMARK   11  A    between atoms: C_29  and  C_31
REMARK   12  A    between atoms: C_31  and  O_32
REMARK                            x       y       z     vdW  Elec       q    Type
REMARK                         _______ _______ _______ _____ _____    ______ ____
ROOT
ATOM      1  O   UNL     1      33.685 -16.690 -24.342  0.00  0.00    -0.272 OA
ATOM      2  O   UNL     1      33.949 -15.101 -19.894  0.00  0.00    -0.272 OA
ATOM      3  N   UNL     1      33.287 -14.585 -23.304  0.00  0.00    -0.179 N 
ATOM      4  N   UNL     1      33.257 -14.144 -21.960  0.00  0.00    -0.179 N 
ATOM      5  C   UNL     1      33.984 -16.367 -21.960  0.00  0.00    +0.181 C 
ATOM      6  C   UNL     1      33.605 -15.951 -23.371  0.00  0.00    +0.257 C 
ATOM      7  C   UNL     1      33.775 -15.129 -21.104  0.00  0.00    +0.257 C 
ENDROOT
BRANCH   3   8
ATOM      8  C   UNL     1      33.411 -13.716 -24.431  0.00  0.00    +0.073 C 
ATOM      9  C   UNL     1      32.939 -14.122 -25.680  0.00  0.00    +0.017 C 
ATOM     10  C   UNL     1      34.002 -12.462 -24.282  0.00  0.00    +0.017 C 
ATOM     11  C   UNL     1      33.059 -13.273 -26.780  0.00  0.00    +0.001 C 
ATOM     12  C   UNL     1      34.122 -11.613 -25.382  0.00  0.00    +0.001 C 
ATOM     13  C   UNL     1      33.651 -12.018 -26.631  0.00  0.00    +0.000 C 
ENDBRANCH   3   8
BRANCH   4  14
ATOM     14  C   UNL     1      32.443 -13.072 -21.486  0.00  0.00    +0.073 C 
ATOM     15  C   UNL     1      32.408 -12.772 -20.124  0.00  0.00    +0.017 C 
ATOM     16  C   UNL     1      31.684 -12.321 -22.384  0.00  0.00    +0.017 C 
ATOM     17  C   UNL     1      31.614 -11.723 -19.661  0.00  0.00    +0.001 C 
ATOM     18  C   UNL     1      30.889 -11.273 -21.921  0.00  0.00    +0.001 C 
ATOM     19  C   UNL     1      30.855 -10.974 -20.559  0.00  0.00    +0.000 C 
ENDBRANCH   4  14
BRANCH   5  20
ATOM     20  C   UNL     1      35.452 -16.783 -21.912  0.00  0.00    +0.021 C 
BRANCH  20  21
ATOM     21  C   UNL     1      35.926 -17.299 -23.268  0.00  0.00    +0.001 C 
BRANCH  21  22
ATOM     22  C   UNL     1      36.071 -18.820 -23.260  0.00  0.00    +0.000 C 
ATOM     23  C   UNL     1      35.002 -19.486 -24.111  0.00  0.00    +0.000 C 
ENDBRANCH  21  22
ENDBRANCH  20  21
ENDBRANCH   5  20
BRANCH   5  24
ATOM     24  C   UNL     1      33.063 -17.490 -21.490  0.00  0.00    +0.226 C 
BRANCH  24  25
ATOM     25  O   UNL     1      33.824 -18.404 -20.722  0.00  0.00    -0.447 OA
BRANCH  25  27
ATOM     26  O   UNL     1      32.253 -20.085 -20.878  0.00  0.00    -0.250 OA
ATOM     27  C   UNL     1      33.412 -19.714 -20.759  0.00  0.00    +0.318 C 
BRANCH  27  28
ATOM     28  C   UNL     1      34.616 -20.622 -20.627  0.00  0.00    +0.121 C 
BRANCH  28  29
ATOM     29  C   UNL     1      34.705 -21.303 -19.267  0.00  0.00    +0.121 C 
BRANCH  29  31
ATOM     30  O   UNL     1      34.070 -23.617 -19.556  0.00  0.00    -0.250 OA
ATOM     31  C   UNL     1      33.774 -22.488 -19.186  0.00  0.00    +0.314 C 
BRANCH  31  32
ATOM     32  O   UNL     1      32.575 -22.174 -18.636  0.00  0.00    -0.480 OA
ATOM     33  H   UNL     1      31.975 -21.625 -19.102  0.00  0.00    +0.295 HD
ENDBRANCH  31  32
ENDBRANCH  29  31
ENDBRANCH  28  29
ENDBRANCH  27  28
ENDBRANCH  25  27
ENDBRANCH  24  25
ENDBRANCH   5  24
TORSDOF 12
ENDMDL
MODEL 4
REMARK VINA RESULT:      -7.1     12.468     16.485
REMARK  Name = 5362
REMARK  12 active torsions:
REMARK  status: ('A' for Active; 'I' for Inactive)
REMARK    1  A    between atoms: N_3  and  C_8
REMARK    2  A    between atoms: N_4  and  C_14
REMARK    3  A    between atoms: C_5  and  C_20
REMARK    4  A    between atoms: C_5  and  C_24
REMARK    5  A    between atoms: C_20  and  C_21
REMARK    6  A    between atoms: C_21  and  C_22
REMARK    7  A    between atoms: C_24  and  O_25
REMARK    8  A    between atoms: O_25  and  C_27
REMARK    9  A    between atoms: C_27  and  C_28
REMARK   10  A    between atoms: C_28  and  C_29
REMARK   11  A    between atoms: C_29  and  C_31
REMARK   12  A    between atoms: C_31  and  O_32
REMARK                            x       y       z     vdW  Elec       q    Type
REMARK                         _______ _______ _______ _____ _____    ______ ____
ROOT
ATOM      1  O   UNL     1      32.136 -10.920 -21.414  0.00  0.00    -0.272 OA
ATOM      2  O   UNL     1      34.121 -11.063 -25.706  0.00  0.00    -0.272 OA
ATOM      3  N   UNL     1      32.943 -12.668 -22.813  0.00  0.00    -0.179 N 
ATOM      4  N   UNL     1      33.430 -12.717 -24.141  0.00  0.00    -0.179 N 
ATOM      5  C   UNL     1      33.110 -10.468 -23.585  0.00  0.00    +0.181 C 
ATOM      6  C   UNL     1      32.618 -11.352 -22.452  0.00  0.00    +0.257 C 
ATOM      7  C   UNL     1      33.665 -11.422 -24.629  0.00  0.00    +0.257 C 
ENDROOT
BRANCH   3   8
ATOM      8  C   UNL     1      33.151 -13.697 -21.844  0.00  0.00    +0.073 C 
ATOM      9  C   UNL     1      34.448 -14.073 -21.493  0.00  0.00    +0.017 C 
ATOM     10  C   UNL     1      32.057 -14.324 -21.248  0.00  0.00    +0.017 C 
ATOM     11  C   UNL     1      34.650 -15.077 -20.546  0.00  0.00    +0.001 C 
ATOM     12  C   UNL     1      32.259 -15.328 -20.301  0.00  0.00    +0.001 C 
ATOM     13  C   UNL     1      33.556 -15.704 -19.950  0.00  0.00    +0.000 C 
ENDBRANCH   3   8
BRANCH   4  14
ATOM     14  C   UNL     1      33.296 -13.846 -25.004  0.00  0.00    +0.073 C 
ATOM     15  C   UNL     1      32.617 -13.721 -26.216  0.00  0.00    +0.017 C 
ATOM     16  C   UNL     1      33.846 -15.075 -24.637  0.00  0.00    +0.017 C 
ATOM     17  C   UNL     1      32.487 -14.824 -27.059  0.00  0.00    +0.001 C 
ATOM     18  C   UNL     1      33.716 -16.178 -25.480  0.00  0.00    +0.001 C 
ATOM     19  C   UNL     1      33.036 -16.052 -26.692  0.00  0.00    +0.000 C 
ENDBRANCH   4  14
BRANCH   5  20
ATOM     20  C   UNL     1      34.221  -9.547 -23.088  0.00  0.00    +0.021 C 
BRANCH  20  21
ATOM     21  C   UNL     1      34.825  -8.739 -24.234  0.00  0.00    +0.001 C 
BRANCH  21  22
ATOM     22  C   UNL     1      34.791  -7.241 -23.930  0.00  0.00    +0.000 C 
ATOM     23  C   UNL     1      34.280  -6.443 -25.118  0.00  0.00    +0.000 C 
ENDBRANCH  21  22
ENDBRANCH  20  21
ENDBRANCH   5  20
BRANCH   5  24
ATOM     24  C   UNL     1      31.940  -9.678 -24.167  0.00  0.00    +0.226 C 
BRANCH  24  25
ATOM     25  O   UNL     1      31.386  -8.875 -23.141  0.00  0.00    -0.447 OA
BRANCH  25  27
ATOM     26  O   UNL     1      30.763  -7.220 -24.624  0.00  0.00    -0.250 OA
ATOM     27  C   UNL     1      31.055  -7.589 -23.494  0.00  0.00    +0.318 C 
BRANCH  27  28
ATOM     28  C   UNL     1      31.111  -6.703 -22.268  0.00  0.00    +0.121 C 
BRANCH  28  29
ATOM     29  C   UNL     1      32.491  -6.660 -21.624  0.00  0.00    +0.121 C 
BRANCH  29  31
ATOM     30  O   UNL     1      32.918  -6.740 -19.247  0.00  0.00    -0.250 OA
ATOM     31  C   UNL     1      32.472  -7.283 -20.249  0.00  0.00    +0.314 C 
BRANCH  31  32
ATOM     32  O   UNL     1      31.885  -8.504 -20.237  0.00  0.00    -0.480 OA
ATOM     33  H   UNL     1      30.963  -8.583 -20.391  0.00  0.00    +0.295 HD
ENDBRANCH  31  32
ENDBRANCH  29  31
ENDBRANCH  28  29
ENDBRANCH  27  28
ENDBRANCH  25  27
ENDBRANCH  24  25
ENDBRANCH   5  24
TORSDOF 12
ENDMDL
MODEL 5
REMARK VINA RESULT:      -7.0     14.170     17.978
REMARK  Name = 5362
REMARK  12 active torsions:
REMARK  status: ('A' for Active; 'I' for Inactive)
REMARK    1  A    between atoms: N_3  and  C_8
REMARK    2  A    between atoms: N_4  and  C_14
REMARK    3  A    between atoms: C_5  and  C_20
REMARK    4  A    between atoms: C_5  and  C_24
REMARK    5  A    between atoms: C_20  and  C_21
REMARK    6  A    between atoms: C_21  and  C_22
REMARK    7  A    between atoms: C_24  and  O_25
REMARK    8  A    between atoms: O_25  and  C_27
REMARK    9  A    between atoms: C_27  and  C_28
REMARK   10  A    between atoms: C_28  and  C_29
REMARK   11  A    between atoms: C_29  and  C_31
REMARK   12  A    between atoms: C_31  and  O_32
REMARK                            x       y       z     vdW  Elec       q    Type
REMARK                         _______ _______ _______ _____ _____    ______ ____
ROOT
ATOM      1  O   UNL     1      30.637 -11.085 -21.719  0.00  0.00    -0.272 OA
ATOM      2  O   UNL     1      33.716  -8.119 -23.744  0.00  0.00    -0.272 OA
ATOM      3  N   UNL     1      32.565 -11.371 -23.085  0.00  0.00    -0.179 N 
ATOM      4  N   UNL     1      33.415 -10.479 -23.781  0.00  0.00    -0.179 N 
ATOM      5  C   UNL     1      31.926  -9.195 -22.516  0.00  0.00    +0.181 C 
ATOM      6  C   UNL     1      31.568 -10.666 -22.392  0.00  0.00    +0.257 C 
ATOM      7  C   UNL     1      33.162  -9.153 -23.397  0.00  0.00    +0.257 C 
ENDROOT
BRANCH   3   8
ATOM      8  C   UNL     1      32.904 -12.722 -22.769  0.00  0.00    +0.073 C 
ATOM      9  C   UNL     1      33.982 -13.337 -23.406  0.00  0.00    +0.017 C 
ATOM     10  C   UNL     1      32.159 -13.425 -21.823  0.00  0.00    +0.017 C 
ATOM     11  C   UNL     1      34.314 -14.657 -23.098  0.00  0.00    +0.001 C 
ATOM     12  C   UNL     1      32.490 -14.744 -21.514  0.00  0.00    +0.001 C 
ATOM     13  C   UNL     1      33.568 -15.360 -22.152  0.00  0.00    +0.000 C 
ENDBRANCH   3   8
BRANCH   4  14
ATOM     14  C   UNL     1      34.106 -10.807 -24.986  0.00  0.00    +0.073 C 
ATOM     15  C   UNL     1      33.604 -11.797 -25.831  0.00  0.00    +0.017 C 
ATOM     16  C   UNL     1      35.282 -10.135 -25.321  0.00  0.00    +0.017 C 
ATOM     17  C   UNL     1      34.279 -12.116 -27.009  0.00  0.00    +0.001 C 
ATOM     18  C   UNL     1      35.957 -10.454 -26.499  0.00  0.00    +0.001 C 
ATOM     19  C   UNL     1      35.455 -11.445 -27.343  0.00  0.00    +0.000 C 
ENDBRANCH   4  14
BRANCH   5  20
ATOM     20  C   UNL     1      32.254  -8.618 -21.141  0.00  0.00    +0.021 C 
BRANCH  20  21
ATOM     21  C   UNL     1      32.502  -9.725 -20.120  0.00  0.00    +0.001 C 
BRANCH  21  22
ATOM     22  C   UNL     1      31.467  -9.682 -18.996  0.00  0.00    +0.000 C 
ATOM     23  C   UNL     1      31.330 -11.032 -18.312  0.00  0.00    +0.000 C 
ENDBRANCH  21  22
ENDBRANCH  20  21
ENDBRANCH   5  20
BRANCH   5  24
ATOM     24  C   UNL     1      30.779  -8.441 -23.185  0.00  0.00    +0.226 C 
BRANCH  24  25
ATOM     25  O   UNL     1      31.317  -7.333 -23.883  0.00  0.00    -0.447 OA
BRANCH  25  27
ATOM     26  O   UNL     1      30.287  -5.880 -22.417  0.00  0.00    -0.250 OA
ATOM     27  C   UNL     1      31.049  -6.096 -23.349  0.00  0.00    +0.318 C 
BRANCH  27  28
ATOM     28  C   UNL     1      31.844  -5.045 -24.095  0.00  0.00    +0.121 C 
BRANCH  28  29
ATOM     29  C   UNL     1      31.051  -3.772 -24.359  0.00  0.00    +0.121 C 
BRANCH  29  31
ATOM     30  O   UNL     1      32.129  -1.943 -23.204  0.00  0.00    -0.250 OA
ATOM     31  C   UNL     1      31.231  -2.773 -23.241  0.00  0.00    +0.314 C 
BRANCH  31  32
ATOM     32  O   UNL     1      30.272  -2.878 -22.289  0.00  0.00    -0.480 OA
ATOM     33  H   UNL     1      29.497  -2.352 -22.344  0.00  0.00    +0.295 HD
ENDBRANCH  31  32
ENDBRANCH  29  31
ENDBRANCH  28  29
ENDBRANCH  27  28
ENDBRANCH  25  27
ENDBRANCH  24  25
ENDBRANCH   5  24
TORSDOF 12
ENDMDL
MODEL 6
REMARK VINA RESULT:      -7.0     13.892     17.608
REMARK  Name = 5362
REMARK  12 active torsions:
REMARK  status: ('A' for Active; 'I' for Inactive)
REMARK    1  A    between atoms: N_3  and  C_8
REMARK    2  A    between atoms: N_4  and  C_14
REMARK    3  A    between atoms: C_5  and  C_20
REMARK    4  A    between atoms: C_5  and  C_24
REMARK    5  A    between atoms: C_20  and  C_21
REMARK    6  A    between atoms: C_21  and  C_22
REMARK    7  A    between atoms: C_24  and  O_25
REMARK    8  A    between atoms: O_25  and  C_27
REMARK    9  A    between atoms: C_27  and  C_28
REMARK   10  A    between atoms: C_28  and  C_29
REMARK   11  A    between atoms: C_29  and  C_31
REMARK   12  A    between atoms: C_31  and  O_32
REMARK                            x       y       z     vdW  Elec       q    Type
REMARK                         _______ _______ _______ _____ _____    ______ ____
ROOT
ATOM      1  O   UNL     1      33.700  -8.364 -23.358  0.00  0.00    -0.272 OA
ATOM      2  O   UNL     1      30.757 -11.641 -21.633  0.00  0.00    -0.272 OA
ATOM      3  N   UNL     1      33.492 -10.719 -23.634  0.00  0.00    -0.179 N 
ATOM      4  N   UNL     1      32.684 -11.710 -23.028  0.00  0.00    -0.179 N 
ATOM      5  C   UNL     1      31.965  -9.629 -22.239  0.00  0.00    +0.181 C 
ATOM      6  C   UNL     1      33.192  -9.449 -23.116  0.00  0.00    +0.257 C 
ATOM      7  C   UNL     1      31.666 -11.118 -22.263  0.00  0.00    +0.257 C 
ENDROOT
BRANCH   3   8
ATOM      8  C   UNL     1      34.187 -10.895 -24.869  0.00  0.00    +0.073 C 
ATOM      9  C   UNL     1      33.709 -11.801 -25.816  0.00  0.00    +0.017 C 
ATOM     10  C   UNL     1      35.344 -10.160 -25.128  0.00  0.00    +0.017 C 
ATOM     11  C   UNL     1      34.388 -11.972 -27.022  0.00  0.00    +0.001 C 
ATOM     12  C   UNL     1      36.023 -10.331 -26.335  0.00  0.00    +0.001 C 
ATOM     13  C   UNL     1      35.545 -11.237 -27.282  0.00  0.00    +0.000 C 
ENDBRANCH   3   8
BRANCH   4  14
ATOM     14  C   UNL     1      33.079 -13.070 -22.852  0.00  0.00    +0.073 C 
ATOM     15  C   UNL     1      33.445 -13.532 -21.588  0.00  0.00    +0.017 C 
ATOM     16  C   UNL     1      33.098 -13.938 -23.944  0.00  0.00    +0.017 C 
ATOM     17  C   UNL     1      33.829 -14.862 -21.416  0.00  0.00    +0.001 C 
ATOM     18  C   UNL     1      33.483 -15.268 -23.772  0.00  0.00    +0.001 C 
ATOM     19  C   UNL     1      33.849 -15.729 -22.507  0.00  0.00    +0.000 C 
ENDBRANCH   4  14
BRANCH   5  20
ATOM     20  C   UNL     1      30.784  -8.858 -22.823  0.00  0.00    +0.021 C 
BRANCH  20  21
ATOM     21  C   UNL     1      31.098  -8.342 -24.225  0.00  0.00    +0.001 C 
BRANCH  21  22
ATOM     22  C   UNL     1      30.658  -6.888 -24.390  0.00  0.00    +0.000 C 
ATOM     23  C   UNL     1      31.760  -6.036 -24.996  0.00  0.00    +0.000 C 
ENDBRANCH  21  22
ENDBRANCH  20  21
ENDBRANCH   5  20
BRANCH   5  24
ATOM     24  C   UNL     1      32.281  -9.182 -20.814  0.00  0.00    +0.226 C 
BRANCH  24  25
ATOM     25  O   UNL     1      31.558  -7.995 -20.544  0.00  0.00    -0.447 OA
BRANCH  25  27
ATOM     26  O   UNL     1      32.999  -6.737 -19.254  0.00  0.00    -0.250 OA
ATOM     27  C   UNL     1      32.311  -6.882 -20.255  0.00  0.00    +0.318 C 
BRANCH  27  28
ATOM     28  C   UNL     1      32.152  -5.867 -21.366  0.00  0.00    +0.121 C 
BRANCH  28  29
ATOM     29  C   UNL     1      30.764  -5.240 -21.409  0.00  0.00    +0.121 C 
BRANCH  29  31
ATOM     30  O   UNL     1      29.828  -3.154 -22.191  0.00  0.00    -0.250 OA
ATOM     31  C   UNL     1      30.783  -3.918 -22.136  0.00  0.00    +0.314 C 
BRANCH  31  32
ATOM     32  O   UNL     1      31.984  -3.652 -22.706  0.00  0.00    -0.480 OA
ATOM     33  H   UNL     1      32.071  -3.655 -23.639  0.00  0.00    +0.295 HD
ENDBRANCH  31  32
ENDBRANCH  29  31
ENDBRANCH  28  29
ENDBRANCH  27  28
ENDBRANCH  25  27
ENDBRANCH  24  25
ENDBRANCH   5  24
TORSDOF 12
ENDMDL
MODEL 7
REMARK VINA RESULT:      -6.9      7.519     11.217
REMARK  Name = 5362
REMARK  12 active torsions:
REMARK  status: ('A' for Active; 'I' for Inactive)
REMARK    1  A    between atoms: N_3  and  C_8
REMARK    2  A    between atoms: N_4  and  C_14
REMARK    3  A    between atoms: C_5  and  C_20
REMARK    4  A    between atoms: C_5  and  C_24
REMARK    5  A    between atoms: C_20  and  C_21
REMARK    6  A    between atoms: C_21  and  C_22
REMARK    7  A    between atoms: C_24  and  O_25
REMARK    8  A    between atoms: O_25  and  C_27
REMARK    9  A    between atoms: C_27  and  C_28
REMARK   10  A    between atoms: C_28  and  C_29
REMARK   11  A    between atoms: C_29  and  C_31
REMARK   12  A    between atoms: C_31  and  O_32
REMARK                            x       y       z     vdW  Elec       q    Type
REMARK                         _______ _______ _______ _____ _____    ______ ____
ROOT
ATOM      1  O   UNL     1      34.850 -16.248 -20.772  0.00  0.00    -0.272 OA
ATOM      2  O   UNL     1      33.978 -17.407 -25.274  0.00  0.00    -0.272 OA
ATOM      3  N   UNL     1      33.814 -15.134 -22.602  0.00  0.00    -0.179 N 
ATOM      4  N   UNL     1      33.657 -15.440 -23.975  0.00  0.00    -0.179 N 
ATOM      5  C   UNL     1      34.623 -17.301 -22.941  0.00  0.00    +0.181 C 
ATOM      6  C   UNL     1      34.496 -16.166 -21.939  0.00  0.00    +0.257 C 
ATOM      7  C   UNL     1      34.018 -16.772 -24.230  0.00  0.00    +0.257 C 
ENDROOT
BRANCH   3   8
ATOM      8  C   UNL     1      33.038 -14.160 -21.903  0.00  0.00    +0.073 C 
ATOM      9  C   UNL     1      32.975 -14.186 -20.510  0.00  0.00    +0.017 C 
ATOM     10  C   UNL     1      32.344 -13.181 -22.615  0.00  0.00    +0.017 C 
ATOM     11  C   UNL     1      32.218 -13.233 -19.828  0.00  0.00    +0.001 C 
ATOM     12  C   UNL     1      31.587 -12.228 -21.933  0.00  0.00    +0.001 C 
ATOM     13  C   UNL     1      31.524 -12.255 -20.539  0.00  0.00    +0.000 C 
ENDBRANCH   3   8
BRANCH   4  14
ATOM     14  C   UNL     1      33.573 -14.460 -25.010  0.00  0.00    +0.073 C 
ATOM     15  C   UNL     1      32.964 -14.779 -26.224  0.00  0.00    +0.017 C 
ATOM     16  C   UNL     1      34.098 -13.183 -24.807  0.00  0.00    +0.017 C 
ATOM     17  C   UNL     1      32.880 -13.821 -27.234  0.00  0.00    +0.001 C 
ATOM     18  C   UNL     1      34.014 -12.225 -25.818  0.00  0.00    +0.001 C 
ATOM     19  C   UNL     1      33.405 -12.545 -27.032  0.00  0.00    +0.000 C 
ENDBRANCH   4  14
BRANCH   5  20
ATOM     20  C   UNL     1      33.832 -18.515 -22.462  0.00  0.00    +0.021 C 
BRANCH  20  21
ATOM     21  C   UNL     1      33.405 -18.359 -21.004  0.00  0.00    +0.001 C 
BRANCH  21  22
ATOM     22  C   UNL     1      32.418 -19.452 -20.598  0.00  0.00    +0.000 C 
ATOM     23  C   UNL     1      33.136 -20.718 -20.163  0.00  0.00    +0.000 C 
ENDBRANCH  21  22
ENDBRANCH  20  21
ENDBRANCH   5  20
BRANCH   5  24
ATOM     24  C   UNL     1      36.097 -17.637 -23.154  0.00  0.00    +0.226 C 
BRANCH  24  25
ATOM     25  O   UNL     1      36.346 -18.926 -22.625  0.00  0.00    -0.447 OA
BRANCH  25  27
ATOM     26  O   UNL     1      38.506 -18.737 -21.836  0.00  0.00    -0.250 OA
ATOM     27  C   UNL     1      37.325 -19.006 -21.664  0.00  0.00    +0.318 C 
BRANCH  27  28
ATOM     28  C   UNL     1      36.713 -19.480 -20.363  0.00  0.00    +0.121 C 
BRANCH  28  29
ATOM     29  C   UNL     1      36.748 -20.995 -20.203  0.00  0.00    +0.121 C 
BRANCH  29  31
ATOM     30  O   UNL     1      35.709 -22.333 -18.480  0.00  0.00    -0.250 OA
ATOM     31  C   UNL     1      36.444 -21.402 -18.782  0.00  0.00    +0.314 C 
BRANCH  31  32
ATOM     32  O   UNL     1      37.093 -20.639 -17.869  0.00  0.00    -0.480 OA
ATOM     33  H   UNL     1      37.859 -20.970 -17.440  0.00  0.00    +0.295 HD
ENDBRANCH  31  32
ENDBRANCH  29  31
ENDBRANCH  28  29
ENDBRANCH  27  28
ENDBRANCH  25  27
ENDBRANCH  24  25
ENDBRANCH   5  24
TORSDOF 12
ENDMDL
MODEL 8
REMARK VINA RESULT:      -6.9      3.534      7.654
REMARK  Name = 5362
REMARK  12 active torsions:
REMARK  status: ('A' for Active; 'I' for Inactive)
REMARK    1  A    between atoms: N_3  and  C_8
REMARK    2  A    between atoms: N_4  and  C_14
REMARK    3  A    between atoms: C_5  and  C_20
REMARK    4  A    between atoms: C_5  and  C_24
REMARK    5  A    between atoms: C_20  and  C_21
REMARK    6  A    between atoms: C_21  and  C_22
REMARK    7  A    between atoms: C_24  and  O_25
REMARK    8  A    between atoms: O_25  and  C_27
REMARK    9  A    between atoms: C_27  and  C_28
REMARK   10  A    between atoms: C_28  and  C_29
REMARK   11  A    between atoms: C_29  and  C_31
REMARK   12  A    between atoms: C_31  and  O_32
REMARK                            x       y       z     vdW  Elec       q    Type
REMARK                         _______ _______ _______ _____ _____    ______ ____
ROOT
ATOM      1  O   UNL     1      32.332 -25.524 -14.292  0.00  0.00    -0.272 OA
ATOM      2  O   UNL     1      31.325 -21.959 -17.234  0.00  0.00    -0.272 OA
ATOM      3  N   UNL     1      33.643 -24.038 -15.609  0.00  0.00    -0.179 N 
ATOM      4  N   UNL     1      33.334 -23.050 -16.574  0.00  0.00    -0.179 N 
ATOM      5  C   UNL     1      31.318 -23.803 -15.662  0.00  0.00    +0.181 C 
ATOM      6  C   UNL     1      32.470 -24.619 -15.102  0.00  0.00    +0.257 C 
ATOM      7  C   UNL     1      31.958 -22.774 -16.577  0.00  0.00    +0.257 C 
ENDROOT
BRANCH   3   8
ATOM      8  C   UNL     1      34.897 -24.136 -14.935  0.00  0.00    +0.073 C 
ATOM      9  C   UNL     1      35.238 -23.203 -13.955  0.00  0.00    +0.017 C 
ATOM     10  C   UNL     1      35.782 -25.166 -15.255  0.00  0.00    +0.017 C 
ATOM     11  C   UNL     1      36.463 -23.300 -13.296  0.00  0.00    +0.001 C 
ATOM     12  C   UNL     1      37.008 -25.262 -14.596  0.00  0.00    +0.001 C 
ATOM     13  C   UNL     1      37.348 -24.329 -13.616  0.00  0.00    +0.000 C 
ENDBRANCH   3   8
BRANCH   4  14
ATOM     14  C   UNL     1      34.185 -22.701 -17.666  0.00  0.00    +0.073 C 
ATOM     15  C   UNL     1      35.439 -22.141 -17.421  0.00  0.00    +0.017 C 
ATOM     16  C   UNL     1      33.764 -22.922 -18.978  0.00  0.00    +0.017 C 
ATOM     17  C   UNL     1      36.271 -21.801 -18.488  0.00  0.00    +0.001 C 
ATOM     18  C   UNL     1      34.596 -22.583 -20.045  0.00  0.00    +0.001 C 
ATOM     19  C   UNL     1      35.850 -22.022 -19.799  0.00  0.00    +0.000 C 
ENDBRANCH   4  14
BRANCH   5  20
ATOM     20  C   UNL     1      30.577 -23.095 -14.530  0.00  0.00    +0.021 C 
BRANCH  20  21
ATOM     21  C   UNL     1      31.551 -22.421 -13.567  0.00  0.00    +0.001 C 
BRANCH  21  22
ATOM     22  C   UNL     1      31.323 -22.893 -12.132  0.00  0.00    +0.000 C 
ATOM     23  C   UNL     1      30.225 -23.940 -12.057  0.00  0.00    +0.000 C 
ENDBRANCH  21  22
ENDBRANCH  20  21
ENDBRANCH   5  20
BRANCH   5  24
ATOM     24  C   UNL     1      30.387 -24.711 -16.464  0.00  0.00    +0.226 C 
BRANCH  24  25
ATOM     25  O   UNL     1      29.070 -24.555 -15.968  0.00  0.00    -0.447 OA
BRANCH  25  27
ATOM     26  O   UNL     1      27.556 -24.590 -17.708  0.00  0.00    -0.250 OA
ATOM     27  C   UNL     1      28.163 -23.990 -16.832  0.00  0.00    +0.318 C 
BRANCH  27  28
ATOM     28  C   UNL     1      28.038 -22.512 -16.531  0.00  0.00    +0.121 C 
BRANCH  28  29
ATOM     29  C   UNL     1      26.594 -22.025 -16.517  0.00  0.00    +0.121 C 
BRANCH  29  31
ATOM     30  O   UNL     1      26.109 -20.077 -17.862  0.00  0.00    -0.250 OA
ATOM     31  C   UNL     1      26.251 -21.291 -17.790  0.00  0.00    +0.314 C 
BRANCH  31  32
ATOM     32  O   UNL     1      26.142 -22.119 -18.858  0.00  0.00    -0.480 OA
ATOM     33  H   UNL     1      26.768 -22.071 -19.554  0.00  0.00    +0.295 HD
ENDBRANCH  31  32
ENDBRANCH  29  31
ENDBRANCH  28  29
ENDBRANCH  27  28
ENDBRANCH  25  27
ENDBRANCH  24  25
ENDBRANCH   5  24
TORSDOF 12
ENDMDL
MODEL 9
REMARK VINA RESULT:      -6.2     13.680     17.624
REMARK  Name = 5362
REMARK  12 active torsions:
REMARK  status: ('A' for Active; 'I' for Inactive)
REMARK    1  A    between atoms: N_3  and  C_8
REMARK    2  A    between atoms: N_4  and  C_14
REMARK    3  A    between atoms: C_5  and  C_20
REMARK    4  A    between atoms: C_5  and  C_24
REMARK    5  A    between atoms: C_20  and  C_21
REMARK    6  A    between atoms: C_21  and  C_22
REMARK    7  A    between atoms: C_24  and  O_25
REMARK    8  A    between atoms: O_25  and  C_27
REMARK    9  A    between atoms: C_27  and  C_28
REMARK   10  A    between atoms: C_28  and  C_29
REMARK   11  A    between atoms: C_29  and  C_31
REMARK   12  A    between atoms: C_31  and  O_32
REMARK                            x       y       z     vdW  Elec       q    Type
REMARK                         _______ _______ _______ _____ _____    ______ ____
ROOT
ATOM      1  O   UNL     1      31.684 -10.778 -21.031  0.00  0.00    -0.272 OA
ATOM      2  O   UNL     1      33.606  -9.887 -25.261  0.00  0.00    -0.272 OA
ATOM      3  N   UNL     1      32.718 -12.122 -22.700  0.00  0.00    -0.179 N 
ATOM      4  N   UNL     1      33.188 -11.869 -24.011  0.00  0.00    -0.179 N 
ATOM      5  C   UNL     1      32.549  -9.821 -23.081  0.00  0.00    +0.181 C 
ATOM      6  C   UNL     1      32.208 -10.949 -22.122  0.00  0.00    +0.257 C 
ATOM      7  C   UNL     1      33.224 -10.489 -24.267  0.00  0.00    +0.257 C 
ENDROOT
BRANCH   3   8
ATOM      8  C   UNL     1      33.089 -13.259 -21.921  0.00  0.00    +0.073 C 
ATOM      9  C   UNL     1      32.139 -13.897 -21.122  0.00  0.00    +0.017 C 
ATOM     10  C   UNL     1      34.400 -13.733 -21.958  0.00  0.00    +0.017 C 
ATOM     11  C   UNL     1      32.501 -15.008 -20.361  0.00  0.00    +0.001 C 
ATOM     12  C   UNL     1      34.762 -14.844 -21.197  0.00  0.00    +0.001 C 
ATOM     13  C   UNL     1      33.813 -15.482 -20.399  0.00  0.00    +0.000 C 
ENDBRANCH   3   8
BRANCH   4  14
ATOM     14  C   UNL     1      33.209 -12.840 -25.057  0.00  0.00    +0.073 C 
ATOM     15  C   UNL     1      32.939 -14.179 -24.771  0.00  0.00    +0.017 C 
ATOM     16  C   UNL     1      33.497 -12.451 -26.366  0.00  0.00    +0.017 C 
ATOM     17  C   UNL     1      32.958 -15.127 -25.793  0.00  0.00    +0.001 C 
ATOM     18  C   UNL     1      33.515 -13.400 -27.388  0.00  0.00    +0.001 C 
ATOM     19  C   UNL     1      33.246 -14.739 -27.101  0.00  0.00    +0.000 C 
ENDBRANCH   4  14
BRANCH   5  20
ATOM     20  C   UNL     1      33.520  -8.846 -22.420  0.00  0.00    +0.021 C 
BRANCH  20  21
ATOM     21  C   UNL     1      34.697  -8.527 -23.338  0.00  0.00    +0.001 C 
BRANCH  21  22
ATOM     22  C   UNL     1      34.837  -7.021 -23.554  0.00  0.00    +0.000 C 
ATOM     23  C   UNL     1      34.650  -6.647 -25.015  0.00  0.00    +0.000 C 
ENDBRANCH  21  22
ENDBRANCH  20  21
ENDBRANCH   5  20
BRANCH   5  24
ATOM     24  C   UNL     1      31.268  -9.124 -23.531  0.00  0.00    +0.226 C 
BRANCH  24  25
ATOM     25  O   UNL     1      31.606  -7.848 -24.043  0.00  0.00    -0.447 OA
BRANCH  25  27
ATOM     26  O   UNL     1      30.884  -6.746 -22.149  0.00  0.00    -0.250 OA
ATOM     27  C   UNL     1      31.111  -6.769 -23.351  0.00  0.00    +0.318 C 
BRANCH  27  28
ATOM     28  C   UNL     1      30.888  -5.619 -24.309  0.00  0.00    +0.121 C 
BRANCH  28  29
ATOM     29  C   UNL     1      31.858  -4.464 -24.092  0.00  0.00    +0.121 C 
BRANCH  29  31
ATOM     30  O   UNL     1      31.353  -2.159 -23.567  0.00  0.00    -0.250 OA
ATOM     31  C   UNL     1      31.212  -3.347 -23.308  0.00  0.00    +0.314 C 
BRANCH  31  32
ATOM     32  O   UNL     1      30.436  -3.802 -22.294  0.00  0.00    -0.480 OA
ATOM     33  H   UNL     1      30.806  -3.934 -21.443  0.00  0.00    +0.295 HD
ENDBRANCH  31  32
ENDBRANCH  29  31
ENDBRANCH  28  29
ENDBRANCH  27  28
ENDBRANCH  25  27
ENDBRANCH  24  25
ENDBRANCH   5  24
TORSDOF 12
ENDMDL
