MODEL 1
REMARK VINA RESULT:     -11.0      0.000      0.000
REMARK  Name = 24856363
REMARK  6 active torsions:
REMARK  status: ('A' for Active; 'I' for Inactive)
REMARK    1  A    between atoms: C_1  and  C_24
REMARK    2  A    between atoms: C_3  and  C_9
REMARK    3  A    between atoms: C_8  and  C_16
REMARK    4  A    between atoms: N_15  and  C_18
REMARK    5  A    between atoms: C_18  and  C_19
REMARK    6  A    between atoms: N_23  and  C_26
REMARK                            x       y       z     vdW  Elec       q    Type
REMARK                         _______ _______ _______ _____ _____    ______ ____
ROOT
ATOM      1  C   UNL     1      34.362 -15.649 -23.332  0.00  0.00    +0.053 C 
ATOM      2  C   UNL     1      34.357 -16.662 -22.374  0.00  0.00    +0.004 C 
ATOM      3  C   UNL     1      34.527 -17.990 -22.763  0.00  0.00    -0.004 C 
ATOM      4  C   UNL     1      34.536 -15.963 -24.680  0.00  0.00    +0.004 C 
ATOM      5  C   UNL     1      34.701 -18.305 -24.111  0.00  0.00    -0.022 C 
ATOM      6  C   UNL     1      34.706 -17.291 -25.069  0.00  0.00    -0.004 C 
ATOM      7  C   UNL     1      34.886 -19.717 -24.566  0.00  0.00    +0.031 C 
ENDROOT
BRANCH   3   9
ATOM      8  C   UNL     1      34.495 -21.013 -19.795  0.00  0.00    +0.053 C 
ATOM      9  C   UNL     1      34.518 -19.023 -21.751  0.00  0.00    -0.000 C 
ATOM     10  C   UNL     1      35.709 -20.524 -20.278  0.00  0.00    +0.005 C 
ATOM     11  C   UNL     1      33.293 -20.508 -20.290  0.00  0.00    +0.005 C 
ATOM     12  C   UNL     1      35.720 -19.529 -21.256  0.00  0.00    +0.000 C 
ATOM     13  C   UNL     1      33.304 -19.513 -21.267  0.00  0.00    +0.000 C 
BRANCH   8  16
ATOM     14  O   UNL     1      35.546 -22.450 -18.269  0.00  0.00    -0.270 OA
ATOM     15  N   UNL     1      33.232 -22.548 -18.390  0.00  0.00    -0.301 N 
ATOM     16  C   UNL     1      34.483 -22.051 -18.776  0.00  0.00    +0.246 C 
ATOM     17  H   UNL     1      32.431 -22.186 -18.833  0.00  0.00    +0.150 HD
BRANCH  15  18
ATOM     18  C   UNL     1      33.055 -23.561 -17.376  0.00  0.00    +0.090 C 
BRANCH  18  19
ATOM     19  C   UNL     1      32.241 -23.047 -16.237  0.00  0.00    +0.020 C 
ATOM     20  C   UNL     1      31.273 -23.967 -15.552  0.00  0.00    +0.002 C 
ATOM     21  C   UNL     1      30.765 -22.853 -16.420  0.00  0.00    +0.002 C 
ENDBRANCH  18  19
ENDBRANCH  15  18
ENDBRANCH   8  16
ENDBRANCH   3   9
BRANCH   1  24
ATOM     22  O   UNL     1      34.100 -13.964 -21.722  0.00  0.00    -0.270 OA
ATOM     23  N   UNL     1      34.139 -13.303 -23.944  0.00  0.00    -0.302 N 
ATOM     24  C   UNL     1      34.185 -14.263 -22.926  0.00  0.00    +0.246 C 
ATOM     25  H   UNL     1      34.212 -13.610 -24.877  0.00  0.00    +0.150 HD
BRANCH  23  26
ATOM     26  C   UNL     1      33.993 -11.886 -23.701  0.00  0.00    +0.072 C 
ATOM     27  C   UNL     1      33.095 -11.042 -24.557  0.00  0.00    +0.021 C 
ATOM     28  C   UNL     1      34.584 -10.872 -24.634  0.00  0.00    +0.021 C 
ENDBRANCH  23  26
ENDBRANCH   1  24
TORSDOF 6
ENDMDL
MODEL 2
REMARK VINA RESULT:     -10.8      1.660      2.185
REMARK  Name = 24856363
REMARK  6 active torsions:
REMARK  status: ('A' for Active; 'I' for Inactive)
REMARK    1  A    between atoms: C_1  and  C_24
REMARK    2  A    between atoms: C_3  and  C_9
REMARK    3  A    between atoms: C_8  and  C_16
REMARK    4  A    between atoms: N_15  and  C_18
REMARK    5  A    between atoms: C_18  and  C_19
REMARK    6  A    between atoms: N_23  and  C_26
REMARK                            x       y       z     vdW  Elec       q    Type
REMARK                         _______ _______ _______ _____ _____    ______ ____
ROOT
ATOM      1  C   UNL     1      34.089 -15.384 -23.376  0.00  0.00    +0.053 C 
ATOM      2  C   UNL     1      34.354 -16.378 -22.434  0.00  0.00    +0.004 C 
ATOM      3  C   UNL     1      34.626 -17.680 -22.851  0.00  0.00    -0.004 C 
ATOM      4  C   UNL     1      34.095 -15.694 -24.736  0.00  0.00    +0.004 C 
ATOM      5  C   UNL     1      34.631 -17.990 -24.210  0.00  0.00    -0.022 C 
ATOM      6  C   UNL     1      34.366 -16.997 -25.153  0.00  0.00    -0.004 C 
ATOM      7  C   UNL     1      34.916 -19.375 -24.696  0.00  0.00    +0.031 C 
ENDROOT
BRANCH   3   9
ATOM      8  C   UNL     1      35.424 -20.647 -19.933  0.00  0.00    +0.053 C 
ATOM      9  C   UNL     1      34.897 -18.693 -21.853  0.00  0.00    -0.000 C 
ATOM     10  C   UNL     1      34.114 -20.417 -20.353  0.00  0.00    +0.005 C 
ATOM     11  C   UNL     1      36.471 -19.898 -20.472  0.00  0.00    +0.005 C 
ATOM     12  C   UNL     1      33.851 -19.441 -21.314  0.00  0.00    +0.000 C 
ATOM     13  C   UNL     1      36.207 -18.922 -21.433  0.00  0.00    +0.000 C 
BRANCH   8  16
ATOM     14  O   UNL     1      35.132 -22.770 -18.982  0.00  0.00    -0.270 OA
ATOM     15  N   UNL     1      36.637 -21.345 -17.941  0.00  0.00    -0.301 N 
ATOM     16  C   UNL     1      35.700 -21.664 -18.931  0.00  0.00    +0.246 C 
ATOM     17  H   UNL     1      37.050 -20.451 -17.962  0.00  0.00    +0.150 HD
BRANCH  15  18
ATOM     18  C   UNL     1      37.034 -22.257 -16.894  0.00  0.00    +0.090 C 
BRANCH  18  19
ATOM     19  C   UNL     1      36.094 -22.192 -15.739  0.00  0.00    +0.020 C 
ATOM     20  C   UNL     1      36.246 -23.174 -14.613  0.00  0.00    +0.002 C 
ATOM     21  C   UNL     1      35.082 -23.284 -15.554  0.00  0.00    +0.002 C 
ENDBRANCH  18  19
ENDBRANCH  15  18
ENDBRANCH   8  16
ENDBRANCH   3   9
BRANCH   1  24
ATOM     22  O   UNL     1      33.377 -13.806 -21.795  0.00  0.00    -0.270 OA
ATOM     23  N   UNL     1      34.063 -12.998 -23.858  0.00  0.00    -0.302 N 
ATOM     24  C   UNL     1      33.807 -14.025 -22.942  0.00  0.00    +0.246 C 
ATOM     25  H   UNL     1      34.402 -13.243 -24.749  0.00  0.00    +0.150 HD
BRANCH  23  26
ATOM     26  C   UNL     1      33.857 -11.598 -23.567  0.00  0.00    +0.072 C 
ATOM     27  C   UNL     1      33.121 -10.708 -24.525  0.00  0.00    +0.021 C 
ATOM     28  C   UNL     1      34.596 -10.531 -24.318  0.00  0.00    +0.021 C 
ENDBRANCH  23  26
ENDBRANCH   1  24
TORSDOF 6
ENDMDL
MODEL 3
REMARK VINA RESULT:     -10.4      2.371      9.944
REMARK  Name = 24856363
REMARK  6 active torsions:
REMARK  status: ('A' for Active; 'I' for Inactive)
REMARK    1  A    between atoms: C_1  and  C_24
REMARK    2  A    between atoms: C_3  and  C_9
REMARK    3  A    between atoms: C_8  and  C_16
REMARK    4  A    between atoms: N_15  and  C_18
REMARK    5  A    between atoms: C_18  and  C_19
REMARK    6  A    between atoms: N_23  and  C_26
REMARK                            x       y       z     vdW  Elec       q    Type
REMARK                         _______ _______ _______ _____ _____    ______ ____
ROOT
ATOM      1  C   UNL     1      34.927 -18.281 -22.335  0.00  0.00    +0.053 C 
ATOM      2  C   UNL     1      34.447 -16.982 -22.169  0.00  0.00    +0.004 C 
ATOM      3  C   UNL     1      34.098 -16.219 -23.282  0.00  0.00    -0.004 C 
ATOM      4  C   UNL     1      35.057 -18.818 -23.616  0.00  0.00    +0.004 C 
ATOM      5  C   UNL     1      34.228 -16.756 -24.563  0.00  0.00    -0.022 C 
ATOM      6  C   UNL     1      34.708 -18.055 -24.730  0.00  0.00    -0.004 C 
ATOM      7  C   UNL     1      33.864 -15.969 -25.781  0.00  0.00    +0.031 C 
ENDROOT
BRANCH   3   9
ATOM      8  C   UNL     1      32.645 -12.283 -22.698  0.00  0.00    +0.053 C 
ATOM      9  C   UNL     1      33.603 -14.874 -23.083  0.00  0.00    -0.000 C 
ATOM     10  C   UNL     1      33.613 -12.531 -23.671  0.00  0.00    +0.005 C 
ATOM     11  C   UNL     1      32.157 -13.330 -21.917  0.00  0.00    +0.005 C 
ATOM     12  C   UNL     1      34.092 -13.827 -23.864  0.00  0.00    +0.000 C 
ATOM     13  C   UNL     1      32.635 -14.626 -22.110  0.00  0.00    +0.000 C 
BRANCH   8  16
ATOM     14  O   UNL     1      31.339 -10.687 -21.581  0.00  0.00    -0.270 OA
ATOM     15  N   UNL     1      32.631  -9.940 -23.357  0.00  0.00    -0.301 N 
ATOM     16  C   UNL     1      32.146 -10.931 -22.496  0.00  0.00    +0.246 C 
ATOM     17  H   UNL     1      33.268 -10.204 -24.059  0.00  0.00    +0.150 HD
BRANCH  15  18
ATOM     18  C   UNL     1      32.248  -8.549 -23.268  0.00  0.00    +0.090 C 
BRANCH  18  19
ATOM     19  C   UNL     1      33.441  -7.673 -23.088  0.00  0.00    +0.020 C 
ATOM     20  C   UNL     1      33.984  -6.922 -24.268  0.00  0.00    +0.002 C 
ATOM     21  C   UNL     1      34.749  -8.081 -23.700  0.00  0.00    +0.002 C 
ENDBRANCH  18  19
ENDBRANCH  15  18
ENDBRANCH   8  16
ENDBRANCH   3   9
BRANCH   1  24
ATOM     22  O   UNL     1      36.368 -18.876 -20.583  0.00  0.00    -0.270 OA
ATOM     23  N   UNL     1      34.372 -20.044 -20.751  0.00  0.00    -0.302 N 
ATOM     24  C   UNL     1      35.291 -19.077 -21.173  0.00  0.00    +0.246 C 
ATOM     25  H   UNL     1      33.539 -20.151 -21.266  0.00  0.00    +0.150 HD
BRANCH  23  26
ATOM     26  C   UNL     1      34.578 -20.896 -19.602  0.00  0.00    +0.072 C 
ATOM     27  C   UNL     1      34.891 -22.354 -19.765  0.00  0.00    +0.021 C 
ATOM     28  C   UNL     1      33.565 -21.929 -19.208  0.00  0.00    +0.021 C 
ENDBRANCH  23  26
ENDBRANCH   1  24
TORSDOF 6
ENDMDL
MODEL 4
REMARK VINA RESULT:     -10.3      3.074     10.512
REMARK  Name = 24856363
REMARK  6 active torsions:
REMARK  status: ('A' for Active; 'I' for Inactive)
REMARK    1  A    between atoms: C_1  and  C_24
REMARK    2  A    between atoms: C_3  and  C_9
REMARK    3  A    between atoms: C_8  and  C_16
REMARK    4  A    between atoms: N_15  and  C_18
REMARK    5  A    between atoms: C_18  and  C_19
REMARK    6  A    between atoms: N_23  and  C_26
REMARK                            x       y       z     vdW  Elec       q    Type
REMARK                         _______ _______ _______ _____ _____    ______ ____
ROOT
ATOM      1  C   UNL     1      34.779 -16.996 -22.556  0.00  0.00    +0.053 C 
ATOM      2  C   UNL     1      34.321 -15.689 -22.398  0.00  0.00    +0.004 C 
ATOM      3  C   UNL     1      33.821 -14.987 -23.494  0.00  0.00    -0.004 C 
ATOM      4  C   UNL     1      34.738 -17.603 -23.811  0.00  0.00    +0.004 C 
ATOM      5  C   UNL     1      33.781 -15.594 -24.750  0.00  0.00    -0.022 C 
ATOM      6  C   UNL     1      34.240 -16.901 -24.908  0.00  0.00    -0.004 C 
ATOM      7  C   UNL     1      33.253 -14.874 -25.949  0.00  0.00    +0.031 C 
ENDROOT
BRANCH   3   9
ATOM      8  C   UNL     1      32.453 -11.016 -22.939  0.00  0.00    +0.053 C 
ATOM      9  C   UNL     1      33.352 -13.632 -23.305  0.00  0.00    -0.000 C 
ATOM     10  C   UNL     1      31.896 -12.056 -22.194  0.00  0.00    +0.005 C 
ATOM     11  C   UNL     1      33.459 -11.285 -23.867  0.00  0.00    +0.005 C 
ATOM     12  C   UNL     1      32.346 -13.364 -22.377  0.00  0.00    +0.000 C 
ATOM     13  C   UNL     1      33.909 -12.592 -24.049  0.00  0.00    +0.000 C 
BRANCH   8  16
ATOM     14  O   UNL     1      31.673  -9.244 -21.617  0.00  0.00    -0.270 OA
ATOM     15  N   UNL     1      31.926  -8.837 -23.886  0.00  0.00    -0.301 N 
ATOM     16  C   UNL     1      31.984  -9.652 -22.749  0.00  0.00    +0.246 C 
ATOM     17  H   UNL     1      32.189  -9.225 -24.752  0.00  0.00    +0.150 HD
BRANCH  15  18
ATOM     18  C   UNL     1      31.505  -7.455 -23.855  0.00  0.00    +0.090 C 
BRANCH  18  19
ATOM     19  C   UNL     1      32.674  -6.538 -23.733  0.00  0.00    +0.020 C 
ATOM     20  C   UNL     1      33.244  -5.908 -24.971  0.00  0.00    +0.002 C 
ATOM     21  C   UNL     1      34.010  -6.981 -24.253  0.00  0.00    +0.002 C 
ENDBRANCH  18  19
ENDBRANCH  15  18
ENDBRANCH   8  16
ENDBRANCH   3   9
BRANCH   1  24
ATOM     22  O   UNL     1      35.543 -17.139 -20.343  0.00  0.00    -0.270 OA
ATOM     23  N   UNL     1      35.487 -19.106 -21.569  0.00  0.00    -0.302 N 
ATOM     24  C   UNL     1      35.300 -17.728 -21.411  0.00  0.00    +0.246 C 
ATOM     25  H   UNL     1      35.275 -19.508 -22.443  0.00  0.00    +0.150 HD
BRANCH  23  26
ATOM     26  C   UNL     1      35.973 -19.973 -20.520  0.00  0.00    +0.072 C 
ATOM     27  C   UNL     1      36.038 -21.460 -20.711  0.00  0.00    +0.021 C 
ATOM     28  C   UNL     1      35.042 -20.867 -19.757  0.00  0.00    +0.021 C 
ENDBRANCH  23  26
ENDBRANCH   1  24
TORSDOF 6
ENDMDL
MODEL 5
REMARK VINA RESULT:     -10.2      2.683      9.636
REMARK  Name = 24856363
REMARK  6 active torsions:
REMARK  status: ('A' for Active; 'I' for Inactive)
REMARK    1  A    between atoms: C_1  and  C_24
REMARK    2  A    between atoms: C_3  and  C_9
REMARK    3  A    between atoms: C_8  and  C_16
REMARK    4  A    between atoms: N_15  and  C_18
REMARK    5  A    between atoms: C_18  and  C_19
REMARK    6  A    between atoms: N_23  and  C_26
REMARK                            x       y       z     vdW  Elec       q    Type
REMARK                         _______ _______ _______ _____ _____    ______ ____
ROOT
ATOM      1  C   UNL     1      34.998 -18.428 -22.194  0.00  0.00    +0.053 C 
ATOM      2  C   UNL     1      34.421 -17.177 -21.977  0.00  0.00    +0.004 C 
ATOM      3  C   UNL     1      34.076 -16.370 -23.061  0.00  0.00    -0.004 C 
ATOM      4  C   UNL     1      35.230 -18.873 -23.495  0.00  0.00    +0.004 C 
ATOM      5  C   UNL     1      34.310 -16.814 -24.362  0.00  0.00    -0.022 C 
ATOM      6  C   UNL     1      34.887 -18.066 -24.580  0.00  0.00    -0.004 C 
ATOM      7  C   UNL     1      33.955 -15.978 -25.550  0.00  0.00    +0.031 C 
ENDROOT
BRANCH   3   9
ATOM      8  C   UNL     1      32.336 -12.578 -22.327  0.00  0.00    +0.053 C 
ATOM      9  C   UNL     1      33.480 -15.076 -22.810  0.00  0.00    -0.000 C 
ATOM     10  C   UNL     1      32.062 -13.648 -21.474  0.00  0.00    +0.005 C 
ATOM     11  C   UNL     1      33.181 -12.758 -23.421  0.00  0.00    +0.005 C 
ATOM     12  C   UNL     1      32.635 -14.896 -21.715  0.00  0.00    +0.000 C 
ATOM     13  C   UNL     1      33.754 -14.007 -23.663  0.00  0.00    +0.000 C 
BRANCH   8  16
ATOM     14  O   UNL     1      30.769 -11.164 -21.304  0.00  0.00    -0.270 OA
ATOM     15  N   UNL     1      32.318 -10.176 -22.720  0.00  0.00    -0.301 N 
ATOM     16  C   UNL     1      31.739 -11.276 -22.075  0.00  0.00    +0.246 C 
ATOM     17  H   UNL     1      33.084 -10.337 -23.317  0.00  0.00    +0.150 HD
BRANCH  15  18
ATOM     18  C   UNL     1      31.854  -8.818 -22.553  0.00  0.00    +0.090 C 
BRANCH  18  19
ATOM     19  C   UNL     1      32.728  -8.063 -21.610  0.00  0.00    +0.020 C 
ATOM     20  C   UNL     1      32.287  -7.883 -20.187  0.00  0.00    +0.002 C 
ATOM     21  C   UNL     1      32.288  -6.712 -21.126  0.00  0.00    +0.002 C 
ENDBRANCH  18  19
ENDBRANCH  15  18
ENDBRANCH   8  16
ENDBRANCH   3   9
BRANCH   1  24
ATOM     22  O   UNL     1      36.437 -19.103 -20.470  0.00  0.00    -0.270 OA
ATOM     23  N   UNL     1      34.428 -20.242 -20.674  0.00  0.00    -0.302 N 
ATOM     24  C   UNL     1      35.357 -19.270 -21.063  0.00  0.00    +0.246 C 
ATOM     25  H   UNL     1      33.592 -20.320 -21.189  0.00  0.00    +0.150 HD
BRANCH  23  26
ATOM     26  C   UNL     1      34.628 -21.137 -19.557  0.00  0.00    +0.072 C 
ATOM     27  C   UNL     1      34.602 -22.626 -19.743  0.00  0.00    +0.021 C 
ATOM     28  C   UNL     1      33.495 -21.943 -18.994  0.00  0.00    +0.021 C 
ENDBRANCH  23  26
ENDBRANCH   1  24
TORSDOF 6
ENDMDL
MODEL 6
REMARK VINA RESULT:     -10.0      1.418      9.648
REMARK  Name = 24856363
REMARK  6 active torsions:
REMARK  status: ('A' for Active; 'I' for Inactive)
REMARK    1  A    between atoms: C_1  and  C_24
REMARK    2  A    between atoms: C_3  and  C_9
REMARK    3  A    between atoms: C_8  and  C_16
REMARK    4  A    between atoms: N_15  and  C_18
REMARK    5  A    between atoms: C_18  and  C_19
REMARK    6  A    between atoms: N_23  and  C_26
REMARK                            x       y       z     vdW  Elec       q    Type
REMARK                         _______ _______ _______ _____ _____    ______ ____
ROOT
ATOM      1  C   UNL     1      34.695 -21.286 -19.590  0.00  0.00    +0.053 C 
ATOM      2  C   UNL     1      34.353 -20.177 -20.364  0.00  0.00    +0.004 C 
ATOM      3  C   UNL     1      35.351 -19.421 -20.978  0.00  0.00    -0.004 C 
ATOM      4  C   UNL     1      36.035 -21.640 -19.431  0.00  0.00    +0.004 C 
ATOM      5  C   UNL     1      36.691 -19.774 -20.818  0.00  0.00    -0.022 C 
ATOM      6  C   UNL     1      37.033 -20.883 -20.044  0.00  0.00    -0.004 C 
ATOM      7  C   UNL     1      37.788 -18.987 -21.460  0.00  0.00    +0.031 C 
ENDROOT
BRANCH   3   9
ATOM      8  C   UNL     1      34.241 -16.065 -23.314  0.00  0.00    +0.053 C 
ATOM      9  C   UNL     1      34.971 -18.275 -21.774  0.00  0.00    -0.000 C 
ATOM     10  C   UNL     1      34.385 -15.936 -21.933  0.00  0.00    +0.005 C 
ATOM     11  C   UNL     1      34.462 -17.300 -23.925  0.00  0.00    +0.005 C 
ATOM     12  C   UNL     1      34.750 -17.040 -21.163  0.00  0.00    +0.000 C 
ATOM     13  C   UNL     1      34.828 -18.404 -23.156  0.00  0.00    +0.000 C 
BRANCH   8  16
ATOM     14  O   UNL     1      33.632 -15.041 -25.334  0.00  0.00    -0.270 OA
ATOM     15  N   UNL     1      33.745 -13.687 -23.454  0.00  0.00    -0.301 N 
ATOM     16  C   UNL     1      33.860 -14.914 -24.117  0.00  0.00    +0.246 C 
ATOM     17  H   UNL     1      33.940 -13.659 -22.489  0.00  0.00    +0.150 HD
BRANCH  15  18
ATOM     18  C   UNL     1      33.354 -12.460 -24.109  0.00  0.00    +0.090 C 
BRANCH  18  19
ATOM     19  C   UNL     1      34.496 -11.506 -24.194  0.00  0.00    +0.020 C 
ATOM     20  C   UNL     1      34.218 -10.037 -24.326  0.00  0.00    +0.002 C 
ATOM     21  C   UNL     1      34.771 -10.804 -25.491  0.00  0.00    +0.002 C 
ENDBRANCH  18  19
ENDBRANCH  15  18
ENDBRANCH   8  16
ENDBRANCH   3   9
BRANCH   1  24
ATOM     22  O   UNL     1      32.537 -22.200 -19.484  0.00  0.00    -0.270 OA
ATOM     23  N   UNL     1      33.980 -22.694 -17.737  0.00  0.00    -0.302 N 
ATOM     24  C   UNL     1      33.654 -22.076 -18.950  0.00  0.00    +0.246 C 
ATOM     25  H   UNL     1      34.883 -22.553 -17.371  0.00  0.00    +0.150 HD
BRANCH  23  26
ATOM     26  C   UNL     1      33.064 -23.528 -16.994  0.00  0.00    +0.072 C 
ATOM     27  C   UNL     1      31.991 -22.926 -16.134  0.00  0.00    +0.021 C 
ATOM     28  C   UNL     1      33.150 -23.638 -15.500  0.00  0.00    +0.021 C 
ENDBRANCH  23  26
ENDBRANCH   1  24
TORSDOF 6
ENDMDL
MODEL 7
REMARK VINA RESULT:      -9.8      3.596     11.463
REMARK  Name = 24856363
REMARK  6 active torsions:
REMARK  status: ('A' for Active; 'I' for Inactive)
REMARK    1  A    between atoms: C_1  and  C_24
REMARK    2  A    between atoms: C_3  and  C_9
REMARK    3  A    between atoms: C_8  and  C_16
REMARK    4  A    between atoms: N_15  and  C_18
REMARK    5  A    between atoms: C_18  and  C_19
REMARK    6  A    between atoms: N_23  and  C_26
REMARK                            x       y       z     vdW  Elec       q    Type
REMARK                         _______ _______ _______ _____ _____    ______ ____
ROOT
ATOM      1  C   UNL     1      34.236 -15.524 -23.097  0.00  0.00    +0.053 C 
ATOM      2  C   UNL     1      34.137 -14.137 -22.993  0.00  0.00    +0.004 C 
ATOM      3  C   UNL     1      33.778 -13.378 -24.106  0.00  0.00    -0.004 C 
ATOM      4  C   UNL     1      33.976 -16.153 -24.314  0.00  0.00    +0.004 C 
ATOM      5  C   UNL     1      33.519 -14.007 -25.324  0.00  0.00    -0.022 C 
ATOM      6  C   UNL     1      33.618 -15.394 -25.428  0.00  0.00    -0.004 C 
ATOM      7  C   UNL     1      33.132 -13.227 -26.540  0.00  0.00    +0.031 C 
ENDROOT
BRANCH   3   9
ATOM      8  C   UNL     1      33.493  -9.169 -23.716  0.00  0.00    +0.053 C 
ATOM      9  C   UNL     1      33.683 -11.941 -23.973  0.00  0.00    -0.000 C 
ATOM     10  C   UNL     1      34.511  -9.730 -24.487  0.00  0.00    +0.005 C 
ATOM     11  C   UNL     1      32.570  -9.994 -23.074  0.00  0.00    +0.005 C 
ATOM     12  C   UNL     1      34.606 -11.116 -24.616  0.00  0.00    +0.000 C 
ATOM     13  C   UNL     1      32.664 -11.379 -23.203  0.00  0.00    +0.000 C 
BRANCH   8  16
ATOM     14  O   UNL     1      34.409  -7.011 -23.673  0.00  0.00    -0.270 OA
ATOM     15  N   UNL     1      32.117  -7.192 -23.370  0.00  0.00    -0.301 N 
ATOM     16  C   UNL     1      33.394  -7.724 -23.582  0.00  0.00    +0.246 C 
ATOM     17  H   UNL     1      31.357  -7.815 -23.309  0.00  0.00    +0.150 HD
BRANCH  15  18
ATOM     18  C   UNL     1      31.854  -5.777 -23.240  0.00  0.00    +0.090 C 
BRANCH  18  19
ATOM     19  C   UNL     1      31.285  -5.217 -24.500  0.00  0.00    +0.020 C 
ATOM     20  C   UNL     1      32.193  -4.509 -25.463  0.00  0.00    +0.002 C 
ATOM     21  C   UNL     1      31.191  -3.729 -24.663  0.00  0.00    +0.002 C 
ENDBRANCH  18  19
ENDBRANCH  15  18
ENDBRANCH   8  16
ENDBRANCH   3   9
BRANCH   1  24
ATOM     22  O   UNL     1      34.982 -15.761 -20.886  0.00  0.00    -0.270 OA
ATOM     23  N   UNL     1      34.510 -17.707 -22.054  0.00  0.00    -0.302 N 
ATOM     24  C   UNL     1      34.611 -16.316 -21.935  0.00  0.00    +0.246 C 
ATOM     25  H   UNL     1      34.210 -18.080 -22.915  0.00  0.00    +0.150 HD
BRANCH  23  26
ATOM     26  C   UNL     1      34.822 -18.626 -20.983  0.00  0.00    +0.072 C 
ATOM     27  C   UNL     1      35.338 -20.005 -21.272  0.00  0.00    +0.021 C 
ATOM     28  C   UNL     1      33.959 -19.822 -20.710  0.00  0.00    +0.021 C 
ENDBRANCH  23  26
ENDBRANCH   1  24
TORSDOF 6
ENDMDL
MODEL 8
REMARK VINA RESULT:      -9.6      3.808     10.428
REMARK  Name = 24856363
REMARK  6 active torsions:
REMARK  status: ('A' for Active; 'I' for Inactive)
REMARK    1  A    between atoms: C_1  and  C_24
REMARK    2  A    between atoms: C_3  and  C_9
REMARK    3  A    between atoms: C_8  and  C_16
REMARK    4  A    between atoms: N_15  and  C_18
REMARK    5  A    between atoms: C_18  and  C_19
REMARK    6  A    between atoms: N_23  and  C_26
REMARK                            x       y       z     vdW  Elec       q    Type
REMARK                         _______ _______ _______ _____ _____    ______ ____
ROOT
ATOM      1  C   UNL     1      36.299 -23.451 -15.619  0.00  0.00    +0.053 C 
ATOM      2  C   UNL     1      36.266 -22.647 -16.759  0.00  0.00    +0.004 C 
ATOM      3  C   UNL     1      35.070 -22.473 -17.454  0.00  0.00    -0.004 C 
ATOM      4  C   UNL     1      35.137 -24.080 -15.175  0.00  0.00    +0.004 C 
ATOM      5  C   UNL     1      33.908 -23.103 -17.011  0.00  0.00    -0.022 C 
ATOM      6  C   UNL     1      33.941 -23.907 -15.871  0.00  0.00    -0.004 C 
ATOM      7  C   UNL     1      32.607 -22.940 -17.730  0.00  0.00    +0.031 C 
ENDROOT
BRANCH   3   9
ATOM      8  C   UNL     1      35.049 -20.016 -20.906  0.00  0.00    +0.053 C 
ATOM      9  C   UNL     1      35.061 -21.635 -18.634  0.00  0.00    -0.000 C 
ATOM     10  C   UNL     1      33.848 -20.505 -20.391  0.00  0.00    +0.005 C 
ATOM     11  C   UNL     1      36.256 -20.337 -20.285  0.00  0.00    +0.005 C 
ATOM     12  C   UNL     1      33.855 -21.314 -19.255  0.00  0.00    +0.000 C 
ATOM     13  C   UNL     1      36.262 -21.146 -19.149  0.00  0.00    +0.000 C 
BRANCH   8  16
ATOM     14  O   UNL     1      34.836 -19.664 -23.214  0.00  0.00    -0.270 OA
ATOM     15  N   UNL     1      35.258 -17.803 -21.897  0.00  0.00    -0.301 N 
ATOM     16  C   UNL     1      35.043 -19.173 -22.091  0.00  0.00    +0.246 C 
ATOM     17  H   UNL     1      35.415 -17.481 -20.979  0.00  0.00    +0.150 HD
BRANCH  15  18
ATOM     18  C   UNL     1      35.257 -16.835 -22.970  0.00  0.00    +0.090 C 
BRANCH  18  19
ATOM     19  C   UNL     1      34.130 -15.871 -22.826  0.00  0.00    +0.020 C 
ATOM     20  C   UNL     1      33.981 -14.761 -23.825  0.00  0.00    +0.002 C 
ATOM     21  C   UNL     1      34.422 -14.456 -22.424  0.00  0.00    +0.002 C 
ENDBRANCH  18  19
ENDBRANCH  15  18
ENDBRANCH   8  16
ENDBRANCH   3   9
BRANCH   1  24
ATOM     22  O   UNL     1      37.715 -23.096 -13.784  0.00  0.00    -0.270 OA
ATOM     23  N   UNL     1      38.517 -24.446 -15.489  0.00  0.00    -0.302 N 
ATOM     24  C   UNL     1      37.547 -23.632 -14.893  0.00  0.00    +0.246 C 
ATOM     25  H   UNL     1      38.318 -24.839 -16.370  0.00  0.00    +0.150 HD
BRANCH  23  26
ATOM     26  C   UNL     1      39.795 -24.742 -14.883  0.00  0.00    +0.072 C 
ATOM     27  C   UNL     1      40.449 -26.080 -15.068  0.00  0.00    +0.021 C 
ATOM     28  C   UNL     1      39.905 -25.689 -13.725  0.00  0.00    +0.021 C 
ENDBRANCH  23  26
ENDBRANCH   1  24
TORSDOF 6
ENDMDL
MODEL 9
REMARK VINA RESULT:      -9.5      1.961      2.823
REMARK  Name = 24856363
REMARK  6 active torsions:
REMARK  status: ('A' for Active; 'I' for Inactive)
REMARK    1  A    between atoms: C_1  and  C_24
REMARK    2  A    between atoms: C_3  and  C_9
REMARK    3  A    between atoms: C_8  and  C_16
REMARK    4  A    between atoms: N_15  and  C_18
REMARK    5  A    between atoms: C_18  and  C_19
REMARK    6  A    between atoms: N_23  and  C_26
REMARK                            x       y       z     vdW  Elec       q    Type
REMARK                         _______ _______ _______ _____ _____    ______ ____
ROOT
ATOM      1  C   UNL     1      33.459 -13.965 -23.828  0.00  0.00    +0.053 C 
ATOM      2  C   UNL     1      33.852 -14.999 -22.979  0.00  0.00    +0.004 C 
ATOM      3  C   UNL     1      34.151 -16.256 -23.503  0.00  0.00    -0.004 C 
ATOM      4  C   UNL     1      33.365 -14.188 -25.202  0.00  0.00    +0.004 C 
ATOM      5  C   UNL     1      34.056 -16.480 -24.876  0.00  0.00    -0.022 C 
ATOM      6  C   UNL     1      33.663 -15.445 -25.726  0.00  0.00    -0.004 C 
ATOM      7  C   UNL     1      34.368 -17.814 -25.475  0.00  0.00    +0.031 C 
ENDROOT
BRANCH   3   9
ATOM      8  C   UNL     1      35.338 -19.352 -20.865  0.00  0.00    +0.053 C 
ATOM      9  C   UNL     1      34.555 -17.313 -22.601  0.00  0.00    -0.000 C 
ATOM     10  C   UNL     1      33.991 -19.008 -20.975  0.00  0.00    +0.005 C 
ATOM     11  C   UNL     1      36.294 -18.676 -21.624  0.00  0.00    +0.005 C 
ATOM     12  C   UNL     1      33.599 -17.989 -21.843  0.00  0.00    +0.000 C 
ATOM     13  C   UNL     1      35.902 -17.657 -22.492  0.00  0.00    +0.000 C 
BRANCH   8  16
ATOM     14  O   UNL     1      36.935 -20.518 -19.605  0.00  0.00    -0.270 OA
ATOM     15  N   UNL     1      34.747 -21.281 -19.504  0.00  0.00    -0.301 N 
ATOM     16  C   UNL     1      35.747 -20.415 -19.960  0.00  0.00    +0.246 C 
ATOM     17  H   UNL     1      33.827 -21.140 -19.826  0.00  0.00    +0.150 HD
BRANCH  15  18
ATOM     18  C   UNL     1      34.991 -22.368 -18.585  0.00  0.00    +0.090 C 
BRANCH  18  19
ATOM     19  C   UNL     1      33.749 -23.156 -18.340  0.00  0.00    +0.020 C 
ATOM     20  C   UNL     1      32.592 -22.503 -17.641  0.00  0.00    +0.002 C 
ATOM     21  C   UNL     1      33.398 -23.555 -16.937  0.00  0.00    +0.002 C 
ENDBRANCH  18  19
ENDBRANCH  15  18
ENDBRANCH   8  16
ENDBRANCH   3   9
BRANCH   1  24
ATOM     22  O   UNL     1      33.676 -11.631 -23.754  0.00  0.00    -0.270 OA
ATOM     23  N   UNL     1      32.221 -12.604 -22.233  0.00  0.00    -0.302 N 
ATOM     24  C   UNL     1      33.147 -12.653 -23.282  0.00  0.00    +0.246 C 
ATOM     25  H   UNL     1      31.842 -13.453 -21.907  0.00  0.00    +0.150 HD
BRANCH  23  26
ATOM     26  C   UNL     1      31.791 -11.377 -21.603  0.00  0.00    +0.072 C 
ATOM     27  C   UNL     1      31.662 -11.277 -20.111  0.00  0.00    +0.021 C 
ATOM     28  C   UNL     1      30.435 -11.260 -20.974  0.00  0.00    +0.021 C 
ENDBRANCH  23  26
ENDBRANCH   1  24
TORSDOF 6
ENDMDL
