MODEL 1
REMARK VINA RESULT:      -9.4      0.000      0.000
REMARK  Name = 2895
REMARK  4 active torsions:
REMARK  status: ('A' for Active; 'I' for Inactive)
REMARK    1  A    between atoms: C_1  and  C_4
REMARK    2  A    between atoms: C_4  and  C_17
REMARK    3  A    between atoms: C_17  and  C_18
REMARK    4  A    between atoms: C_18  and  N_19
REMARK                            x       y       z     vdW  Elec       q    Type
REMARK                         _______ _______ _______ _____ _____    ______ ____
ROOT
ATOM      1  C   UNL     1      35.042 -18.227 -21.712  0.00  0.00    -0.037 C 
ATOM      2  C   UNL     1      35.191 -19.465 -20.917  0.00  0.00    +0.062 C 
ATOM      3  C   UNL     1      34.239 -17.071 -21.253  0.00  0.00    -0.007 C 
ATOM      4  C   UNL     1      34.064 -20.154 -20.425  0.00  0.00    -0.015 C 
ATOM      5  C   UNL     1      32.903 -17.235 -20.836  0.00  0.00    -0.001 C 
ATOM      6  C   UNL     1      32.674 -19.755 -20.704  0.00  0.00    -0.004 C 
ATOM      7  C   UNL     1      32.182 -18.518 -20.878  0.00  0.00    -0.000 C 
ATOM      8  C   UNL     1      36.479 -19.946 -20.617  0.00  0.00    -0.018 C 
ATOM      9  C   UNL     1      34.827 -15.794 -21.202  0.00  0.00    -0.001 C 
ATOM     10  C   UNL     1      34.258 -21.330 -19.680  0.00  0.00    -0.004 C 
ATOM     11  C   UNL     1      32.181 -16.104 -20.414  0.00  0.00    -0.000 C 
ATOM     12  C   UNL     1      36.652 -21.107 -19.864  0.00  0.00    -0.004 C 
ATOM     13  C   UNL     1      34.099 -14.689 -20.766  0.00  0.00    -0.000 C 
ATOM     14  C   UNL     1      35.542 -21.801 -19.398  0.00  0.00    -0.001 C 
ATOM     15  C   UNL     1      32.775 -14.842 -20.376  0.00  0.00    -0.000 C 
ENDROOT
BRANCH   1  16
ATOM     16  C   UNL     1      35.602 -18.177 -22.937  0.00  0.00    +0.020 C 
BRANCH  16  17
ATOM     17  C   UNL     1      34.816 -18.076 -24.205  0.00  0.00    -0.018 C 
BRANCH  17  18
ATOM     18  C   UNL     1      34.984 -16.698 -24.845  0.00  0.00    -0.077 C 
BRANCH  18  19
ATOM     19  N   UNL     1      33.716 -15.978 -24.838  0.00  0.00    +0.384 N 
ATOM     20  C   UNL     1      33.162 -15.895 -26.190  0.00  0.00    -0.101 C 
ATOM     21  C   UNL     1      33.887 -14.637 -24.276  0.00  0.00    -0.101 C 
ATOM     22  H   UNL     1      33.060 -16.494 -24.250  0.00  0.00    -0.080 HD
ENDBRANCH  18  19
ENDBRANCH  17  18
ENDBRANCH  16  17
ENDBRANCH   1  16
TORSDOF 4
ENDMDL
MODEL 2
REMARK VINA RESULT:      -9.0      6.639     10.662
REMARK  Name = 2895
REMARK  4 active torsions:
REMARK  status: ('A' for Active; 'I' for Inactive)
REMARK    1  A    between atoms: C_1  and  C_4
REMARK    2  A    between atoms: C_4  and  C_17
REMARK    3  A    between atoms: C_17  and  C_18
REMARK    4  A    between atoms: C_18  and  N_19
REMARK                            x       y       z     vdW  Elec       q    Type
REMARK                         _______ _______ _______ _____ _____    ______ ____
ROOT
ATOM      1  C   UNL     1      32.150  -8.670 -23.076  0.00  0.00    -0.037 C 
ATOM      2  C   UNL     1      31.774  -7.248 -23.235  0.00  0.00    +0.062 C 
ATOM      3  C   UNL     1      31.789  -9.465 -21.881  0.00  0.00    -0.007 C 
ATOM      4  C   UNL     1      32.067  -6.301 -22.235  0.00  0.00    -0.015 C 
ATOM      5  C   UNL     1      32.086  -9.004 -20.583  0.00  0.00    -0.001 C 
ATOM      6  C   UNL     1      32.813  -6.613 -21.004  0.00  0.00    -0.004 C 
ATOM      7  C   UNL     1      32.821  -7.759 -20.304  0.00  0.00    -0.000 C 
ATOM      8  C   UNL     1      31.081  -6.840 -24.391  0.00  0.00    -0.018 C 
ATOM      9  C   UNL     1      31.107 -10.686 -22.041  0.00  0.00    -0.001 C 
ATOM     10  C   UNL     1      31.695  -4.960 -22.438  0.00  0.00    -0.004 C 
ATOM     11  C   UNL     1      31.726  -9.800 -19.481  0.00  0.00    -0.000 C 
ATOM     12  C   UNL     1      30.706  -5.509 -24.567  0.00  0.00    -0.004 C 
ATOM     13  C   UNL     1      30.745 -11.453 -20.935  0.00  0.00    -0.000 C 
ATOM     14  C   UNL     1      31.016  -4.568 -23.593  0.00  0.00    -0.001 C 
ATOM     15  C   UNL     1      31.058 -11.012 -19.655  0.00  0.00    -0.000 C 
ENDROOT
BRANCH   1  16
ATOM     16  C   UNL     1      32.917  -9.244 -24.024  0.00  0.00    +0.020 C 
BRANCH  16  17
ATOM     17  C   UNL     1      34.388  -9.472 -23.877  0.00  0.00    -0.018 C 
BRANCH  17  18
ATOM     18  C   UNL     1      34.839 -10.679 -24.699  0.00  0.00    -0.077 C 
BRANCH  18  19
ATOM     19  N   UNL     1      33.736 -11.619 -24.866  0.00  0.00    +0.384 N 
ATOM     20  C   UNL     1      33.828 -12.702 -23.886  0.00  0.00    -0.101 C 
ATOM     21  C   UNL     1      33.723 -12.163 -26.225  0.00  0.00    -0.101 C 
ATOM     22  H   UNL     1      32.862 -11.115 -24.711  0.00  0.00    -0.080 HD
ENDBRANCH  18  19
ENDBRANCH  17  18
ENDBRANCH  16  17
ENDBRANCH   1  16
TORSDOF 4
ENDMDL
MODEL 3
REMARK VINA RESULT:      -8.9      5.820      9.135
REMARK  Name = 2895
REMARK  4 active torsions:
REMARK  status: ('A' for Active; 'I' for Inactive)
REMARK    1  A    between atoms: C_1  and  C_4
REMARK    2  A    between atoms: C_4  and  C_17
REMARK    3  A    between atoms: C_17  and  C_18
REMARK    4  A    between atoms: C_18  and  N_19
REMARK                            x       y       z     vdW  Elec       q    Type
REMARK                         _______ _______ _______ _____ _____    ______ ____
ROOT
ATOM      1  C   UNL     1      34.905 -23.393 -15.823  0.00  0.00    -0.037 C 
ATOM      2  C   UNL     1      36.020 -24.248 -15.359  0.00  0.00    +0.062 C 
ATOM      3  C   UNL     1      34.882 -22.765 -17.164  0.00  0.00    -0.007 C 
ATOM      4  C   UNL     1      37.355 -23.803 -15.426  0.00  0.00    -0.015 C 
ATOM      5  C   UNL     1      35.967 -21.995 -17.625  0.00  0.00    -0.001 C 
ATOM      6  C   UNL     1      37.749 -22.461 -15.886  0.00  0.00    -0.004 C 
ATOM      7  C   UNL     1      37.161 -21.695 -16.818  0.00  0.00    -0.000 C 
ATOM      8  C   UNL     1      35.746 -25.541 -14.875  0.00  0.00    -0.018 C 
ATOM      9  C   UNL     1      33.771 -22.969 -18.005  0.00  0.00    -0.001 C 
ATOM     10  C   UNL     1      38.378 -24.652 -14.966  0.00  0.00    -0.004 C 
ATOM     11  C   UNL     1      35.892 -21.416 -18.905  0.00  0.00    -0.000 C 
ATOM     12  C   UNL     1      36.775 -26.373 -14.437  0.00  0.00    -0.004 C 
ATOM     13  C   UNL     1      33.723 -22.399 -19.275  0.00  0.00    -0.000 C 
ATOM     14  C   UNL     1      38.090 -25.928 -14.479  0.00  0.00    -0.001 C 
ATOM     15  C   UNL     1      34.781 -21.619 -19.725  0.00  0.00    -0.000 C 
ENDROOT
BRANCH   1  16
ATOM     16  C   UNL     1      33.906 -23.114 -14.963  0.00  0.00    +0.020 C 
BRANCH  16  17
ATOM     17  C   UNL     1      32.609 -23.859 -14.929  0.00  0.00    -0.018 C 
BRANCH  17  18
ATOM     18  C   UNL     1      31.428 -22.895 -14.815  0.00  0.00    -0.077 C 
BRANCH  18  19
ATOM     19  N   UNL     1      30.204 -23.627 -14.511  0.00  0.00    +0.384 N 
ATOM     20  C   UNL     1      30.468 -25.066 -14.442  0.00  0.00    -0.101 C 
ATOM     21  C   UNL     1      29.173 -23.347 -15.511  0.00  0.00    -0.101 C 
ATOM     22  H   UNL     1      29.865 -23.316 -13.601  0.00  0.00    -0.080 HD
ENDBRANCH  18  19
ENDBRANCH  17  18
ENDBRANCH  16  17
ENDBRANCH   1  16
TORSDOF 4
ENDMDL
MODEL 4
REMARK VINA RESULT:      -8.7      6.840      9.953
REMARK  Name = 2895
REMARK  4 active torsions:
REMARK  status: ('A' for Active; 'I' for Inactive)
REMARK    1  A    between atoms: C_1  and  C_4
REMARK    2  A    between atoms: C_4  and  C_17
REMARK    3  A    between atoms: C_17  and  C_18
REMARK    4  A    between atoms: C_18  and  N_19
REMARK                            x       y       z     vdW  Elec       q    Type
REMARK                         _______ _______ _______ _____ _____    ______ ____
ROOT
ATOM      1  C   UNL     1      34.592 -23.905 -15.493  0.00  0.00    -0.037 C 
ATOM      2  C   UNL     1      33.185 -23.600 -15.152  0.00  0.00    +0.062 C 
ATOM      3  C   UNL     1      35.429 -23.004 -16.318  0.00  0.00    -0.007 C 
ATOM      4  C   UNL     1      32.249 -23.272 -16.152  0.00  0.00    -0.015 C 
ATOM      5  C   UNL     1      34.985 -22.546 -17.574  0.00  0.00    -0.001 C 
ATOM      6  C   UNL     1      32.556 -23.268 -17.592  0.00  0.00    -0.004 C 
ATOM      7  C   UNL     1      33.715 -22.960 -18.195  0.00  0.00    -0.000 C 
ATOM      8  C   UNL     1      32.782 -23.605 -13.803  0.00  0.00    -0.018 C 
ATOM      9  C   UNL     1      36.675 -22.572 -15.826  0.00  0.00    -0.001 C 
ATOM     10  C   UNL     1      30.922 -22.998 -15.777  0.00  0.00    -0.004 C 
ATOM     11  C   UNL     1      35.821 -21.697 -18.321  0.00  0.00    -0.000 C 
ATOM     12  C   UNL     1      31.465 -23.316 -13.450  0.00  0.00    -0.004 C 
ATOM     13  C   UNL     1      37.482 -21.718 -16.575  0.00  0.00    -0.000 C 
ATOM     14  C   UNL     1      30.534 -23.016 -14.436  0.00  0.00    -0.001 C 
ATOM     15  C   UNL     1      37.057 -21.283 -17.824  0.00  0.00    -0.000 C 
ENDROOT
BRANCH   1  16
ATOM     16  C   UNL     1      35.110 -25.084 -15.097  0.00  0.00    +0.020 C 
BRANCH  16  17
ATOM     17  C   UNL     1      36.181 -25.214 -14.061  0.00  0.00    -0.018 C 
BRANCH  17  18
ATOM     18  C   UNL     1      37.222 -26.253 -14.478  0.00  0.00    -0.077 C 
BRANCH  18  19
ATOM     19  N   UNL     1      38.417 -26.133 -13.650  0.00  0.00    +0.384 N 
ATOM     20  C   UNL     1      38.150 -25.299 -12.477  0.00  0.00    -0.101 C 
ATOM     21  C   UNL     1      39.528 -25.579 -14.425  0.00  0.00    -0.101 C 
ATOM     22  H   UNL     1      38.678 -27.067 -13.332  0.00  0.00    -0.080 HD
ENDBRANCH  18  19
ENDBRANCH  17  18
ENDBRANCH  16  17
ENDBRANCH   1  16
TORSDOF 4
ENDMDL
MODEL 5
REMARK VINA RESULT:      -8.6      2.992      7.079
REMARK  Name = 2895
REMARK  4 active torsions:
REMARK  status: ('A' for Active; 'I' for Inactive)
REMARK    1  A    between atoms: C_1  and  C_4
REMARK    2  A    between atoms: C_4  and  C_17
REMARK    3  A    between atoms: C_17  and  C_18
REMARK    4  A    between atoms: C_18  and  N_19
REMARK                            x       y       z     vdW  Elec       q    Type
REMARK                         _______ _______ _______ _____ _____    ______ ____
ROOT
ATOM      1  C   UNL     1      33.390 -13.240 -23.165  0.00  0.00    -0.037 C 
ATOM      2  C   UNL     1      33.375 -13.428 -24.633  0.00  0.00    +0.062 C 
ATOM      3  C   UNL     1      32.664 -12.140 -22.491  0.00  0.00    -0.007 C 
ATOM      4  C   UNL     1      33.703 -12.372 -25.505  0.00  0.00    -0.015 C 
ATOM      5  C   UNL     1      32.836 -10.801 -22.894  0.00  0.00    -0.001 C 
ATOM      6  C   UNL     1      34.143 -11.042 -25.052  0.00  0.00    -0.004 C 
ATOM      7  C   UNL     1      33.775 -10.376 -23.946  0.00  0.00    -0.000 C 
ATOM      8  C   UNL     1      32.995 -14.673 -25.168  0.00  0.00    -0.018 C 
ATOM      9  C   UNL     1      31.762 -12.439 -21.453  0.00  0.00    -0.001 C 
ATOM     10  C   UNL     1      33.680 -12.604 -26.892  0.00  0.00    -0.004 C 
ATOM     11  C   UNL     1      32.127  -9.793 -22.217  0.00  0.00    -0.000 C 
ATOM     12  C   UNL     1      32.964 -14.880 -26.546  0.00  0.00    -0.004 C 
ATOM     13  C   UNL     1      31.057 -11.426 -20.805  0.00  0.00    -0.000 C 
ATOM     14  C   UNL     1      33.310 -13.847 -27.408  0.00  0.00    -0.001 C 
ATOM     15  C   UNL     1      31.243 -10.102 -21.184  0.00  0.00    -0.000 C 
ENDROOT
BRANCH   1  16
ATOM     16  C   UNL     1      34.155 -14.060 -22.419  0.00  0.00    +0.020 C 
BRANCH  16  17
ATOM     17  C   UNL     1      33.663 -15.343 -21.826  0.00  0.00    -0.018 C 
BRANCH  17  18
ATOM     18  C   UNL     1      34.831 -16.229 -21.394  0.00  0.00    -0.077 C 
BRANCH  18  19
ATOM     19  N   UNL     1      34.670 -17.576 -21.930  0.00  0.00    +0.384 N 
ATOM     20  C   UNL     1      35.550 -18.516 -21.236  0.00  0.00    -0.101 C 
ATOM     21  C   UNL     1      34.941 -17.594 -23.369  0.00  0.00    -0.101 C 
ATOM     22  H   UNL     1      33.703 -17.865 -21.780  0.00  0.00    -0.080 HD
ENDBRANCH  18  19
ENDBRANCH  17  18
ENDBRANCH  16  17
ENDBRANCH   1  16
TORSDOF 4
ENDMDL
MODEL 6
REMARK VINA RESULT:      -8.6      3.140      7.207
REMARK  Name = 2895
REMARK  4 active torsions:
REMARK  status: ('A' for Active; 'I' for Inactive)
REMARK    1  A    between atoms: C_1  and  C_4
REMARK    2  A    between atoms: C_4  and  C_17
REMARK    3  A    between atoms: C_17  and  C_18
REMARK    4  A    between atoms: C_18  and  N_19
REMARK                            x       y       z     vdW  Elec       q    Type
REMARK                         _______ _______ _______ _____ _____    ______ ____
ROOT
ATOM      1  C   UNL     1      33.316 -14.293 -23.132  0.00  0.00    -0.037 C 
ATOM      2  C   UNL     1      33.564 -13.184 -24.080  0.00  0.00    +0.062 C 
ATOM      3  C   UNL     1      34.043 -15.580 -23.198  0.00  0.00    -0.007 C 
ATOM      4  C   UNL     1      33.527 -13.395 -25.473  0.00  0.00    -0.015 C 
ATOM      5  C   UNL     1      34.110 -16.317 -24.397  0.00  0.00    -0.001 C 
ATOM      6  C   UNL     1      33.181 -14.683 -26.097  0.00  0.00    -0.004 C 
ATOM      7  C   UNL     1      33.428 -15.921 -25.641  0.00  0.00    -0.000 C 
ATOM      8  C   UNL     1      33.876 -11.904 -23.583  0.00  0.00    -0.018 C 
ATOM      9  C   UNL     1      34.706 -16.062 -22.054  0.00  0.00    -0.001 C 
ATOM     10  C   UNL     1      33.762 -12.307 -26.331  0.00  0.00    -0.004 C 
ATOM     11  C   UNL     1      34.808 -17.538 -24.406  0.00  0.00    -0.000 C 
ATOM     12  C   UNL     1      34.122 -10.841 -24.451  0.00  0.00    -0.004 C 
ATOM     13  C   UNL     1      35.406 -17.266 -22.087  0.00  0.00    -0.000 C 
ATOM     14  C   UNL     1      34.062 -11.041 -25.824  0.00  0.00    -0.001 C 
ATOM     15  C   UNL     1      35.454 -18.007 -23.261  0.00  0.00    -0.000 C 
ENDROOT
BRANCH   1  16
ATOM     16  C   UNL     1      32.338 -14.151 -22.217  0.00  0.00    +0.020 C 
BRANCH  16  17
ATOM     17  C   UNL     1      32.457 -13.288 -21.001  0.00  0.00    -0.018 C 
BRANCH  17  18
ATOM     18  C   UNL     1      31.417 -12.167 -21.022  0.00  0.00    -0.077 C 
BRANCH  18  19
ATOM     19  N   UNL     1      31.938 -10.981 -20.352  0.00  0.00    +0.384 N 
ATOM     20  C   UNL     1      31.266 -10.776 -19.069  0.00  0.00    -0.101 C 
ATOM     21  C   UNL     1      31.782  -9.799 -21.202  0.00  0.00    -0.101 C 
ATOM     22  H   UNL     1      32.933 -11.124 -20.178  0.00  0.00    -0.080 HD
ENDBRANCH  18  19
ENDBRANCH  17  18
ENDBRANCH  16  17
ENDBRANCH   1  16
TORSDOF 4
ENDMDL
MODEL 7
REMARK VINA RESULT:      -8.4      3.351      7.482
REMARK  Name = 2895
REMARK  4 active torsions:
REMARK  status: ('A' for Active; 'I' for Inactive)
REMARK    1  A    between atoms: C_1  and  C_4
REMARK    2  A    between atoms: C_4  and  C_17
REMARK    3  A    between atoms: C_17  and  C_18
REMARK    4  A    between atoms: C_18  and  N_19
REMARK                            x       y       z     vdW  Elec       q    Type
REMARK                         _______ _______ _______ _____ _____    ______ ____
ROOT
ATOM      1  C   UNL     1      33.049 -13.459 -22.685  0.00  0.00    -0.037 C 
ATOM      2  C   UNL     1      33.490 -12.498 -23.719  0.00  0.00    +0.062 C 
ATOM      3  C   UNL     1      33.737 -14.748 -22.443  0.00  0.00    -0.007 C 
ATOM      4  C   UNL     1      33.687 -12.904 -25.054  0.00  0.00    -0.015 C 
ATOM      5  C   UNL     1      33.987 -15.647 -23.498  0.00  0.00    -0.001 C 
ATOM      6  C   UNL     1      33.416 -14.266 -25.544  0.00  0.00    -0.004 C 
ATOM      7  C   UNL     1      33.543 -15.428 -24.885  0.00  0.00    -0.000 C 
ATOM      8  C   UNL     1      33.750 -11.162 -23.358  0.00  0.00    -0.018 C 
ATOM      9  C   UNL     1      34.177 -15.065 -21.145  0.00  0.00    -0.001 C 
ATOM     10  C   UNL     1      34.100 -11.950 -26.000  0.00  0.00    -0.004 C 
ATOM     11  C   UNL     1      34.639 -16.861 -23.214  0.00  0.00    -0.000 C 
ATOM     12  C   UNL     1      34.174 -10.234 -24.308  0.00  0.00    -0.004 C 
ATOM     13  C   UNL     1      34.836 -16.266 -20.887  0.00  0.00    -0.000 C 
ATOM     14  C   UNL     1      34.346 -10.626 -25.629  0.00  0.00    -0.001 C 
ATOM     15  C   UNL     1      35.063 -17.166 -21.921  0.00  0.00    -0.000 C 
ENDROOT
BRANCH   1  16
ATOM     16  C   UNL     1      31.931 -13.184 -21.984  0.00  0.00    +0.020 C 
BRANCH  16  17
ATOM     17  C   UNL     1      31.905 -12.300 -20.777  0.00  0.00    -0.018 C 
BRANCH  17  18
ATOM     18  C   UNL     1      30.976 -11.106 -20.995  0.00  0.00    -0.077 C 
BRANCH  18  19
ATOM     19  N   UNL     1      31.112 -10.153 -19.899  0.00  0.00    +0.384 N 
ATOM     20  C   UNL     1      32.109  -9.131 -20.225  0.00  0.00    -0.101 C 
ATOM     21  C   UNL     1      31.477 -10.841 -18.660  0.00  0.00    -0.101 C 
ATOM     22  H   UNL     1      30.211  -9.695 -19.762  0.00  0.00    -0.080 HD
ENDBRANCH  18  19
ENDBRANCH  17  18
ENDBRANCH  16  17
ENDBRANCH   1  16
TORSDOF 4
ENDMDL
MODEL 8
REMARK VINA RESULT:      -8.1      7.193      9.799
REMARK  Name = 2895
REMARK  4 active torsions:
REMARK  status: ('A' for Active; 'I' for Inactive)
REMARK    1  A    between atoms: C_1  and  C_4
REMARK    2  A    between atoms: C_4  and  C_17
REMARK    3  A    between atoms: C_17  and  C_18
REMARK    4  A    between atoms: C_18  and  N_19
REMARK                            x       y       z     vdW  Elec       q    Type
REMARK                         _______ _______ _______ _____ _____    ______ ____
ROOT
ATOM      1  C   UNL     1      32.083  -9.281 -22.780  0.00  0.00    -0.037 C 
ATOM      2  C   UNL     1      33.204  -9.661 -23.666  0.00  0.00    +0.062 C 
ATOM      3  C   UNL     1      31.874  -9.889 -21.447  0.00  0.00    -0.007 C 
ATOM      4  C   UNL     1      33.450 -11.010 -23.991  0.00  0.00    -0.015 C 
ATOM      5  C   UNL     1      31.827 -11.288 -21.285  0.00  0.00    -0.001 C 
ATOM      6  C   UNL     1      32.599 -12.127 -23.547  0.00  0.00    -0.004 C 
ATOM      7  C   UNL     1      31.912 -12.245 -22.401  0.00  0.00    -0.000 C 
ATOM      8  C   UNL     1      34.061  -8.663 -24.167  0.00  0.00    -0.018 C 
ATOM      9  C   UNL     1      31.753  -9.058 -20.317  0.00  0.00    -0.001 C 
ATOM     10  C   UNL     1      34.524 -11.319 -24.844  0.00  0.00    -0.004 C 
ATOM     11  C   UNL     1      31.620 -11.815 -19.997  0.00  0.00    -0.000 C 
ATOM     12  C   UNL     1      35.131  -8.991 -25.000  0.00  0.00    -0.004 C 
ATOM     13  C   UNL     1      31.564  -9.601 -19.048  0.00  0.00    -0.000 C 
ATOM     14  C   UNL     1      35.361 -10.318 -25.341  0.00  0.00    -0.001 C 
ATOM     15  C   UNL     1      31.493 -10.980 -18.888  0.00  0.00    -0.000 C 
ENDROOT
BRANCH   1  16
ATOM     16  C   UNL     1      31.173  -8.397 -23.235  0.00  0.00    +0.020 C 
BRANCH  16  17
ATOM     17  C   UNL     1      31.287  -6.917 -23.046  0.00  0.00    -0.018 C 
BRANCH  17  18
ATOM     18  C   UNL     1      31.173  -6.185 -24.383  0.00  0.00    -0.077 C 
BRANCH  18  19
ATOM     19  N   UNL     1      30.750  -4.806 -24.170  0.00  0.00    +0.384 N 
ATOM     20  C   UNL     1      31.363  -3.919 -25.160  0.00  0.00    -0.101 C 
ATOM     21  C   UNL     1      31.088  -4.366 -22.815  0.00  0.00    -0.101 C 
ATOM     22  H   UNL     1      29.736  -4.763 -24.280  0.00  0.00    -0.080 HD
ENDBRANCH  18  19
ENDBRANCH  17  18
ENDBRANCH  16  17
ENDBRANCH   1  16
TORSDOF 4
ENDMDL
MODEL 9
REMARK VINA RESULT:      -7.9      4.417      8.201
REMARK  Name = 2895
REMARK  4 active torsions:
REMARK  status: ('A' for Active; 'I' for Inactive)
REMARK    1  A    between atoms: C_1  and  C_4
REMARK    2  A    between atoms: C_4  and  C_17
REMARK    3  A    between atoms: C_17  and  C_18
REMARK    4  A    between atoms: C_18  and  N_19
REMARK                            x       y       z     vdW  Elec       q    Type
REMARK                         _______ _______ _______ _____ _____    ______ ____
ROOT
ATOM      1  C   UNL     1      32.671 -12.055 -22.894  0.00  0.00    -0.037 C 
ATOM      2  C   UNL     1      33.555 -11.396 -23.881  0.00  0.00    +0.062 C 
ATOM      3  C   UNL     1      32.931 -13.414 -22.367  0.00  0.00    -0.007 C 
ATOM      4  C   UNL     1      33.913 -12.041 -25.082  0.00  0.00    -0.015 C 
ATOM      5  C   UNL     1      33.152 -14.500 -23.236  0.00  0.00    -0.001 C 
ATOM      6  C   UNL     1      33.404 -13.362 -25.486  0.00  0.00    -0.004 C 
ATOM      7  C   UNL     1      33.082 -14.404 -24.704  0.00  0.00    -0.000 C 
ATOM      8  C   UNL     1      34.074 -10.118 -23.602  0.00  0.00    -0.018 C 
ATOM      9  C   UNL     1      32.991 -13.617 -20.976  0.00  0.00    -0.001 C 
ATOM     10  C   UNL     1      34.750 -11.369 -25.990  0.00  0.00    -0.004 C 
ATOM     11  C   UNL     1      33.389 -15.772 -22.684  0.00  0.00    -0.000 C 
ATOM     12  C   UNL     1      34.915  -9.474 -24.509  0.00  0.00    -0.004 C 
ATOM     13  C   UNL     1      33.243 -14.883 -20.449  0.00  0.00    -0.000 C 
ATOM     14  C   UNL     1      35.251 -10.098 -25.704  0.00  0.00    -0.001 C 
ATOM     15  C   UNL     1      33.438 -15.962 -21.303  0.00  0.00    -0.000 C 
ENDROOT
BRANCH   1  16
ATOM     16  C   UNL     1      31.544 -11.422 -22.516  0.00  0.00    +0.020 C 
BRANCH  16  17
ATOM     17  C   UNL     1      31.404  -9.933 -22.469  0.00  0.00    -0.018 C 
BRANCH  17  18
ATOM     18  C   UNL     1      31.828  -9.387 -21.105  0.00  0.00    -0.077 C 
BRANCH  18  19
ATOM     19  N   UNL     1      32.445  -8.074 -21.255  0.00  0.00    +0.384 N 
ATOM     20  C   UNL     1      32.351  -7.315 -20.007  0.00  0.00    -0.101 C 
ATOM     21  C   UNL     1      31.819  -7.332 -22.350  0.00  0.00    -0.101 C 
ATOM     22  H   UNL     1      33.431  -8.210 -21.478  0.00  0.00    -0.080 HD
ENDBRANCH  18  19
ENDBRANCH  17  18
ENDBRANCH  16  17
ENDBRANCH   1  16
TORSDOF 4
ENDMDL
