MODEL 1
REMARK VINA RESULT:      -4.3      0.000      0.000
REMARK  Name = 5289354
REMARK  6 active torsions:
REMARK  status: ('A' for Active; 'I' for Inactive)
REMARK    1  A    between atoms: C_1  and  O_2
REMARK    2  A    between atoms: C_1  and  C_4
REMARK    3  A    between atoms: C_1  and  C_8
REMARK    4  A    between atoms: C_4  and  S_5
REMARK    5  A    between atoms: S_5  and  O_6
REMARK    6  A    between atoms: C_8  and  O_9
REMARK                            x       y       z     vdW  Elec       q    Type
REMARK                         _______ _______ _______ _____ _____    ______ ____
ROOT
ATOM      1  C   UNL     1      39.182 -25.057 -14.189  0.00  0.00    +0.153 C 
ENDROOT
BRANCH   1   2
ATOM      2  O   UNL     1      38.772 -24.233 -15.281  0.00  0.00    -0.381 OA
ATOM      3  H   UNL     1      38.514 -23.359 -14.948  0.00  0.00    +0.210 HD
ENDBRANCH   1   2
BRANCH   1   4
ATOM      4  C   UNL     1      37.985 -25.874 -13.694  0.00  0.00    +0.119 C 
BRANCH   4   5
ATOM      5  S   UNL     1      36.606 -25.983 -14.878  0.00  0.00    +0.002 S 
BRANCH   5   6
ATOM      6  O   UNL     1      37.371 -26.902 -16.029  0.00  0.00    -0.328 OA
ATOM      7  H   UNL     1      38.327 -26.898 -15.862  0.00  0.00    +0.227 HD
ENDBRANCH   5   6
ENDBRANCH   4   5
ENDBRANCH   1   4
BRANCH   1   8
ATOM      8  C   UNL     1      40.395 -25.887 -14.600  0.00  0.00    +0.167 C 
BRANCH   8   9
ATOM      9  O   UNL     1      40.425 -25.980 -16.022  0.00  0.00    -0.379 OA
ATOM     10  H   UNL     1      40.549 -26.906 -16.283  0.00  0.00    +0.211 HD
ENDBRANCH   8   9
ENDBRANCH   1   8
TORSDOF 6
ENDMDL
MODEL 2
REMARK VINA RESULT:      -4.1      2.041      2.812
REMARK  Name = 5289354
REMARK  6 active torsions:
REMARK  status: ('A' for Active; 'I' for Inactive)
REMARK    1  A    between atoms: C_1  and  O_2
REMARK    2  A    between atoms: C_1  and  C_4
REMARK    3  A    between atoms: C_1  and  C_8
REMARK    4  A    between atoms: C_4  and  S_5
REMARK    5  A    between atoms: S_5  and  O_6
REMARK    6  A    between atoms: C_8  and  O_9
REMARK                            x       y       z     vdW  Elec       q    Type
REMARK                         _______ _______ _______ _____ _____    ______ ____
ROOT
ATOM      1  C   UNL     1      38.751 -25.770 -14.344  0.00  0.00    +0.153 C 
ENDROOT
BRANCH   1   2
ATOM      2  O   UNL     1      38.397 -27.097 -14.737  0.00  0.00    -0.381 OA
ATOM      3  H   UNL     1      38.964 -27.378 -15.471  0.00  0.00    +0.210 HD
ENDBRANCH   1   2
BRANCH   1   4
ATOM      4  C   UNL     1      38.412 -25.572 -12.864  0.00  0.00    +0.119 C 
BRANCH   4   5
ATOM      5  S   UNL     1      37.573 -24.001 -12.486  0.00  0.00    +0.002 S 
BRANCH   5   6
ATOM      6  O   UNL     1      38.822 -23.270 -11.674  0.00  0.00    -0.328 OA
ATOM      7  H   UNL     1      39.533 -23.914 -11.528  0.00  0.00    +0.227 HD
ENDBRANCH   5   6
ENDBRANCH   4   5
ENDBRANCH   1   4
BRANCH   1   8
ATOM      8  C   UNL     1      40.209 -25.500 -14.707  0.00  0.00    +0.167 C 
BRANCH   8   9
ATOM      9  O   UNL     1      40.447 -25.976 -16.029  0.00  0.00    -0.379 OA
ATOM     10  H   UNL     1      41.182 -26.608 -16.018  0.00  0.00    +0.211 HD
ENDBRANCH   8   9
ENDBRANCH   1   8
TORSDOF 6
ENDMDL
MODEL 3
REMARK VINA RESULT:      -4.1     10.825     11.590
REMARK  Name = 5289354
REMARK  6 active torsions:
REMARK  status: ('A' for Active; 'I' for Inactive)
REMARK    1  A    between atoms: C_1  and  O_2
REMARK    2  A    between atoms: C_1  and  C_4
REMARK    3  A    between atoms: C_1  and  C_8
REMARK    4  A    between atoms: C_4  and  S_5
REMARK    5  A    between atoms: S_5  and  O_6
REMARK    6  A    between atoms: C_8  and  O_9
REMARK                            x       y       z     vdW  Elec       q    Type
REMARK                         _______ _______ _______ _____ _____    ______ ____
ROOT
ATOM      1  C   UNL     1      41.092 -14.623 -14.962  0.00  0.00    +0.153 C 
ENDROOT
BRANCH   1   2
ATOM      2  O   UNL     1      40.163 -15.706 -15.038  0.00  0.00    -0.381 OA
ATOM      3  H   UNL     1      39.905 -15.847 -15.962  0.00  0.00    +0.210 HD
ENDBRANCH   1   2
BRANCH   1   4
ATOM      4  C   UNL     1      41.618 -14.309 -16.366  0.00  0.00    +0.119 C 
BRANCH   4   5
ATOM      5  S   UNL     1      42.121 -15.772 -17.326  0.00  0.00    +0.002 S 
BRANCH   5   6
ATOM      6  O   UNL     1      42.782 -16.643 -16.078  0.00  0.00    -0.328 OA
ATOM      7  H   UNL     1      43.004 -16.044 -15.348  0.00  0.00    +0.227 HD
ENDBRANCH   5   6
ENDBRANCH   4   5
ENDBRANCH   1   4
BRANCH   1   8
ATOM      8  C   UNL     1      40.444 -13.443 -14.244  0.00  0.00    +0.167 C 
BRANCH   8   9
ATOM      9  O   UNL     1      40.932 -13.398 -12.906  0.00  0.00    -0.379 OA
ATOM     10  H   UNL     1      40.491 -14.081 -12.377  0.00  0.00    +0.211 HD
ENDBRANCH   8   9
ENDBRANCH   1   8
TORSDOF 6
ENDMDL
MODEL 4
REMARK VINA RESULT:      -4.0      2.137      2.347
REMARK  Name = 5289354
REMARK  6 active torsions:
REMARK  status: ('A' for Active; 'I' for Inactive)
REMARK    1  A    between atoms: C_1  and  O_2
REMARK    2  A    between atoms: C_1  and  C_4
REMARK    3  A    between atoms: C_1  and  C_8
REMARK    4  A    between atoms: C_4  and  S_5
REMARK    5  A    between atoms: S_5  and  O_6
REMARK    6  A    between atoms: C_8  and  O_9
REMARK                            x       y       z     vdW  Elec       q    Type
REMARK                         _______ _______ _______ _____ _____    ______ ____
ROOT
ATOM      1  C   UNL     1      38.399 -25.798 -14.914  0.00  0.00    +0.153 C 
ENDROOT
BRANCH   1   2
ATOM      2  O   UNL     1      38.171 -27.159 -14.544  0.00  0.00    -0.381 OA
ATOM      3  H   UNL     1      39.010 -27.645 -14.565  0.00  0.00    +0.210 HD
ENDBRANCH   1   2
BRANCH   1   4
ATOM      4  C   UNL     1      37.522 -24.886 -14.052  0.00  0.00    +0.119 C 
BRANCH   4   5
ATOM      5  S   UNL     1      37.781 -25.067 -12.258  0.00  0.00    +0.002 S 
BRANCH   5   6
ATOM      6  O   UNL     1      36.832 -26.410 -12.030  0.00  0.00    -0.328 OA
ATOM      7  H   UNL     1      36.123 -26.421 -12.692  0.00  0.00    +0.227 HD
ENDBRANCH   5   6
ENDBRANCH   4   5
ENDBRANCH   1   4
BRANCH   1   8
ATOM      8  C   UNL     1      39.893 -25.494 -14.850  0.00  0.00    +0.167 C 
BRANCH   8   9
ATOM      9  O   UNL     1      40.512 -25.986 -16.036  0.00  0.00    -0.379 OA
ATOM     10  H   UNL     1      40.697 -26.933 -15.935  0.00  0.00    +0.211 HD
ENDBRANCH   8   9
ENDBRANCH   1   8
TORSDOF 6
ENDMDL
MODEL 5
REMARK VINA RESULT:      -4.0      2.199      3.588
REMARK  Name = 5289354
REMARK  6 active torsions:
REMARK  status: ('A' for Active; 'I' for Inactive)
REMARK    1  A    between atoms: C_1  and  O_2
REMARK    2  A    between atoms: C_1  and  C_4
REMARK    3  A    between atoms: C_1  and  C_8
REMARK    4  A    between atoms: C_4  and  S_5
REMARK    5  A    between atoms: S_5  and  O_6
REMARK    6  A    between atoms: C_8  and  O_9
REMARK                            x       y       z     vdW  Elec       q    Type
REMARK                         _______ _______ _______ _____ _____    ______ ____
ROOT
ATOM      1  C   UNL     1      37.343 -25.910 -14.773  0.00  0.00    +0.153 C 
ENDROOT
BRANCH   1   2
ATOM      2  O   UNL     1      37.559 -26.772 -15.891  0.00  0.00    -0.381 OA
ATOM      3  H   UNL     1      36.715 -27.164 -16.165  0.00  0.00    +0.210 HD
ENDBRANCH   1   2
BRANCH   1   4
ATOM      4  C   UNL     1      38.500 -24.912 -14.673  0.00  0.00    +0.119 C 
BRANCH   4   5
ATOM      5  S   UNL     1      40.141 -25.677 -14.474  0.00  0.00    +0.002 S 
BRANCH   5   6
ATOM      6  O   UNL     1      40.456 -25.951 -16.080  0.00  0.00    -0.328 OA
ATOM      7  H   UNL     1      40.255 -26.875 -16.295  0.00  0.00    +0.227 HD
ENDBRANCH   5   6
ENDBRANCH   4   5
ENDBRANCH   1   4
BRANCH   1   8
ATOM      8  C   UNL     1      35.959 -25.276 -14.874  0.00  0.00    +0.167 C 
BRANCH   8   9
ATOM      9  O   UNL     1      35.393 -25.201 -13.569  0.00  0.00    -0.379 OA
ATOM     10  H   UNL     1      35.075 -24.299 -13.405  0.00  0.00    +0.211 HD
ENDBRANCH   8   9
ENDBRANCH   1   8
TORSDOF 6
ENDMDL
MODEL 6
REMARK VINA RESULT:      -3.9      1.836      2.956
REMARK  Name = 5289354
REMARK  6 active torsions:
REMARK  status: ('A' for Active; 'I' for Inactive)
REMARK    1  A    between atoms: C_1  and  O_2
REMARK    2  A    between atoms: C_1  and  C_4
REMARK    3  A    between atoms: C_1  and  C_8
REMARK    4  A    between atoms: C_4  and  S_5
REMARK    5  A    between atoms: S_5  and  O_6
REMARK    6  A    between atoms: C_8  and  O_9
REMARK                            x       y       z     vdW  Elec       q    Type
REMARK                         _______ _______ _______ _____ _____    ______ ____
ROOT
ATOM      1  C   UNL     1      37.552 -26.382 -14.233  0.00  0.00    +0.153 C 
ENDROOT
BRANCH   1   2
ATOM      2  O   UNL     1      38.791 -26.826 -14.788  0.00  0.00    -0.381 OA
ATOM      3  H   UNL     1      39.342 -27.207 -14.086  0.00  0.00    +0.210 HD
ENDBRANCH   1   2
BRANCH   1   4
ATOM      4  C   UNL     1      37.712 -24.949 -13.718  0.00  0.00    +0.119 C 
BRANCH   4   5
ATOM      5  S   UNL     1      37.509 -23.664 -14.992  0.00  0.00    +0.002 S 
BRANCH   5   6
ATOM      6  O   UNL     1      38.977 -23.859 -15.742  0.00  0.00    -0.328 OA
ATOM      7  H   UNL     1      39.658 -24.044 -15.076  0.00  0.00    +0.227 HD
ENDBRANCH   5   6
ENDBRANCH   4   5
ENDBRANCH   1   4
BRANCH   1   8
ATOM      8  C   UNL     1      36.436 -26.572 -15.257  0.00  0.00    +0.167 C 
BRANCH   8   9
ATOM      9  O   UNL     1      36.935 -27.354 -16.339  0.00  0.00    -0.379 OA
ATOM     10  H   UNL     1      37.698 -26.907 -16.736  0.00  0.00    +0.211 HD
ENDBRANCH   8   9
ENDBRANCH   1   8
TORSDOF 6
ENDMDL
MODEL 7
REMARK VINA RESULT:      -3.9      2.264      3.424
REMARK  Name = 5289354
REMARK  6 active torsions:
REMARK  status: ('A' for Active; 'I' for Inactive)
REMARK    1  A    between atoms: C_1  and  O_2
REMARK    2  A    between atoms: C_1  and  C_4
REMARK    3  A    between atoms: C_1  and  C_8
REMARK    4  A    between atoms: C_4  and  S_5
REMARK    5  A    between atoms: S_5  and  O_6
REMARK    6  A    between atoms: C_8  and  O_9
REMARK                            x       y       z     vdW  Elec       q    Type
REMARK                         _______ _______ _______ _____ _____    ______ ____
ROOT
ATOM      1  C   UNL     1      37.428 -25.907 -13.706  0.00  0.00    +0.153 C 
ENDROOT
BRANCH   1   2
ATOM      2  O   UNL     1      36.840 -26.605 -12.607  0.00  0.00    -0.381 OA
ATOM      3  H   UNL     1      36.442 -25.967 -11.995  0.00  0.00    +0.210 HD
ENDBRANCH   1   2
BRANCH   1   4
ATOM      4  C   UNL     1      38.875 -25.547 -13.362  0.00  0.00    +0.119 C 
BRANCH   4   5
ATOM      5  S   UNL     1      40.003 -25.510 -14.792  0.00  0.00    +0.002 S 
BRANCH   5   6
ATOM      6  O   UNL     1      41.105 -26.620 -14.235  0.00  0.00    -0.328 OA
ATOM      7  H   UNL     1      41.830 -26.703 -14.874  0.00  0.00    +0.227 HD
ENDBRANCH   5   6
ENDBRANCH   4   5
ENDBRANCH   1   4
BRANCH   1   8
ATOM      8  C   UNL     1      37.260 -26.727 -14.982  0.00  0.00    +0.167 C 
BRANCH   8   9
ATOM      9  O   UNL     1      35.932 -26.551 -15.468  0.00  0.00    -0.379 OA
ATOM     10  H   UNL     1      35.441 -27.383 -15.378  0.00  0.00    +0.211 HD
ENDBRANCH   8   9
ENDBRANCH   1   8
TORSDOF 6
ENDMDL
MODEL 8
REMARK VINA RESULT:      -3.9      3.308      4.292
REMARK  Name = 5289354
REMARK  6 active torsions:
REMARK  status: ('A' for Active; 'I' for Inactive)
REMARK    1  A    between atoms: C_1  and  O_2
REMARK    2  A    between atoms: C_1  and  C_4
REMARK    3  A    between atoms: C_1  and  C_8
REMARK    4  A    between atoms: C_4  and  S_5
REMARK    5  A    between atoms: S_5  and  O_6
REMARK    6  A    between atoms: C_8  and  O_9
REMARK                            x       y       z     vdW  Elec       q    Type
REMARK                         _______ _______ _______ _____ _____    ______ ____
ROOT
ATOM      1  C   UNL     1      36.811 -25.163 -12.335  0.00  0.00    +0.153 C 
ENDROOT
BRANCH   1   2
ATOM      2  O   UNL     1      36.855 -26.555 -12.018  0.00  0.00    -0.381 OA
ATOM      3  H   UNL     1      37.560 -26.981 -12.530  0.00  0.00    +0.210 HD
ENDBRANCH   1   2
BRANCH   1   4
ATOM      4  C   UNL     1      36.968 -24.983 -13.848  0.00  0.00    +0.119 C 
BRANCH   4   5
ATOM      5  S   UNL     1      38.579 -25.521 -14.506  0.00  0.00    +0.002 S 
BRANCH   5   6
ATOM      6  O   UNL     1      38.245 -27.144 -14.615  0.00  0.00    -0.328 OA
ATOM      7  H   UNL     1      37.368 -27.267 -15.010  0.00  0.00    +0.227 HD
ENDBRANCH   5   6
ENDBRANCH   4   5
ENDBRANCH   1   4
BRANCH   1   8
ATOM      8  C   UNL     1      35.546 -24.544 -11.747  0.00  0.00    +0.167 C 
BRANCH   8   9
ATOM      9  O   UNL     1      35.309 -25.118 -10.465  0.00  0.00    -0.379 OA
ATOM     10  H   UNL     1      36.141 -25.157  -9.968  0.00  0.00    +0.211 HD
ENDBRANCH   8   9
ENDBRANCH   1   8
TORSDOF 6
ENDMDL
MODEL 9
REMARK VINA RESULT:      -3.9      3.673      4.502
REMARK  Name = 5289354
REMARK  6 active torsions:
REMARK  status: ('A' for Active; 'I' for Inactive)
REMARK    1  A    between atoms: C_1  and  O_2
REMARK    2  A    between atoms: C_1  and  C_4
REMARK    3  A    between atoms: C_1  and  C_8
REMARK    4  A    between atoms: C_4  and  S_5
REMARK    5  A    between atoms: S_5  and  O_6
REMARK    6  A    between atoms: C_8  and  O_9
REMARK                            x       y       z     vdW  Elec       q    Type
REMARK                         _______ _______ _______ _____ _____    ______ ____
ROOT
ATOM      1  C   UNL     1      36.872 -23.589 -11.775  0.00  0.00    +0.153 C 
ENDROOT
BRANCH   1   2
ATOM      2  O   UNL     1      37.376 -22.376 -11.216  0.00  0.00    -0.381 OA
ATOM      3  H   UNL     1      37.566 -22.508 -10.274  0.00  0.00    +0.210 HD
ENDBRANCH   1   2
BRANCH   1   4
ATOM      4  C   UNL     1      38.038 -24.545 -12.045  0.00  0.00    +0.119 C 
BRANCH   4   5
ATOM      5  S   UNL     1      37.850 -25.556 -13.548  0.00  0.00    +0.002 S 
BRANCH   5   6
ATOM      6  O   UNL     1      36.886 -26.742 -12.901  0.00  0.00    -0.328 OA
ATOM      7  H   UNL     1      36.808 -27.474 -13.532  0.00  0.00    +0.227 HD
ENDBRANCH   5   6
ENDBRANCH   4   5
ENDBRANCH   1   4
BRANCH   1   8
ATOM      8  C   UNL     1      35.779 -24.155 -10.872  0.00  0.00    +0.167 C 
BRANCH   8   9
ATOM      9  O   UNL     1      34.918 -24.977 -11.655  0.00  0.00    -0.379 OA
ATOM     10  H   UNL     1      34.383 -25.535 -11.069  0.00  0.00    +0.211 HD
ENDBRANCH   8   9
ENDBRANCH   1   8
TORSDOF 6
ENDMDL
