MODEL 1
REMARK VINA RESULT:      -7.3      0.000      0.000
REMARK  Name = 446357
REMARK  1 active torsions:
REMARK  status: ('A' for Active; 'I' for Inactive)
REMARK    1  A    between atoms: C_8  and  C_17
REMARK                            x       y       z     vdW  Elec       q    Type
REMARK                         _______ _______ _______ _____ _____    ______ ____
ROOT
ATOM      1  O   UNL     1      36.780 -21.379 -19.220  0.00  0.00    -0.209 OA
ATOM      2  N   UNL     1      32.519 -20.293 -20.497  0.00  0.00    -0.299 N 
ATOM      3  N   UNL     1      32.799 -22.048 -18.868  0.00  0.00    -0.264 N 
ATOM      4  N   UNL     1      35.054 -22.565 -18.246  0.00  0.00    -0.302 NA
ATOM      5  N   UNL     1      33.215 -23.708 -17.318  0.00  0.00    -0.320 N 
ATOM      6  C   UNL     1      33.260 -21.106 -19.702  0.00  0.00    +0.116 C 
ATOM      7  C   UNL     1      34.592 -20.838 -19.861  0.00  0.00    +0.133 C 
ATOM      8  C   UNL     1      34.680 -19.795 -20.812  0.00  0.00    +0.097 C 
ATOM      9  C   UNL     1      33.386 -19.477 -21.189  0.00  0.00    +0.074 C 
ATOM     10  C   UNL     1      35.580 -21.593 -19.103  0.00  0.00    +0.210 C 
ATOM     11  C   UNL     1      33.754 -22.761 -18.151  0.00  0.00    +0.248 C 
ATOM     12  H   UNL     1      31.537 -20.288 -20.567  0.00  0.00    +0.153 HD
ATOM     13  H   UNL     1      31.837 -22.227 -18.769  0.00  0.00    +0.157 HD
ATOM     14  H   UNL     1      32.239 -23.827 -17.274  0.00  0.00    +0.146 HD
ATOM     15  H   UNL     1      33.805 -24.270 -16.764  0.00  0.00    +0.146 HD
ENDROOT
BRANCH   8  17
ATOM     16  N   UNL     1      36.803 -18.635 -21.737  0.00  0.00    -0.191 NA
ATOM     17  C   UNL     1      35.847 -19.158 -21.320  0.00  0.00    +0.103 C 
ENDBRANCH   8  17
TORSDOF 1
ENDMDL
MODEL 2
REMARK VINA RESULT:      -7.2      3.945      5.477
REMARK  Name = 446357
REMARK  1 active torsions:
REMARK  status: ('A' for Active; 'I' for Inactive)
REMARK    1  A    between atoms: C_8  and  C_17
REMARK                            x       y       z     vdW  Elec       q    Type
REMARK                         _______ _______ _______ _____ _____    ______ ____
ROOT
ATOM      1  O   UNL     1      34.629 -18.829 -24.659  0.00  0.00    -0.209 OA
ATOM      2  N   UNL     1      34.696 -15.371 -21.658  0.00  0.00    -0.299 N 
ATOM      3  N   UNL     1      35.321 -17.563 -20.873  0.00  0.00    -0.264 N 
ATOM      4  N   UNL     1      35.264 -19.325 -22.495  0.00  0.00    -0.302 NA
ATOM      5  N   UNL     1      35.896 -19.714 -20.259  0.00  0.00    -0.320 N 
ATOM      6  C   UNL     1      34.918 -16.700 -21.815  0.00  0.00    +0.116 C 
ATOM      7  C   UNL     1      34.670 -17.072 -23.109  0.00  0.00    +0.133 C 
ATOM      8  C   UNL     1      34.270 -15.900 -23.792  0.00  0.00    +0.097 C 
ATOM      9  C   UNL     1      34.295 -14.864 -22.874  0.00  0.00    +0.074 C 
ATOM     10  C   UNL     1      34.842 -18.460 -23.511  0.00  0.00    +0.210 C 
ATOM     11  C   UNL     1      35.482 -18.885 -21.272  0.00  0.00    +0.248 C 
ATOM     12  H   UNL     1      34.804 -14.859 -20.823  0.00  0.00    +0.153 HD
ATOM     13  H   UNL     1      35.494 -17.276 -19.947  0.00  0.00    +0.157 HD
ATOM     14  H   UNL     1      36.048 -19.350 -19.357  0.00  0.00    +0.146 HD
ATOM     15  H   UNL     1      36.040 -20.672 -20.434  0.00  0.00    +0.146 HD
ENDROOT
BRANCH   8  17
ATOM     16  N   UNL     1      33.600 -15.639 -26.281  0.00  0.00    -0.191 NA
ATOM     17  C   UNL     1      33.902 -15.757 -25.159  0.00  0.00    +0.103 C 
ENDBRANCH   8  17
TORSDOF 1
ENDMDL
MODEL 3
REMARK VINA RESULT:      -7.1      5.509      7.206
REMARK  Name = 446357
REMARK  1 active torsions:
REMARK  status: ('A' for Active; 'I' for Inactive)
REMARK    1  A    between atoms: C_8  and  C_17
REMARK                            x       y       z     vdW  Elec       q    Type
REMARK                         _______ _______ _______ _____ _____    ______ ____
ROOT
ATOM      1  O   UNL     1      31.567 -22.681 -17.213  0.00  0.00    -0.209 OA
ATOM      2  N   UNL     1      29.871 -25.475 -14.006  0.00  0.00    -0.299 N 
ATOM      3  N   UNL     1      32.231 -24.987 -13.949  0.00  0.00    -0.264 N 
ATOM      4  N   UNL     1      33.052 -23.519 -15.656  0.00  0.00    -0.302 NA
ATOM      5  N   UNL     1      34.473 -24.435 -14.014  0.00  0.00    -0.320 N 
ATOM      6  C   UNL     1      31.000 -24.876 -14.464  0.00  0.00    +0.116 C 
ATOM      7  C   UNL     1      30.718 -24.112 -15.564  0.00  0.00    +0.133 C 
ATOM      8  C   UNL     1      29.330 -24.247 -15.800  0.00  0.00    +0.097 C 
ATOM      9  C   UNL     1      28.830 -25.093 -14.824  0.00  0.00    +0.074 C 
ATOM     10  C   UNL     1      31.783 -23.374 -16.227  0.00  0.00    +0.210 C 
ATOM     11  C   UNL     1      33.238 -24.277 -14.593  0.00  0.00    +0.248 C 
ATOM     12  H   UNL     1      29.807 -26.075 -13.228  0.00  0.00    +0.153 HD
ATOM     13  H   UNL     1      32.414 -25.543 -13.157  0.00  0.00    +0.157 HD
ATOM     14  H   UNL     1      34.574 -25.009 -13.221  0.00  0.00    +0.146 HD
ATOM     15  H   UNL     1      35.256 -23.974 -14.393  0.00  0.00    +0.146 HD
ENDROOT
BRANCH   8  17
ATOM     16  N   UNL     1      27.903 -23.160 -17.669  0.00  0.00    -0.191 NA
ATOM     17  C   UNL     1      28.546 -23.650 -16.826  0.00  0.00    +0.103 C 
ENDBRANCH   8  17
TORSDOF 1
ENDMDL
MODEL 4
REMARK VINA RESULT:      -7.1      3.840      6.535
REMARK  Name = 446357
REMARK  1 active torsions:
REMARK  status: ('A' for Active; 'I' for Inactive)
REMARK    1  A    between atoms: C_8  and  C_17
REMARK                            x       y       z     vdW  Elec       q    Type
REMARK                         _______ _______ _______ _____ _____    ______ ____
ROOT
ATOM      1  O   UNL     1      35.003 -16.357 -20.179  0.00  0.00    -0.209 OA
ATOM      2  N   UNL     1      34.768 -17.870 -24.495  0.00  0.00    -0.299 N 
ATOM      3  N   UNL     1      34.416 -15.519 -24.099  0.00  0.00    -0.264 N 
ATOM      4  N   UNL     1      34.553 -14.795 -21.819  0.00  0.00    -0.302 NA
ATOM      5  N   UNL     1      34.100 -13.292 -23.576  0.00  0.00    -0.320 N 
ATOM      6  C   UNL     1      34.673 -16.772 -23.703  0.00  0.00    +0.116 C 
ATOM      7  C   UNL     1      34.879 -17.112 -22.394  0.00  0.00    +0.133 C 
ATOM      8  C   UNL     1      35.116 -18.506 -22.375  0.00  0.00    +0.097 C 
ATOM      9  C   UNL     1      35.043 -18.951 -23.685  0.00  0.00    +0.074 C 
ATOM     10  C   UNL     1      34.824 -16.089 -21.360  0.00  0.00    +0.210 C 
ATOM     11  C   UNL     1      34.366 -14.552 -23.101  0.00  0.00    +0.248 C 
ATOM     12  H   UNL     1      34.661 -17.892 -25.473  0.00  0.00    +0.153 HD
ATOM     13  H   UNL     1      34.270 -15.294 -25.046  0.00  0.00    +0.157 HD
ATOM     14  H   UNL     1      33.966 -13.147 -24.540  0.00  0.00    +0.146 HD
ATOM     15  H   UNL     1      34.043 -12.532 -22.951  0.00  0.00    +0.146 HD
ENDROOT
BRANCH   8  17
ATOM     16  N   UNL     1      35.605 -20.028 -20.336  0.00  0.00    -0.191 NA
ATOM     17  C   UNL     1      35.385 -19.343 -21.255  0.00  0.00    +0.103 C 
ENDBRANCH   8  17
TORSDOF 1
ENDMDL
MODEL 5
REMARK VINA RESULT:      -7.1      1.928      4.953
REMARK  Name = 446357
REMARK  1 active torsions:
REMARK  status: ('A' for Active; 'I' for Inactive)
REMARK    1  A    between atoms: C_8  and  C_17
REMARK                            x       y       z     vdW  Elec       q    Type
REMARK                         _______ _______ _______ _____ _____    ______ ____
ROOT
ATOM      1  O   UNL     1      32.483 -20.193 -20.948  0.00  0.00    -0.209 OA
ATOM      2  N   UNL     1      36.830 -20.680 -19.593  0.00  0.00    -0.299 N 
ATOM      3  N   UNL     1      36.346 -19.012 -21.265  0.00  0.00    -0.264 N 
ATOM      4  N   UNL     1      34.053 -18.811 -21.928  0.00  0.00    -0.302 NA
ATOM      5  N   UNL     1      35.739 -17.455 -22.859  0.00  0.00    -0.320 N 
ATOM      6  C   UNL     1      36.001 -19.989 -20.416  0.00  0.00    +0.116 C 
ATOM      7  C   UNL     1      34.713 -20.427 -20.268  0.00  0.00    +0.133 C 
ATOM      8  C   UNL     1      34.749 -21.452 -19.294  0.00  0.00    +0.097 C 
ATOM      9  C   UNL     1      36.067 -21.589 -18.893  0.00  0.00    +0.074 C 
ATOM     10  C   UNL     1      33.647 -19.826 -21.055  0.00  0.00    +0.210 C 
ATOM     11  C   UNL     1      35.317 -18.447 -22.010  0.00  0.00    +0.248 C 
ATOM     12  H   UNL     1      37.803 -20.554 -19.511  0.00  0.00    +0.153 HD
ATOM     13  H   UNL     1      37.279 -18.712 -21.358  0.00  0.00    +0.157 HD
ATOM     14  H   UNL     1      36.692 -17.210 -22.893  0.00  0.00    +0.146 HD
ATOM     15  H   UNL     1      35.090 -16.988 -23.433  0.00  0.00    +0.146 HD
ENDROOT
BRANCH   8  17
ATOM     16  N   UNL     1      32.782 -22.863 -18.370  0.00  0.00    -0.191 NA
ATOM     17  C   UNL     1      33.668 -22.227 -18.786  0.00  0.00    +0.103 C 
ENDBRANCH   8  17
TORSDOF 1
ENDMDL
MODEL 6
REMARK VINA RESULT:      -7.1      1.853      2.607
REMARK  Name = 446357
REMARK  1 active torsions:
REMARK  status: ('A' for Active; 'I' for Inactive)
REMARK    1  A    between atoms: C_8  and  C_17
REMARK                            x       y       z     vdW  Elec       q    Type
REMARK                         _______ _______ _______ _____ _____    ______ ____
ROOT
ATOM      1  O   UNL     1      32.379 -20.161 -20.931  0.00  0.00    -0.209 OA
ATOM      2  N   UNL     1      36.737 -20.676 -19.623  0.00  0.00    -0.299 N 
ATOM      3  N   UNL     1      35.081 -22.122 -18.635  0.00  0.00    -0.264 N 
ATOM      4  N   UNL     1      32.821 -21.799 -19.364  0.00  0.00    -0.302 NA
ATOM      5  N   UNL     1      33.391 -23.438 -17.771  0.00  0.00    -0.320 N 
ATOM      6  C   UNL     1      35.472 -21.135 -19.452  0.00  0.00    +0.116 C 
ATOM      7  C   UNL     1      34.603 -20.440 -20.249  0.00  0.00    +0.133 C 
ATOM      8  C   UNL     1      35.380 -19.493 -20.956  0.00  0.00    +0.097 C 
ATOM      9  C   UNL     1      36.694 -19.659 -20.551  0.00  0.00    +0.074 C 
ATOM     10  C   UNL     1      33.184 -20.763 -20.231  0.00  0.00    +0.210 C 
ATOM     11  C   UNL     1      33.722 -22.420 -18.628  0.00  0.00    +0.248 C 
ATOM     12  H   UNL     1      37.542 -21.010 -19.165  0.00  0.00    +0.153 HD
ATOM     13  H   UNL     1      35.721 -22.610 -18.068  0.00  0.00    +0.157 HD
ATOM     14  H   UNL     1      34.091 -23.879 -17.237  0.00  0.00    +0.146 HD
ATOM     15  H   UNL     1      32.454 -23.728 -17.689  0.00  0.00    +0.146 HD
ENDROOT
BRANCH   8  17
ATOM     16  N   UNL     1      34.593 -17.741 -22.694  0.00  0.00    -0.191 NA
ATOM     17  C   UNL     1      34.947 -18.530 -21.910  0.00  0.00    +0.103 C 
ENDBRANCH   8  17
TORSDOF 1
ENDMDL
MODEL 7
REMARK VINA RESULT:      -7.0      4.554      7.116
REMARK  Name = 446357
REMARK  1 active torsions:
REMARK  status: ('A' for Active; 'I' for Inactive)
REMARK    1  A    between atoms: C_8  and  C_17
REMARK                            x       y       z     vdW  Elec       q    Type
REMARK                         _______ _______ _______ _____ _____    ______ ____
ROOT
ATOM      1  O   UNL     1      35.117 -18.504 -24.298  0.00  0.00    -0.209 OA
ATOM      2  N   UNL     1      34.059 -14.743 -21.909  0.00  0.00    -0.299 N 
ATOM      3  N   UNL     1      33.565 -14.761 -24.269  0.00  0.00    -0.264 N 
ATOM      4  N   UNL     1      34.144 -16.759 -25.457  0.00  0.00    -0.302 NA
ATOM      5  N   UNL     1      33.147 -14.917 -26.535  0.00  0.00    -0.320 N 
ATOM      6  C   UNL     1      34.034 -15.312 -23.141  0.00  0.00    +0.116 C 
ATOM      7  C   UNL     1      34.569 -16.570 -23.093  0.00  0.00    +0.133 C 
ATOM      8  C   UNL     1      34.947 -16.793 -21.748  0.00  0.00    +0.097 C 
ATOM      9  C   UNL     1      34.622 -15.649 -21.038  0.00  0.00    +0.074 C 
ATOM     10  C   UNL     1      34.645 -17.374 -24.304  0.00  0.00    +0.210 C 
ATOM     11  C   UNL     1      33.645 -15.540 -25.418  0.00  0.00    +0.248 C 
ATOM     12  H   UNL     1      33.733 -13.843 -21.679  0.00  0.00    +0.153 HD
ATOM     13  H   UNL     1      33.184 -13.854 -24.283  0.00  0.00    +0.157 HD
ATOM     14  H   UNL     1      32.782 -14.005 -26.467  0.00  0.00    +0.146 HD
ATOM     15  H   UNL     1      33.156 -15.381 -27.403  0.00  0.00    +0.146 HD
ENDROOT
BRANCH   8  17
ATOM     16  N   UNL     1      36.045 -18.899 -20.713  0.00  0.00    -0.191 NA
ATOM     17  C   UNL     1      35.550 -17.950 -21.180  0.00  0.00    +0.103 C 
ENDBRANCH   8  17
TORSDOF 1
ENDMDL
MODEL 8
REMARK VINA RESULT:      -7.0      6.145      8.179
REMARK  Name = 446357
REMARK  1 active torsions:
REMARK  status: ('A' for Active; 'I' for Inactive)
REMARK    1  A    between atoms: C_8  and  C_17
REMARK                            x       y       z     vdW  Elec       q    Type
REMARK                         _______ _______ _______ _____ _____    ______ ____
ROOT
ATOM      1  O   UNL     1      36.650 -26.006 -11.985  0.00  0.00    -0.209 OA
ATOM      2  N   UNL     1      37.212 -23.545 -15.806  0.00  0.00    -0.299 N 
ATOM      3  N   UNL     1      39.051 -24.913 -15.061  0.00  0.00    -0.264 N 
ATOM      4  N   UNL     1      38.690 -26.174 -13.056  0.00  0.00    -0.302 NA
ATOM      5  N   UNL     1      40.729 -26.267 -14.233  0.00  0.00    -0.320 N 
ATOM      6  C   UNL     1      37.810 -24.420 -14.959  0.00  0.00    +0.116 C 
ATOM      7  C   UNL     1      36.957 -24.754 -13.942  0.00  0.00    +0.133 C 
ATOM      8  C   UNL     1      35.758 -24.041 -14.176  0.00  0.00    +0.097 C 
ATOM      9  C   UNL     1      35.941 -23.302 -15.333  0.00  0.00    +0.074 C 
ATOM     10  C   UNL     1      37.387 -25.685 -12.910  0.00  0.00    +0.210 C 
ATOM     11  C   UNL     1      39.449 -25.801 -14.067  0.00  0.00    +0.248 C 
ATOM     12  H   UNL     1      37.614 -23.153 -16.615  0.00  0.00    +0.153 HD
ATOM     13  H   UNL     1      39.650 -24.660 -15.800  0.00  0.00    +0.157 HD
ATOM     14  H   UNL     1      41.267 -25.966 -15.000  0.00  0.00    +0.146 HD
ATOM     15  H   UNL     1      41.109 -26.902 -13.583  0.00  0.00    +0.146 HD
ENDROOT
BRANCH   8  17
ATOM     16  N   UNL     1      33.582 -24.048 -12.770  0.00  0.00    -0.191 NA
ATOM     17  C   UNL     1      34.562 -24.045 -13.404  0.00  0.00    +0.103 C 
ENDBRANCH   8  17
TORSDOF 1
ENDMDL
MODEL 9
REMARK VINA RESULT:      -7.0      4.026      5.590
REMARK  Name = 446357
REMARK  1 active torsions:
REMARK  status: ('A' for Active; 'I' for Inactive)
REMARK    1  A    between atoms: C_8  and  C_17
REMARK                            x       y       z     vdW  Elec       q    Type
REMARK                         _______ _______ _______ _____ _____    ______ ____
ROOT
ATOM      1  O   UNL     1      34.800 -15.291 -20.699  0.00  0.00    -0.209 OA
ATOM      2  N   UNL     1      34.749 -17.683 -24.604  0.00  0.00    -0.299 N 
ATOM      3  N   UNL     1      35.354 -18.839 -22.577  0.00  0.00    -0.264 N 
ATOM      4  N   UNL     1      35.360 -17.528 -20.571  0.00  0.00    -0.302 NA
ATOM      5  N   UNL     1      35.914 -19.818 -20.562  0.00  0.00    -0.320 N 
ATOM      6  C   UNL     1      34.981 -17.754 -23.269  0.00  0.00    +0.116 C 
ATOM      7  C   UNL     1      34.779 -16.532 -22.687  0.00  0.00    +0.133 C 
ATOM      8  C   UNL     1      34.400 -15.651 -23.727  0.00  0.00    +0.097 C 
ATOM      9  C   UNL     1      34.388 -16.387 -24.901  0.00  0.00    +0.074 C 
ATOM     10  C   UNL     1      34.971 -16.370 -21.253  0.00  0.00    +0.210 C 
ATOM     11  C   UNL     1      35.533 -18.669 -21.208  0.00  0.00    +0.248 C 
ATOM     12  H   UNL     1      34.824 -18.425 -25.247  0.00  0.00    +0.153 HD
ATOM     13  H   UNL     1      35.494 -19.709 -23.014  0.00  0.00    +0.157 HD
ATOM     14  H   UNL     1      36.033 -20.652 -21.070  0.00  0.00    +0.146 HD
ATOM     15  H   UNL     1      36.068 -19.808 -19.589  0.00  0.00    +0.146 HD
ENDROOT
BRANCH   8  17
ATOM     16  N   UNL     1      33.817 -13.132 -23.570  0.00  0.00    -0.191 NA
ATOM     17  C   UNL     1      34.080 -14.267 -23.640  0.00  0.00    +0.103 C 
ENDBRANCH   8  17
TORSDOF 1
ENDMDL
