MODEL 1
REMARK VINA RESULT:      -9.6      0.000      0.000
REMARK  Name = 11417567
REMARK  5 active torsions:
REMARK  status: ('A' for Active; 'I' for Inactive)
REMARK    1  A    between atoms: C_2  and  N_17
REMARK    2  A    between atoms: C_4  and  N_24
REMARK    3  A    between atoms: C_13  and  O_28
REMARK    4  A    between atoms: C_14  and  O_30
REMARK    5  A    between atoms: C_19  and  C_23
REMARK                            x       y       z     vdW  Elec       q    Type
REMARK                         _______ _______ _______ _____ _____    ______ ____
ROOT
ATOM      1  N   UNL     1      32.630 -11.564 -22.106  0.00  0.00    +0.392 N 
ATOM      2  C   UNL     1      33.245  -9.453 -23.239  0.00  0.00    +0.035 C 
ATOM      3  C   UNL     1      33.053 -12.395 -23.261  0.00  0.00    -0.037 C 
ATOM      4  C   UNL     1      33.835 -10.254 -24.410  0.00  0.00    -0.051 C 
ATOM      5  C   UNL     1      32.136 -10.253 -22.544  0.00  0.00    -0.059 C 
ATOM      6  C   UNL     1      34.227 -11.668 -23.958  0.00  0.00    -0.037 C 
ATOM      7  C   UNL     1      31.617 -12.258 -21.306  0.00  0.00    -0.072 C 
ATOM      8  C   UNL     1      33.405 -13.828 -22.863  0.00  0.00    -0.042 C 
ATOM      9  C   UNL     1      32.259 -13.469 -20.634  0.00  0.00    +0.003 C 
ATOM     10  C   UNL     1      32.999 -14.340 -21.614  0.00  0.00    -0.027 C 
ATOM     11  C   UNL     1      34.058 -14.695 -23.757  0.00  0.00    +0.033 C 
ATOM     12  C   UNL     1      33.311 -15.660 -21.256  0.00  0.00    +0.035 C 
ATOM     13  C   UNL     1      34.353 -16.012 -23.396  0.00  0.00    +0.172 C 
ATOM     14  C   UNL     1      33.987 -16.492 -22.144  0.00  0.00    +0.172 C 
ATOM     15  H   UNL     1      33.450 -11.409 -21.520  0.00  0.00    -0.079 HD
ENDROOT
BRANCH   2  17
ATOM     16  O   UNL     1      34.709  -6.945 -23.969  0.00  0.00    -0.275 OA
ATOM     17  N   UNL     1      32.725  -8.176 -23.676  0.00  0.00    -0.285 N 
ATOM     18  C   UNL     1      31.316  -7.980 -23.931  0.00  0.00    +0.096 C 
ATOM     19  C   UNL     1      31.174  -6.466 -24.017  0.00  0.00    +0.064 C 
ATOM     20  C   UNL     1      32.543  -6.008 -24.528  0.00  0.00    +0.090 C 
ATOM     21  C   UNL     1      33.493  -7.066 -24.016  0.00  0.00    +0.226 C 
BRANCH  19  23
ATOM     22  F   UNL     1      31.662  -4.782 -22.474  0.00  0.00    -0.234 F 
ATOM     23  C   UNL     1      30.853  -5.852 -22.653  0.00  0.00    +0.195 C 
ENDBRANCH  19  23
ENDBRANCH   2  17
BRANCH   4  24
ATOM     24  N   UNL     1      35.013  -9.584 -24.967  0.00  0.00    +0.383 N 
ATOM     25  H   UNL     1      35.130  -9.857 -25.942  0.00  0.00    -0.089 HD
ATOM     26  H   UNL     1      35.840  -9.855 -24.435  0.00  0.00    -0.089 HD
ATOM     27  H   UNL     1      34.888  -8.574 -24.909  0.00  0.00    -0.089 HD
ENDBRANCH   4  24
BRANCH  13  28
ATOM     28  O   UNL     1      34.997 -16.819 -24.286  0.00  0.00    -0.468 OA
ATOM     29  C   UNL     1      34.197 -17.459 -25.278  0.00  0.00    +0.253 C 
ENDBRANCH  13  28
BRANCH  14  30
ATOM     30  O   UNL     1      34.273 -17.772 -21.780  0.00  0.00    -0.468 OA
ATOM     31  C   UNL     1      35.489 -17.986 -21.066  0.00  0.00    +0.253 C 
ENDBRANCH  14  30
TORSDOF 5
ENDMDL
MODEL 2
REMARK VINA RESULT:      -8.9      3.433      8.379
REMARK  Name = 11417567
REMARK  5 active torsions:
REMARK  status: ('A' for Active; 'I' for Inactive)
REMARK    1  A    between atoms: C_2  and  N_17
REMARK    2  A    between atoms: C_4  and  N_24
REMARK    3  A    between atoms: C_13  and  O_28
REMARK    4  A    between atoms: C_14  and  O_30
REMARK    5  A    between atoms: C_19  and  C_23
REMARK                            x       y       z     vdW  Elec       q    Type
REMARK                         _______ _______ _______ _____ _____    ______ ____
ROOT
ATOM      1  N   UNL     1      32.642 -13.477 -22.290  0.00  0.00    +0.392 N 
ATOM      2  C   UNL     1      33.450 -15.294 -23.760  0.00  0.00    +0.035 C 
ATOM      3  C   UNL     1      33.391 -12.436 -23.038  0.00  0.00    -0.037 C 
ATOM      4  C   UNL     1      34.132 -14.258 -24.665  0.00  0.00    -0.051 C 
ATOM      5  C   UNL     1      33.341 -14.767 -22.324  0.00  0.00    -0.059 C 
ATOM      6  C   UNL     1      33.465 -12.883 -24.516  0.00  0.00    -0.037 C 
ATOM      7  C   UNL     1      32.401 -13.055 -20.907  0.00  0.00    -0.072 C 
ATOM      8  C   UNL     1      32.789 -11.041 -22.876  0.00  0.00    -0.042 C 
ATOM      9  C   UNL     1      31.432 -11.876 -20.908  0.00  0.00    +0.003 C 
ATOM     10  C   UNL     1      31.872 -10.777 -21.839  0.00  0.00    -0.027 C 
ATOM     11  C   UNL     1      33.196  -9.971 -23.692  0.00  0.00    +0.033 C 
ATOM     12  C   UNL     1      31.331  -9.493 -21.684  0.00  0.00    +0.035 C 
ATOM     13  C   UNL     1      32.662  -8.692 -23.521  0.00  0.00    +0.172 C 
ATOM     14  C   UNL     1      31.724  -8.454 -22.524  0.00  0.00    +0.172 C 
ATOM     15  H   UNL     1      31.739 -13.598 -22.749  0.00  0.00    -0.079 HD
ENDROOT
BRANCH   2  17
ATOM     16  O   UNL     1      33.490 -17.453 -25.835  0.00  0.00    -0.275 OA
ATOM     17  N   UNL     1      34.158 -16.555 -23.765  0.00  0.00    -0.285 N 
ATOM     18  C   UNL     1      35.093 -16.901 -22.719  0.00  0.00    +0.096 C 
ATOM     19  C   UNL     1      35.323 -18.393 -22.923  0.00  0.00    +0.064 C 
ATOM     20  C   UNL     1      35.108 -18.585 -24.427  0.00  0.00    +0.090 C 
ATOM     21  C   UNL     1      34.131 -17.492 -24.795  0.00  0.00    +0.226 C 
BRANCH  19  23
ATOM     22  F   UNL     1      34.003 -18.527 -21.001  0.00  0.00    -0.234 F 
ATOM     23  C   UNL     1      34.339 -19.232 -22.106  0.00  0.00    +0.195 C 
ENDBRANCH  19  23
ENDBRANCH   2  17
BRANCH   4  24
ATOM     24  N   UNL     1      34.079 -14.668 -26.070  0.00  0.00    +0.383 N 
ATOM     25  H   UNL     1      33.454 -15.468 -26.168  0.00  0.00    -0.089 HD
ATOM     26  H   UNL     1      35.014 -14.925 -26.385  0.00  0.00    -0.089 HD
ATOM     27  H   UNL     1      33.731 -13.894 -26.637  0.00  0.00    -0.089 HD
ENDBRANCH   4  24
BRANCH  13  28
ATOM     28  O   UNL     1      33.074  -7.683 -24.339  0.00  0.00    -0.468 OA
ATOM     29  C   UNL     1      34.381  -7.160 -24.117  0.00  0.00    +0.253 C 
ENDBRANCH  13  28
BRANCH  14  30
ATOM     30  O   UNL     1      31.193  -7.213 -22.351  0.00  0.00    -0.468 OA
ATOM     31  C   UNL     1      31.784  -6.388 -21.349  0.00  0.00    +0.253 C 
ENDBRANCH  14  30
TORSDOF 5
ENDMDL
MODEL 3
REMARK VINA RESULT:      -8.7      3.744      8.743
REMARK  Name = 11417567
REMARK  5 active torsions:
REMARK  status: ('A' for Active; 'I' for Inactive)
REMARK    1  A    between atoms: C_2  and  N_17
REMARK    2  A    between atoms: C_4  and  N_24
REMARK    3  A    between atoms: C_13  and  O_28
REMARK    4  A    between atoms: C_14  and  O_30
REMARK    5  A    between atoms: C_19  and  C_23
REMARK                            x       y       z     vdW  Elec       q    Type
REMARK                         _______ _______ _______ _____ _____    ______ ____
ROOT
ATOM      1  N   UNL     1      34.061 -13.515 -23.904  0.00  0.00    +0.392 N 
ATOM      2  C   UNL     1      34.832 -15.665 -22.954  0.00  0.00    +0.035 C 
ATOM      3  C   UNL     1      33.096 -13.287 -22.799  0.00  0.00    -0.037 C 
ATOM      4  C   UNL     1      33.964 -15.426 -21.710  0.00  0.00    -0.051 C 
ATOM      5  C   UNL     1      34.236 -14.948 -24.172  0.00  0.00    -0.059 C 
ATOM      6  C   UNL     1      33.686 -13.928 -21.521  0.00  0.00    -0.037 C 
ATOM      7  C   UNL     1      33.643 -12.808 -25.118  0.00  0.00    -0.072 C 
ATOM      8  C   UNL     1      32.752 -11.809 -22.608  0.00  0.00    -0.042 C 
ATOM      9  C   UNL     1      33.751 -11.304 -24.880  0.00  0.00    +0.003 C 
ATOM     10  C   UNL     1      33.047 -10.874 -23.620  0.00  0.00    -0.027 C 
ATOM     11  C   UNL     1      32.059 -11.363 -21.470  0.00  0.00    +0.033 C 
ATOM     12  C   UNL     1      32.718  -9.521 -23.450  0.00  0.00    +0.035 C 
ATOM     13  C   UNL     1      31.723 -10.015 -21.315  0.00  0.00    +0.172 C 
ATOM     14  C   UNL     1      32.060  -9.094 -22.300  0.00  0.00    +0.172 C 
ATOM     15  H   UNL     1      34.963 -13.140 -23.610  0.00  0.00    -0.079 HD
ENDROOT
BRANCH   2  17
ATOM     16  O   UNL     1      33.873 -17.241 -25.313  0.00  0.00    -0.275 OA
ATOM     17  N   UNL     1      34.975 -17.076 -23.241  0.00  0.00    -0.285 N 
ATOM     18  C   UNL     1      35.759 -17.943 -22.392  0.00  0.00    +0.096 C 
ATOM     19  C   UNL     1      35.361 -19.342 -22.843  0.00  0.00    +0.064 C 
ATOM     20  C   UNL     1      34.990 -19.149 -24.317  0.00  0.00    +0.090 C 
ATOM     21  C   UNL     1      34.510 -17.718 -24.385  0.00  0.00    +0.226 C 
BRANCH  19  23
ATOM     22  F   UNL     1      34.075 -19.146 -20.903  0.00  0.00    -0.234 F 
ATOM     23  C   UNL     1      34.177 -19.880 -22.036  0.00  0.00    +0.195 C 
ENDBRANCH  19  23
ENDBRANCH   2  17
BRANCH   4  24
ATOM     24  N   UNL     1      34.614 -15.949 -20.506  0.00  0.00    +0.383 N 
ATOM     25  H   UNL     1      35.256 -15.249 -20.133  0.00  0.00    -0.089 HD
ATOM     26  H   UNL     1      35.132 -16.796 -20.739  0.00  0.00    -0.089 HD
ATOM     27  H   UNL     1      33.905 -16.166 -19.805  0.00  0.00    -0.089 HD
ENDBRANCH   4  24
BRANCH  13  28
ATOM     28  O   UNL     1      31.060  -9.619 -20.192  0.00  0.00    -0.468 OA
ATOM     29  C   UNL     1      31.133 -10.479 -19.058  0.00  0.00    +0.253 C 
ENDBRANCH  13  28
BRANCH  14  30
ATOM     30  O   UNL     1      31.742  -7.778 -22.157  0.00  0.00    -0.468 OA
ATOM     31  C   UNL     1      31.013  -7.168 -23.221  0.00  0.00    +0.253 C 
ENDBRANCH  14  30
TORSDOF 5
ENDMDL
MODEL 4
REMARK VINA RESULT:      -8.6      3.567      8.328
REMARK  Name = 11417567
REMARK  5 active torsions:
REMARK  status: ('A' for Active; 'I' for Inactive)
REMARK    1  A    between atoms: C_2  and  N_17
REMARK    2  A    between atoms: C_4  and  N_24
REMARK    3  A    between atoms: C_13  and  O_28
REMARK    4  A    between atoms: C_14  and  O_30
REMARK    5  A    between atoms: C_19  and  C_23
REMARK                            x       y       z     vdW  Elec       q    Type
REMARK                         _______ _______ _______ _____ _____    ______ ____
ROOT
ATOM      1  N   UNL     1      32.556 -12.458 -22.649  0.00  0.00    +0.392 N 
ATOM      2  C   UNL     1      33.196 -14.104 -24.380  0.00  0.00    +0.035 C 
ATOM      3  C   UNL     1      33.366 -11.378 -23.268  0.00  0.00    -0.037 C 
ATOM      4  C   UNL     1      33.936 -13.002 -25.153  0.00  0.00    -0.051 C 
ATOM      5  C   UNL     1      33.156 -13.777 -22.882  0.00  0.00    -0.059 C 
ATOM      6  C   UNL     1      33.377 -11.618 -24.796  0.00  0.00    -0.037 C 
ATOM      7  C   UNL     1      32.375 -12.217 -21.214  0.00  0.00    -0.072 C 
ATOM      8  C   UNL     1      32.874  -9.980 -22.897  0.00  0.00    -0.042 C 
ATOM      9  C   UNL     1      31.497 -10.983 -21.024  0.00  0.00    +0.003 C 
ATOM     10  C   UNL     1      32.000  -9.799 -21.807  0.00  0.00    -0.027 C 
ATOM     11  C   UNL     1      33.344  -8.839 -23.569  0.00  0.00    +0.033 C 
ATOM     12  C   UNL     1      31.560  -8.514 -21.459  0.00  0.00    +0.035 C 
ATOM     13  C   UNL     1      32.911  -7.561 -23.207  0.00  0.00    +0.172 C 
ATOM     14  C   UNL     1      32.013  -7.398 -22.159  0.00  0.00    +0.172 C 
ATOM     15  H   UNL     1      31.638 -12.448 -23.093  0.00  0.00    -0.079 HD
ENDROOT
BRANCH   2  17
ATOM     16  O   UNL     1      32.708 -16.133 -26.528  0.00  0.00    -0.275 OA
ATOM     17  N   UNL     1      33.807 -15.399 -24.581  0.00  0.00    -0.285 N 
ATOM     18  C   UNL     1      34.896 -15.858 -23.749  0.00  0.00    +0.096 C 
ATOM     19  C   UNL     1      34.987 -17.345 -24.065  0.00  0.00    +0.064 C 
ATOM     20  C   UNL     1      34.483 -17.434 -25.509  0.00  0.00    +0.090 C 
ATOM     21  C   UNL     1      33.528 -16.269 -25.631  0.00  0.00    +0.226 C 
BRANCH  19  23
ATOM     22  F   UNL     1      34.568 -19.453 -23.150  0.00  0.00    -0.234 F 
ATOM     23  C   UNL     1      34.119 -18.177 -23.118  0.00  0.00    +0.195 C 
ENDBRANCH  19  23
ENDBRANCH   2  17
BRANCH   4  24
ATOM     24  N   UNL     1      33.824 -13.206 -26.599  0.00  0.00    +0.383 N 
ATOM     25  H   UNL     1      34.756 -13.229 -27.013  0.00  0.00    -0.089 HD
ATOM     26  H   UNL     1      33.288 -12.442 -27.010  0.00  0.00    -0.089 HD
ATOM     27  H   UNL     1      33.351 -14.090 -26.782  0.00  0.00    -0.089 HD
ENDBRANCH   4  24
BRANCH  13  28
ATOM     28  O   UNL     1      33.381  -6.479 -23.890  0.00  0.00    -0.468 OA
ATOM     29  C   UNL     1      34.458  -6.703 -24.797  0.00  0.00    +0.253 C 
ENDBRANCH  13  28
BRANCH  14  30
ATOM     30  O   UNL     1      31.580  -6.159 -21.800  0.00  0.00    -0.468 OA
ATOM     31  C   UNL     1      30.405  -5.671 -22.446  0.00  0.00    +0.253 C 
ENDBRANCH  14  30
TORSDOF 5
ENDMDL
MODEL 5
REMARK VINA RESULT:      -8.5      3.700      8.687
REMARK  Name = 11417567
REMARK  5 active torsions:
REMARK  status: ('A' for Active; 'I' for Inactive)
REMARK    1  A    between atoms: C_2  and  N_17
REMARK    2  A    between atoms: C_4  and  N_24
REMARK    3  A    between atoms: C_13  and  O_28
REMARK    4  A    between atoms: C_14  and  O_30
REMARK    5  A    between atoms: C_19  and  C_23
REMARK                            x       y       z     vdW  Elec       q    Type
REMARK                         _______ _______ _______ _____ _____    ______ ____
ROOT
ATOM      1  N   UNL     1      32.967 -14.558 -22.041  0.00  0.00    +0.392 N 
ATOM      2  C   UNL     1      33.902 -16.708 -22.826  0.00  0.00    +0.035 C 
ATOM      3  C   UNL     1      33.992 -13.762 -22.762  0.00  0.00    -0.037 C 
ATOM      4  C   UNL     1      34.902 -15.950 -23.712  0.00  0.00    -0.051 C 
ATOM      5  C   UNL     1      33.501 -15.857 -21.615  0.00  0.00    -0.059 C 
ATOM      6  C   UNL     1      34.380 -14.544 -24.039  0.00  0.00    -0.037 C 
ATOM      7  C   UNL     1      32.440 -13.814 -20.893  0.00  0.00    -0.072 C 
ATOM      8  C   UNL     1      33.531 -12.336 -23.064  0.00  0.00    -0.042 C 
ATOM      9  C   UNL     1      31.642 -12.616 -21.402  0.00  0.00    +0.003 C 
ATOM     10  C   UNL     1      32.422 -11.789 -22.390  0.00  0.00    -0.027 C 
ATOM     11  C   UNL     1      34.248 -11.510 -23.947  0.00  0.00    +0.033 C 
ATOM     12  C   UNL     1      32.009 -10.476 -22.658  0.00  0.00    +0.035 C 
ATOM     13  C   UNL     1      33.837 -10.198 -24.198  0.00  0.00    +0.172 C 
ATOM     14  C   UNL     1      32.714  -9.684 -23.561  0.00  0.00    +0.172 C 
ATOM     15  H   UNL     1      32.199 -14.733 -22.689  0.00  0.00    -0.079 HD
ENDROOT
BRANCH   2  17
ATOM     16  O   UNL     1      34.361 -19.241 -24.357  0.00  0.00    -0.275 OA
ATOM     17  N   UNL     1      34.442 -17.973 -22.377  0.00  0.00    -0.285 N 
ATOM     18  C   UNL     1      34.963 -18.140 -21.039  0.00  0.00    +0.096 C 
ATOM     19  C   UNL     1      35.088 -19.650 -20.889  0.00  0.00    +0.064 C 
ATOM     20  C   UNL     1      35.333 -20.132 -22.322  0.00  0.00    +0.090 C 
ATOM     21  C   UNL     1      34.638 -19.096 -23.176  0.00  0.00    +0.226 C 
BRANCH  19  23
ATOM     22  F   UNL     1      32.813 -19.368 -20.441  0.00  0.00    -0.234 F 
ATOM     23  C   UNL     1      33.816 -20.266 -20.302  0.00  0.00    +0.195 C 
ENDBRANCH  19  23
ENDBRANCH   2  17
BRANCH   4  24
ATOM     24  N   UNL     1      35.153 -16.671 -24.962  0.00  0.00    +0.383 N 
ATOM     25  H   UNL     1      34.311 -16.658 -25.538  0.00  0.00    -0.089 HD
ATOM     26  H   UNL     1      35.407 -17.637 -24.751  0.00  0.00    -0.089 HD
ATOM     27  H   UNL     1      35.916 -16.221 -25.466  0.00  0.00    -0.089 HD
ENDBRANCH   4  24
BRANCH  13  28
ATOM     28  O   UNL     1      34.551  -9.431 -25.069  0.00  0.00    -0.468 OA
ATOM     29  C   UNL     1      35.548 -10.090 -25.847  0.00  0.00    +0.253 C 
ENDBRANCH  13  28
BRANCH  14  30
ATOM     30  O   UNL     1      32.301  -8.409 -23.801  0.00  0.00    -0.468 OA
ATOM     31  C   UNL     1      31.711  -7.703 -22.712  0.00  0.00    +0.253 C 
ENDBRANCH  14  30
TORSDOF 5
ENDMDL
MODEL 6
REMARK VINA RESULT:      -8.3      4.572      9.332
REMARK  Name = 11417567
REMARK  5 active torsions:
REMARK  status: ('A' for Active; 'I' for Inactive)
REMARK    1  A    between atoms: C_2  and  N_17
REMARK    2  A    between atoms: C_4  and  N_24
REMARK    3  A    between atoms: C_13  and  O_28
REMARK    4  A    between atoms: C_14  and  O_30
REMARK    5  A    between atoms: C_19  and  C_23
REMARK                            x       y       z     vdW  Elec       q    Type
REMARK                         _______ _______ _______ _____ _____    ______ ____
ROOT
ATOM      1  N   UNL     1      33.219 -15.649 -21.335  0.00  0.00    +0.392 N 
ATOM      2  C   UNL     1      33.854 -17.976 -21.884  0.00  0.00    +0.035 C 
ATOM      3  C   UNL     1      34.083 -15.082 -22.401  0.00  0.00    -0.037 C 
ATOM      4  C   UNL     1      34.653 -17.472 -23.094  0.00  0.00    -0.051 C 
ATOM      5  C   UNL     1      33.780 -16.894 -20.798  0.00  0.00    -0.059 C 
ATOM      6  C   UNL     1      34.131 -16.105 -23.559  0.00  0.00    -0.037 C 
ATOM      7  C   UNL     1      33.003 -14.674 -20.262  0.00  0.00    -0.072 C 
ATOM      8  C   UNL     1      33.627 -13.697 -22.859  0.00  0.00    -0.042 C 
ATOM      9  C   UNL     1      32.162 -13.520 -20.802  0.00  0.00    +0.003 C 
ATOM     10  C   UNL     1      32.728 -12.948 -22.075  0.00  0.00    -0.027 C 
ATOM     11  C   UNL     1      34.156 -13.102 -24.018  0.00  0.00    +0.033 C 
ATOM     12  C   UNL     1      32.322 -11.672 -22.491  0.00  0.00    +0.035 C 
ATOM     13  C   UNL     1      33.755 -11.824 -24.417  0.00  0.00    +0.172 C 
ATOM     14  C   UNL     1      32.832 -11.113 -23.659  0.00  0.00    +0.172 C 
ATOM     15  H   UNL     1      32.315 -15.869 -21.754  0.00  0.00    -0.079 HD
ENDROOT
BRANCH   2  17
ATOM     16  O   UNL     1      32.589 -20.076 -20.164  0.00  0.00    -0.275 OA
ATOM     17  N   UNL     1      34.427 -19.184 -21.331  0.00  0.00    -0.285 N 
ATOM     18  C   UNL     1      35.769 -19.603 -21.663  0.00  0.00    +0.096 C 
ATOM     19  C   UNL     1      36.074 -20.679 -20.629  0.00  0.00    +0.064 C 
ATOM     20  C   UNL     1      34.696 -21.267 -20.309  0.00  0.00    +0.090 C 
ATOM     21  C   UNL     1      33.746 -20.117 -20.554  0.00  0.00    +0.226 C 
BRANCH  19  23
ATOM     22  F   UNL     1      36.709 -21.033 -18.409  0.00  0.00    -0.234 F 
ATOM     23  C   UNL     1      36.734 -20.091 -19.380  0.00  0.00    +0.195 C 
ENDBRANCH  19  23
ENDBRANCH   2  17
BRANCH   4  24
ATOM     24  N   UNL     1      34.578 -18.419 -24.208  0.00  0.00    +0.383 N 
ATOM     25  H   UNL     1      35.494 -18.501 -24.649  0.00  0.00    -0.089 HD
ATOM     26  H   UNL     1      33.899 -18.086 -24.893  0.00  0.00    -0.089 HD
ATOM     27  H   UNL     1      34.287 -19.332 -23.859  0.00  0.00    -0.089 HD
ENDBRANCH   4  24
BRANCH  13  28
ATOM     28  O   UNL     1      34.282 -11.285 -25.552  0.00  0.00    -0.468 OA
ATOM     29  C   UNL     1      35.364 -10.370 -25.394  0.00  0.00    +0.253 C 
ENDBRANCH  13  28
BRANCH  14  30
ATOM     30  O   UNL     1      32.431  -9.870 -24.041  0.00  0.00    -0.468 OA
ATOM     31  C   UNL     1      31.730  -9.089 -23.073  0.00  0.00    +0.253 C 
ENDBRANCH  14  30
TORSDOF 5
ENDMDL
MODEL 7
REMARK VINA RESULT:      -8.0      2.195      3.943
REMARK  Name = 11417567
REMARK  5 active torsions:
REMARK  status: ('A' for Active; 'I' for Inactive)
REMARK    1  A    between atoms: C_2  and  N_17
REMARK    2  A    between atoms: C_4  and  N_24
REMARK    3  A    between atoms: C_13  and  O_28
REMARK    4  A    between atoms: C_14  and  O_30
REMARK    5  A    between atoms: C_19  and  C_23
REMARK                            x       y       z     vdW  Elec       q    Type
REMARK                         _______ _______ _______ _____ _____    ______ ____
ROOT
ATOM      1  N   UNL     1      33.189 -13.894 -24.077  0.00  0.00    +0.392 N 
ATOM      2  C   UNL     1      32.303 -12.181 -22.529  0.00  0.00    +0.035 C 
ATOM      3  C   UNL     1      34.001 -14.541 -23.017  0.00  0.00    -0.037 C 
ATOM      4  C   UNL     1      33.000 -12.883 -21.354  0.00  0.00    -0.051 C 
ATOM      5  C   UNL     1      33.051 -12.452 -23.840  0.00  0.00    -0.059 C 
ATOM      6  C   UNL     1      33.251 -14.363 -21.676  0.00  0.00    -0.037 C 
ATOM      7  C   UNL     1      33.761 -14.148 -25.403  0.00  0.00    -0.072 C 
ATOM      8  C   UNL     1      34.317 -16.005 -23.322  0.00  0.00    -0.042 C 
ATOM      9  C   UNL     1      33.622 -15.633 -25.728  0.00  0.00    +0.003 C 
ATOM     10  C   UNL     1      34.156 -16.511 -24.627  0.00  0.00    -0.027 C 
ATOM     11  C   UNL     1      34.856 -16.855 -22.341  0.00  0.00    +0.033 C 
ATOM     12  C   UNL     1      34.459 -17.851 -24.908  0.00  0.00    +0.035 C 
ATOM     13  C   UNL     1      35.168 -18.185 -22.634  0.00  0.00    +0.172 C 
ATOM     14  C   UNL     1      34.962 -18.686 -23.914  0.00  0.00    +0.172 C 
ATOM     15  H   UNL     1      32.256 -14.307 -24.048  0.00  0.00    -0.079 HD
ENDROOT
BRANCH   2  17
ATOM     16  O   UNL     1      30.503 -10.658 -20.682  0.00  0.00    -0.275 OA
ATOM     17  N   UNL     1      32.198 -10.755 -22.312  0.00  0.00    -0.285 N 
ATOM     18  C   UNL     1      33.106  -9.826 -22.945  0.00  0.00    +0.096 C 
ATOM     19  C   UNL     1      32.439  -8.473 -22.734  0.00  0.00    +0.064 C 
ATOM     20  C   UNL     1      31.659  -8.661 -21.429  0.00  0.00    +0.090 C 
ATOM     21  C   UNL     1      31.338 -10.137 -21.408  0.00  0.00    +0.226 C 
BRANCH  19  23
ATOM     22  F   UNL     1      30.385  -7.565 -23.377  0.00  0.00    -0.234 F 
ATOM     23  C   UNL     1      31.509  -8.114 -23.894  0.00  0.00    +0.195 C 
ENDBRANCH  19  23
ENDBRANCH   2  17
BRANCH   4  24
ATOM     24  N   UNL     1      32.200 -12.787 -20.131  0.00  0.00    +0.383 N 
ATOM     25  H   UNL     1      31.388 -13.399 -20.207  0.00  0.00    -0.089 HD
ATOM     26  H   UNL     1      31.890 -11.824 -20.003  0.00  0.00    -0.089 HD
ATOM     27  H   UNL     1      32.766 -13.071 -19.332  0.00  0.00    -0.089 HD
ENDBRANCH   4  24
BRANCH  13  28
ATOM     28  O   UNL     1      35.679 -18.982 -21.653  0.00  0.00    -0.468 OA
ATOM     29  C   UNL     1      34.746 -19.629 -20.792  0.00  0.00    +0.253 C 
ENDBRANCH  13  28
BRANCH  14  30
ATOM     30  O   UNL     1      35.257 -19.981 -24.210  0.00  0.00    -0.468 OA
ATOM     31  C   UNL     1      34.755 -20.495 -25.442  0.00  0.00    +0.253 C 
ENDBRANCH  14  30
TORSDOF 5
ENDMDL
MODEL 8
REMARK VINA RESULT:      -7.8      8.102     12.521
REMARK  Name = 11417567
REMARK  5 active torsions:
REMARK  status: ('A' for Active; 'I' for Inactive)
REMARK    1  A    between atoms: C_2  and  N_17
REMARK    2  A    between atoms: C_4  and  N_24
REMARK    3  A    between atoms: C_13  and  O_28
REMARK    4  A    between atoms: C_14  and  O_30
REMARK    5  A    between atoms: C_19  and  C_23
REMARK                            x       y       z     vdW  Elec       q    Type
REMARK                         _______ _______ _______ _____ _____    ______ ____
ROOT
ATOM      1  N   UNL     1      36.588 -21.970 -17.670  0.00  0.00    +0.392 N 
ATOM      2  C   UNL     1      35.359 -21.298 -19.708  0.00  0.00    +0.035 C 
ATOM      3  C   UNL     1      35.342 -22.108 -16.873  0.00  0.00    -0.037 C 
ATOM      4  C   UNL     1      34.026 -21.560 -18.991  0.00  0.00    -0.051 C 
ATOM      5  C   UNL     1      36.453 -20.931 -18.697  0.00  0.00    -0.059 C 
ATOM      6  C   UNL     1      34.217 -22.553 -17.836  0.00  0.00    -0.037 C 
ATOM      7  C   UNL     1      37.736 -21.693 -16.801  0.00  0.00    -0.072 C 
ATOM      8  C   UNL     1      35.502 -23.051 -15.681  0.00  0.00    -0.042 C 
ATOM      9  C   UNL     1      38.017 -22.924 -15.942  0.00  0.00    +0.003 C 
ATOM     10  C   UNL     1      36.786 -23.415 -15.228  0.00  0.00    -0.027 C 
ATOM     11  C   UNL     1      34.387 -23.505 -14.956  0.00  0.00    +0.033 C 
ATOM     12  C   UNL     1      36.930 -24.270 -14.126  0.00  0.00    +0.035 C 
ATOM     13  C   UNL     1      34.541 -24.345 -13.850  0.00  0.00    +0.172 C 
ATOM     14  C   UNL     1      35.811 -24.735 -13.440  0.00  0.00    +0.172 C 
ATOM     15  H   UNL     1      36.752 -22.859 -18.143  0.00  0.00    -0.079 HD
ENDROOT
BRANCH   2  17
ATOM     16  O   UNL     1      37.477 -19.574 -20.936  0.00  0.00    -0.275 OA
ATOM     17  N   UNL     1      35.236 -20.250 -20.697  0.00  0.00    -0.285 N 
ATOM     18  C   UNL     1      33.974 -19.959 -21.338  0.00  0.00    +0.096 C 
ATOM     19  C   UNL     1      34.213 -18.612 -22.008  0.00  0.00    +0.064 C 
ATOM     20  C   UNL     1      35.716 -18.625 -22.306  0.00  0.00    +0.090 C 
ATOM     21  C   UNL     1      36.292 -19.512 -21.226  0.00  0.00    +0.226 C 
BRANCH  19  23
ATOM     22  F   UNL     1      34.871 -16.579 -21.067  0.00  0.00    -0.234 F 
ATOM     23  C   UNL     1      33.836 -17.450 -21.087  0.00  0.00    +0.195 C 
ENDBRANCH  19  23
ENDBRANCH   2  17
BRANCH   4  24
ATOM     24  N   UNL     1      33.023 -22.087 -19.918  0.00  0.00    +0.383 N 
ATOM     25  H   UNL     1      32.274 -22.536 -19.390  0.00  0.00    -0.089 HD
ATOM     26  H   UNL     1      33.459 -22.770 -20.537  0.00  0.00    -0.089 HD
ATOM     27  H   UNL     1      32.637 -21.323 -20.472  0.00  0.00    -0.089 HD
ENDBRANCH   4  24
BRANCH  13  28
ATOM     28  O   UNL     1      33.435 -24.774 -13.179  0.00  0.00    -0.468 OA
ATOM     29  C   UNL     1      32.204 -24.786 -13.898  0.00  0.00    +0.253 C 
ENDBRANCH  13  28
BRANCH  14  30
ATOM     30  O   UNL     1      35.973 -25.557 -12.368  0.00  0.00    -0.468 OA
ATOM     31  C   UNL     1      37.232 -26.217 -12.242  0.00  0.00    +0.253 C 
ENDBRANCH  14  30
TORSDOF 5
ENDMDL
MODEL 9
REMARK VINA RESULT:      -7.8      1.388      2.788
REMARK  Name = 11417567
REMARK  5 active torsions:
REMARK  status: ('A' for Active; 'I' for Inactive)
REMARK    1  A    between atoms: C_2  and  N_17
REMARK    2  A    between atoms: C_4  and  N_24
REMARK    3  A    between atoms: C_13  and  O_28
REMARK    4  A    between atoms: C_14  and  O_30
REMARK    5  A    between atoms: C_19  and  C_23
REMARK                            x       y       z     vdW  Elec       q    Type
REMARK                         _______ _______ _______ _____ _____    ______ ____
ROOT
ATOM      1  N   UNL     1      33.026 -11.519 -24.761  0.00  0.00    +0.392 N 
ATOM      2  C   UNL     1      32.092  -9.564 -23.569  0.00  0.00    +0.035 C 
ATOM      3  C   UNL     1      33.614 -12.088 -23.522  0.00  0.00    -0.037 C 
ATOM      4  C   UNL     1      32.547 -10.163 -22.230  0.00  0.00    -0.051 C 
ATOM      5  C   UNL     1      32.992 -10.053 -24.711  0.00  0.00    -0.059 C 
ATOM      6  C   UNL     1      32.700 -11.687 -22.341  0.00  0.00    -0.037 C 
ATOM      7  C   UNL     1      33.755 -11.981 -25.946  0.00  0.00    -0.072 C 
ATOM      8  C   UNL     1      33.831 -13.599 -23.609  0.00  0.00    -0.042 C 
ATOM      9  C   UNL     1      33.524 -13.480 -26.119  0.00  0.00    +0.003 C 
ATOM     10  C   UNL     1      33.811 -14.251 -24.858  0.00  0.00    -0.027 C 
ATOM     11  C   UNL     1      34.143 -14.358 -22.467  0.00  0.00    +0.033 C 
ATOM     12  C   UNL     1      34.025 -15.635 -24.936  0.00  0.00    +0.035 C 
ATOM     13  C   UNL     1      34.367 -15.734 -22.557  0.00  0.00    +0.172 C 
ATOM     14  C   UNL     1      34.299 -16.374 -23.789  0.00  0.00    +0.172 C 
ATOM     15  H   UNL     1      32.064 -11.853 -24.828  0.00  0.00    -0.079 HD
ENDROOT
BRANCH   2  17
ATOM     16  O   UNL     1      34.380  -7.663 -23.217  0.00  0.00    -0.275 OA
ATOM     17  N   UNL     1      32.093  -8.118 -23.533  0.00  0.00    -0.285 N 
ATOM     18  C   UNL     1      30.892  -7.355 -23.789  0.00  0.00    +0.096 C 
ATOM     19  C   UNL     1      31.251  -5.952 -23.316  0.00  0.00    +0.064 C 
ATOM     20  C   UNL     1      32.766  -5.880 -23.529  0.00  0.00    +0.090 C 
ATOM     21  C   UNL     1      33.220  -7.314 -23.385  0.00  0.00    +0.226 C 
BRANCH  19  23
ATOM     22  F   UNL     1      30.124  -4.625 -21.758  0.00  0.00    -0.234 F 
ATOM     23  C   UNL     1      30.883  -5.742 -21.845  0.00  0.00    +0.195 C 
ENDBRANCH  19  23
ENDBRANCH   2  17
BRANCH   4  24
ATOM     24  N   UNL     1      31.593  -9.854 -21.163  0.00  0.00    +0.383 N 
ATOM     25  H   UNL     1      31.717  -8.886 -20.864  0.00  0.00    -0.089 HD
ATOM     26  H   UNL     1      31.754 -10.477 -20.372  0.00  0.00    -0.089 HD
ATOM     27  H   UNL     1      30.642  -9.983 -21.508  0.00  0.00    -0.089 HD
ENDBRANCH   4  24
BRANCH  13  28
ATOM     28  O   UNL     1      34.656 -16.438 -21.426  0.00  0.00    -0.468 OA
ATOM     29  C   UNL     1      34.564 -15.739 -20.187  0.00  0.00    +0.253 C 
ENDBRANCH  13  28
BRANCH  14  30
ATOM     30  O   UNL     1      34.511 -17.714 -23.888  0.00  0.00    -0.468 OA
ATOM     31  C   UNL     1      34.271 -18.316 -25.159  0.00  0.00    +0.253 C 
ENDBRANCH  14  30
TORSDOF 5
ENDMDL
