MODEL 1
REMARK VINA RESULT:      -8.7      0.000      0.000
REMARK  Name = 130956
REMARK  9 active torsions:
REMARK  status: ('A' for Active; 'I' for Inactive)
REMARK    1  A    between atoms: C_1  and  P_2
REMARK    2  A    between atoms: C_1  and  P_8
REMARK    3  A    between atoms: C_1  and  O_14
REMARK    4  A    between atoms: C_1  and  C_16
REMARK    5  A    between atoms: P_2  and  O_4
REMARK    6  A    between atoms: P_2  and  O_6
REMARK    7  A    between atoms: P_8  and  O_10
REMARK    8  A    between atoms: P_8  and  O_12
REMARK    9  A    between atoms: C_16  and  C_19
REMARK                            x       y       z     vdW  Elec       q    Type
REMARK                         _______ _______ _______ _____ _____    ______ ____
ROOT
ATOM      1  C   UNL     1      36.649 -24.555 -13.856  0.00  0.00    +0.280 C 
ENDROOT
BRANCH   1   2
ATOM      2  P   UNL     1      38.328 -24.716 -14.616  0.00  0.00    +0.372 P 
ATOM      3  O   UNL     1      38.707 -23.562 -15.494  0.00  0.00    -0.255 OA
BRANCH   2   4
ATOM      4  O   UNL     1      38.295 -26.159 -15.345  0.00  0.00    -0.322 OA
ATOM      5  H   UNL     1      37.693 -26.123 -16.104  0.00  0.00    +0.220 HD
ENDBRANCH   2   4
BRANCH   2   6
ATOM      6  O   UNL     1      39.302 -24.965 -13.351  0.00  0.00    -0.322 OA
ATOM      7  H   UNL     1      40.167 -25.275 -13.664  0.00  0.00    +0.220 HD
ENDBRANCH   2   6
ENDBRANCH   1   2
BRANCH   1   8
ATOM      8  P   UNL     1      36.419 -24.941 -12.083  0.00  0.00    +0.372 P 
ATOM      9  O   UNL     1      37.143 -24.046 -11.123  0.00  0.00    -0.255 OA
BRANCH   8  10
ATOM     10  O   UNL     1      34.812 -24.952 -11.907  0.00  0.00    -0.322 OA
ATOM     11  H   UNL     1      34.589 -25.187 -10.992  0.00  0.00    +0.220 HD
ENDBRANCH   8  10
BRANCH   8  12
ATOM     12  O   UNL     1      36.803 -26.509 -11.998  0.00  0.00    -0.322 OA
ATOM     13  H   UNL     1      36.000 -27.044 -12.081  0.00  0.00    +0.220 HD
ENDBRANCH   8  12
ENDBRANCH   1   8
BRANCH   1  14
ATOM     14  O   UNL     1      35.908 -25.580 -14.516  0.00  0.00    -0.366 OA
ATOM     15  H   UNL     1      35.702 -26.287 -13.885  0.00  0.00    +0.212 HD
ENDBRANCH   1  14
BRANCH   1  16
ATOM     16  C   UNL     1      36.079 -23.175 -14.264  0.00  0.00    +0.094 C 
BRANCH  16  19
ATOM     17  N   UNL     1      35.208 -22.735 -16.578  0.00  0.00    -0.252 N 
ATOM     18  N   UNL     1      33.111 -23.505 -16.470  0.00  0.00    -0.228 NA
ATOM     19  C   UNL     1      35.008 -23.208 -15.327  0.00  0.00    +0.057 C 
ATOM     20  C   UNL     1      33.740 -23.674 -15.263  0.00  0.00    +0.111 C 
ATOM     21  C   UNL     1      34.007 -22.938 -17.252  0.00  0.00    +0.139 C 
ATOM     22  C   UNL     1      36.330 -22.153 -17.161  0.00  0.00    +0.071 C 
ATOM     23  C   UNL     1      33.949 -22.518 -18.614  0.00  0.00    +0.035 C 
ATOM     24  C   UNL     1      36.268 -21.760 -18.444  0.00  0.00    +0.017 C 
ATOM     25  C   UNL     1      35.031 -21.955 -19.185  0.00  0.00    +0.004 C 
ENDBRANCH  16  19
ENDBRANCH   1  16
TORSDOF 9
ENDMDL
MODEL 2
REMARK VINA RESULT:      -8.6      0.159      1.398
REMARK  Name = 130956
REMARK  9 active torsions:
REMARK  status: ('A' for Active; 'I' for Inactive)
REMARK    1  A    between atoms: C_1  and  P_2
REMARK    2  A    between atoms: C_1  and  P_8
REMARK    3  A    between atoms: C_1  and  O_14
REMARK    4  A    between atoms: C_1  and  C_16
REMARK    5  A    between atoms: P_2  and  O_4
REMARK    6  A    between atoms: P_2  and  O_6
REMARK    7  A    between atoms: P_8  and  O_10
REMARK    8  A    between atoms: P_8  and  O_12
REMARK    9  A    between atoms: C_16  and  C_19
REMARK                            x       y       z     vdW  Elec       q    Type
REMARK                         _______ _______ _______ _____ _____    ______ ____
ROOT
ATOM      1  C   UNL     1      36.685 -24.628 -13.875  0.00  0.00    +0.280 C 
ENDROOT
BRANCH   1   2
ATOM      2  P   UNL     1      38.418 -24.898 -14.467  0.00  0.00    +0.372 P 
ATOM      3  O   UNL     1      39.433 -24.941 -13.365  0.00  0.00    -0.255 OA
BRANCH   2   4
ATOM      4  O   UNL     1      38.643 -23.738 -15.571  0.00  0.00    -0.322 OA
ATOM      5  H   UNL     1      38.071 -22.983 -15.367  0.00  0.00    +0.220 HD
ENDBRANCH   2   4
BRANCH   2   6
ATOM      6  O   UNL     1      38.316 -26.241 -15.359  0.00  0.00    -0.322 OA
ATOM      7  H   UNL     1      39.058 -26.272 -15.984  0.00  0.00    +0.220 HD
ENDBRANCH   2   6
ENDBRANCH   1   2
BRANCH   1   8
ATOM      8  P   UNL     1      36.269 -24.947 -12.123  0.00  0.00    +0.372 P 
ATOM      9  O   UNL     1      34.835 -24.725 -11.744  0.00  0.00    -0.255 OA
BRANCH   8  10
ATOM     10  O   UNL     1      36.801 -26.454 -11.879  0.00  0.00    -0.322 OA
ATOM     11  H   UNL     1      37.298 -26.490 -11.047  0.00  0.00    +0.220 HD
ENDBRANCH   8  10
BRANCH   8  12
ATOM     12  O   UNL     1      37.347 -24.047 -11.322  0.00  0.00    -0.322 OA
ATOM     13  H   UNL     1      36.921 -23.236 -11.007  0.00  0.00    +0.220 HD
ENDBRANCH   8  12
ENDBRANCH   1   8
BRANCH   1  14
ATOM     14  O   UNL     1      35.956 -25.635 -14.576  0.00  0.00    -0.366 OA
ATOM     15  H   UNL     1      36.571 -26.185 -15.084  0.00  0.00    +0.212 HD
ENDBRANCH   1  14
BRANCH   1  16
ATOM     16  C   UNL     1      36.231 -23.235 -14.372  0.00  0.00    +0.094 C 
BRANCH  16  19
ATOM     17  N   UNL     1      35.207 -22.751 -16.614  0.00  0.00    -0.252 N 
ATOM     18  N   UNL     1      33.116 -23.506 -16.373  0.00  0.00    -0.228 NA
ATOM     19  C   UNL     1      35.090 -23.243 -15.360  0.00  0.00    +0.057 C 
ATOM     20  C   UNL     1      33.825 -23.700 -15.216  0.00  0.00    +0.111 C 
ATOM     21  C   UNL     1      33.961 -22.934 -17.206  0.00  0.00    +0.139 C 
ATOM     22  C   UNL     1      36.291 -22.168 -17.264  0.00  0.00    +0.071 C 
ATOM     23  C   UNL     1      33.813 -22.492 -18.554  0.00  0.00    +0.035 C 
ATOM     24  C   UNL     1      36.144 -21.755 -18.533  0.00  0.00    +0.017 C 
ATOM     25  C   UNL     1      34.858 -21.928 -19.190  0.00  0.00    +0.004 C 
ENDBRANCH  16  19
ENDBRANCH   1  16
TORSDOF 9
ENDMDL
MODEL 3
REMARK VINA RESULT:      -8.6      1.216      2.470
REMARK  Name = 130956
REMARK  9 active torsions:
REMARK  status: ('A' for Active; 'I' for Inactive)
REMARK    1  A    between atoms: C_1  and  P_2
REMARK    2  A    between atoms: C_1  and  P_8
REMARK    3  A    between atoms: C_1  and  O_14
REMARK    4  A    between atoms: C_1  and  C_16
REMARK    5  A    between atoms: P_2  and  O_4
REMARK    6  A    between atoms: P_2  and  O_6
REMARK    7  A    between atoms: P_8  and  O_10
REMARK    8  A    between atoms: P_8  and  O_12
REMARK    9  A    between atoms: C_16  and  C_19
REMARK                            x       y       z     vdW  Elec       q    Type
REMARK                         _______ _______ _______ _____ _____    ______ ____
ROOT
ATOM      1  C   UNL     1      36.553 -24.540 -13.779  0.00  0.00    +0.280 C 
ENDROOT
BRANCH   1   2
ATOM      2  P   UNL     1      38.184 -24.645 -14.646  0.00  0.00    +0.372 P 
ATOM      3  O   UNL     1      38.486 -23.458 -15.511  0.00  0.00    -0.255 OA
BRANCH   2   4
ATOM      4  O   UNL     1      38.133 -26.066 -15.415  0.00  0.00    -0.322 OA
ATOM      5  H   UNL     1      37.218 -26.384 -15.447  0.00  0.00    +0.220 HD
ENDBRANCH   2   4
BRANCH   2   6
ATOM      6  O   UNL     1      39.240 -24.910 -13.452  0.00  0.00    -0.322 OA
ATOM      7  H   UNL     1      39.617 -25.800 -13.544  0.00  0.00    +0.220 HD
ENDBRANCH   2   6
ENDBRANCH   1   2
BRANCH   1   8
ATOM      8  P   UNL     1      36.443 -24.974 -12.006  0.00  0.00    +0.372 P 
ATOM      9  O   UNL     1      37.220 -24.096 -11.072  0.00  0.00    -0.255 OA
BRANCH   8  10
ATOM     10  O   UNL     1      34.851 -25.008 -11.726  0.00  0.00    -0.322 OA
ATOM     11  H   UNL     1      34.634 -25.785 -11.188  0.00  0.00    +0.220 HD
ENDBRANCH   8  10
BRANCH   8  12
ATOM     12  O   UNL     1      36.848 -26.539 -11.987  0.00  0.00    -0.322 OA
ATOM     13  H   UNL     1      37.540 -26.686 -11.325  0.00  0.00    +0.220 HD
ENDBRANCH   8  12
ENDBRANCH   1   8
BRANCH   1  14
ATOM     14  O   UNL     1      35.794 -25.566 -14.418  0.00  0.00    -0.366 OA
ATOM     15  H   UNL     1      36.203 -25.789 -15.268  0.00  0.00    +0.212 HD
ENDBRANCH   1  14
BRANCH   1  16
ATOM     16  C   UNL     1      35.929 -23.164 -14.116  0.00  0.00    +0.094 C 
BRANCH  16  19
ATOM     17  N   UNL     1      33.651 -23.264 -15.168  0.00  0.00    -0.252 N 
ATOM     18  N   UNL     1      34.107 -23.079 -17.349  0.00  0.00    -0.228 NA
ATOM     19  C   UNL     1      34.992 -23.153 -15.299  0.00  0.00    +0.057 C 
ATOM     20  C   UNL     1      35.267 -23.041 -16.618  0.00  0.00    +0.111 C 
ATOM     21  C   UNL     1      33.142 -23.214 -16.462  0.00  0.00    +0.139 C 
ATOM     22  C   UNL     1      32.857 -23.403 -14.033  0.00  0.00    +0.071 C 
ATOM     23  C   UNL     1      31.727 -23.312 -16.607  0.00  0.00    +0.035 C 
ATOM     24  C   UNL     1      31.525 -23.495 -14.177  0.00  0.00    +0.017 C 
ATOM     25  C   UNL     1      30.952 -23.447 -15.513  0.00  0.00    +0.004 C 
ENDBRANCH  16  19
ENDBRANCH   1  16
TORSDOF 9
ENDMDL
MODEL 4
REMARK VINA RESULT:      -8.6      1.146      3.148
REMARK  Name = 130956
REMARK  9 active torsions:
REMARK  status: ('A' for Active; 'I' for Inactive)
REMARK    1  A    between atoms: C_1  and  P_2
REMARK    2  A    between atoms: C_1  and  P_8
REMARK    3  A    between atoms: C_1  and  O_14
REMARK    4  A    between atoms: C_1  and  C_16
REMARK    5  A    between atoms: P_2  and  O_4
REMARK    6  A    between atoms: P_2  and  O_6
REMARK    7  A    between atoms: P_8  and  O_10
REMARK    8  A    between atoms: P_8  and  O_12
REMARK    9  A    between atoms: C_16  and  C_19
REMARK                            x       y       z     vdW  Elec       q    Type
REMARK                         _______ _______ _______ _____ _____    ______ ____
ROOT
ATOM      1  C   UNL     1      36.987 -24.417 -13.832  0.00  0.00    +0.280 C 
ENDROOT
BRANCH   1   2
ATOM      2  P   UNL     1      36.965 -24.474 -11.983  0.00  0.00    +0.372 P 
ATOM      3  O   UNL     1      37.241 -23.152 -11.333  0.00  0.00    -0.255 OA
BRANCH   2   4
ATOM      4  O   UNL     1      38.003 -25.657 -11.611  0.00  0.00    -0.322 OA
ATOM      5  H   UNL     1      38.626 -25.341 -10.940  0.00  0.00    +0.220 HD
ENDBRANCH   2   4
BRANCH   2   6
ATOM      6  O   UNL     1      35.527 -25.124 -11.634  0.00  0.00    -0.322 OA
ATOM      7  H   UNL     1      35.392 -25.920 -12.172  0.00  0.00    +0.220 HD
ENDBRANCH   2   6
ENDBRANCH   1   2
BRANCH   1   8
ATOM      8  P   UNL     1      36.895 -25.975 -14.785  0.00  0.00    +0.372 P 
ATOM      9  O   UNL     1      35.776 -26.064 -15.780  0.00  0.00    -0.255 OA
BRANCH   8  10
ATOM     10  O   UNL     1      38.373 -26.110 -15.426  0.00  0.00    -0.322 OA
ATOM     11  H   UNL     1      38.890 -25.316 -15.218  0.00  0.00    +0.220 HD
ENDBRANCH   8  10
BRANCH   8  12
ATOM     12  O   UNL     1      36.893 -27.109 -13.633  0.00  0.00    -0.322 OA
ATOM     13  H   UNL     1      37.672 -27.676 -13.737  0.00  0.00    +0.220 HD
ENDBRANCH   8  12
ENDBRANCH   1   8
BRANCH   1  14
ATOM     14  O   UNL     1      38.300 -23.935 -14.114  0.00  0.00    -0.366 OA
ATOM     15  H   UNL     1      38.951 -24.476 -13.640  0.00  0.00    +0.212 HD
ENDBRANCH   1  14
BRANCH   1  16
ATOM     16  C   UNL     1      35.951 -23.358 -14.281  0.00  0.00    +0.094 C 
BRANCH  16  19
ATOM     17  N   UNL     1      35.250 -22.747 -16.614  0.00  0.00    -0.252 N 
ATOM     18  N   UNL     1      37.081 -21.760 -17.436  0.00  0.00    -0.228 NA
ATOM     19  C   UNL     1      36.193 -22.758 -15.645  0.00  0.00    +0.057 C 
ATOM     20  C   UNL     1      37.300 -22.160 -16.143  0.00  0.00    +0.111 C 
ATOM     21  C   UNL     1      35.843 -22.119 -17.706  0.00  0.00    +0.139 C 
ATOM     22  C   UNL     1      33.945 -23.231 -16.619  0.00  0.00    +0.071 C 
ATOM     23  C   UNL     1      35.048 -21.976 -18.882  0.00  0.00    +0.035 C 
ATOM     24  C   UNL     1      33.203 -23.093 -17.729  0.00  0.00    +0.017 C 
ATOM     25  C   UNL     1      33.784 -22.442 -18.893  0.00  0.00    +0.004 C 
ENDBRANCH  16  19
ENDBRANCH   1  16
TORSDOF 9
ENDMDL
MODEL 5
REMARK VINA RESULT:      -8.3      1.755      4.034
REMARK  Name = 130956
REMARK  9 active torsions:
REMARK  status: ('A' for Active; 'I' for Inactive)
REMARK    1  A    between atoms: C_1  and  P_2
REMARK    2  A    between atoms: C_1  and  P_8
REMARK    3  A    between atoms: C_1  and  O_14
REMARK    4  A    between atoms: C_1  and  C_16
REMARK    5  A    between atoms: P_2  and  O_4
REMARK    6  A    between atoms: P_2  and  O_6
REMARK    7  A    between atoms: P_8  and  O_10
REMARK    8  A    between atoms: P_8  and  O_12
REMARK    9  A    between atoms: C_16  and  C_19
REMARK                            x       y       z     vdW  Elec       q    Type
REMARK                         _______ _______ _______ _____ _____    ______ ____
ROOT
ATOM      1  C   UNL     1      36.221 -24.243 -13.723  0.00  0.00    +0.280 C 
ENDROOT
BRANCH   1   2
ATOM      2  P   UNL     1      36.321 -24.728 -11.940  0.00  0.00    +0.372 P 
ATOM      3  O   UNL     1      37.059 -23.742 -11.086  0.00  0.00    -0.255 OA
BRANCH   2   4
ATOM      4  O   UNL     1      36.946 -26.220 -11.970  0.00  0.00    -0.322 OA
ATOM      5  H   UNL     1      36.765 -26.628 -12.831  0.00  0.00    +0.220 HD
ENDBRANCH   2   4
BRANCH   2   6
ATOM      6  O   UNL     1      34.781 -24.983 -11.521  0.00  0.00    -0.322 OA
ATOM      7  H   UNL     1      34.585 -24.501 -10.703  0.00  0.00    +0.220 HD
ENDBRANCH   2   6
ENDBRANCH   1   2
BRANCH   1   8
ATOM      8  P   UNL     1      37.744 -24.200 -14.734  0.00  0.00    +0.372 P 
ATOM      9  O   UNL     1      37.944 -22.963 -15.557  0.00  0.00    -0.255 OA
BRANCH   8  10
ATOM     10  O   UNL     1      38.917 -24.485 -13.659  0.00  0.00    -0.322 OA
ATOM     11  H   UNL     1      39.426 -25.264 -13.935  0.00  0.00    +0.220 HD
ENDBRANCH   8  10
BRANCH   8  12
ATOM     12  O   UNL     1      37.670 -25.584 -15.566  0.00  0.00    -0.322 OA
ATOM     13  H   UNL     1      38.393 -25.613 -16.211  0.00  0.00    +0.220 HD
ENDBRANCH   8  12
ENDBRANCH   1   8
BRANCH   1  14
ATOM     14  O   UNL     1      35.833 -22.872 -13.652  0.00  0.00    -0.366 OA
ATOM     15  H   UNL     1      35.501 -22.676 -12.762  0.00  0.00    +0.212 HD
ENDBRANCH   1  14
BRANCH   1  16
ATOM     16  C   UNL     1      35.077 -25.061 -14.368  0.00  0.00    +0.094 C 
BRANCH  16  19
ATOM     17  N   UNL     1      32.818 -24.083 -14.866  0.00  0.00    -0.252 N 
ATOM     18  N   UNL     1      33.156 -23.024 -16.807  0.00  0.00    -0.228 NA
ATOM     19  C   UNL     1      34.112 -24.265 -15.213  0.00  0.00    +0.057 C 
ATOM     20  C   UNL     1      34.315 -23.623 -16.386  0.00  0.00    +0.111 C 
ATOM     21  C   UNL     1      32.263 -23.309 -15.882  0.00  0.00    +0.139 C 
ATOM     22  C   UNL     1      32.101 -24.530 -13.760  0.00  0.00    +0.071 C 
ATOM     23  C   UNL     1      30.883 -22.969 -15.757  0.00  0.00    +0.035 C 
ATOM     24  C   UNL     1      30.803 -24.207 -13.649  0.00  0.00    +0.017 C 
ATOM     25  C   UNL     1      30.184 -23.399 -14.689  0.00  0.00    +0.004 C 
ENDBRANCH  16  19
ENDBRANCH   1  16
TORSDOF 9
ENDMDL
MODEL 6
REMARK VINA RESULT:      -8.1      1.841      3.378
REMARK  Name = 130956
REMARK  9 active torsions:
REMARK  status: ('A' for Active; 'I' for Inactive)
REMARK    1  A    between atoms: C_1  and  P_2
REMARK    2  A    between atoms: C_1  and  P_8
REMARK    3  A    between atoms: C_1  and  O_14
REMARK    4  A    between atoms: C_1  and  C_16
REMARK    5  A    between atoms: P_2  and  O_4
REMARK    6  A    between atoms: P_2  and  O_6
REMARK    7  A    between atoms: P_8  and  O_10
REMARK    8  A    between atoms: P_8  and  O_12
REMARK    9  A    between atoms: C_16  and  C_19
REMARK                            x       y       z     vdW  Elec       q    Type
REMARK                         _______ _______ _______ _____ _____    ______ ____
ROOT
ATOM      1  C   UNL     1      37.525 -24.479 -14.081  0.00  0.00    +0.280 C 
ENDROOT
BRANCH   1   2
ATOM      2  P   UNL     1      37.928 -24.008 -12.338  0.00  0.00    +0.372 P 
ATOM      3  O   UNL     1      37.260 -24.870 -11.309  0.00  0.00    -0.255 OA
BRANCH   2   4
ATOM      4  O   UNL     1      37.567 -22.433 -12.261  0.00  0.00    -0.322 OA
ATOM      5  H   UNL     1      36.781 -22.309 -11.708  0.00  0.00    +0.220 HD
ENDBRANCH   2   4
BRANCH   2   6
ATOM      6  O   UNL     1      39.543 -24.017 -12.298  0.00  0.00    -0.322 OA
ATOM      7  H   UNL     1      39.889 -23.600 -13.103  0.00  0.00    +0.220 HD
ENDBRANCH   2   6
ENDBRANCH   1   2
BRANCH   1   8
ATOM      8  P   UNL     1      37.129 -26.220 -14.477  0.00  0.00    +0.372 P 
ATOM      9  O   UNL     1      36.133 -26.426 -15.579  0.00  0.00    -0.255 OA
BRANCH   8  10
ATOM     10  O   UNL     1      38.578 -26.882 -14.752  0.00  0.00    -0.322 OA
ATOM     11  H   UNL     1      38.489 -27.598 -15.401  0.00  0.00    +0.220 HD
ENDBRANCH   8  10
BRANCH   8  12
ATOM     12  O   UNL     1      36.715 -26.836 -13.042  0.00  0.00    -0.322 OA
ATOM     13  H   UNL     1      35.883 -26.437 -12.746  0.00  0.00    +0.220 HD
ENDBRANCH   8  12
ENDBRANCH   1   8
BRANCH   1  14
ATOM     14  O   UNL     1      38.763 -24.261 -14.757  0.00  0.00    -0.366 OA
ATOM     15  H   UNL     1      38.688 -24.565 -15.675  0.00  0.00    +0.212 HD
ENDBRANCH   1  14
BRANCH   1  16
ATOM     16  C   UNL     1      36.475 -23.473 -14.610  0.00  0.00    +0.094 C 
BRANCH  16  19
ATOM     17  N   UNL     1      34.007 -23.625 -15.050  0.00  0.00    -0.252 N 
ATOM     18  N   UNL     1      33.194 -24.289 -13.075  0.00  0.00    -0.228 NA
ATOM     19  C   UNL     1      35.050 -23.754 -14.199  0.00  0.00    +0.057 C 
ATOM     20  C   UNL     1      34.557 -24.156 -13.005  0.00  0.00    +0.111 C 
ATOM     21  C   UNL     1      32.877 -23.965 -14.312  0.00  0.00    +0.139 C 
ATOM     22  C   UNL     1      33.966 -23.240 -16.387  0.00  0.00    +0.071 C 
ATOM     23  C   UNL     1      31.621 -23.910 -14.986  0.00  0.00    +0.035 C 
ATOM     24  C   UNL     1      32.781 -23.191 -17.016  0.00  0.00    +0.017 C 
ATOM     25  C   UNL     1      31.575 -23.540 -16.281  0.00  0.00    +0.004 C 
ENDBRANCH  16  19
ENDBRANCH   1  16
TORSDOF 9
ENDMDL
MODEL 7
REMARK VINA RESULT:      -8.0      1.784      4.021
REMARK  Name = 130956
REMARK  9 active torsions:
REMARK  status: ('A' for Active; 'I' for Inactive)
REMARK    1  A    between atoms: C_1  and  P_2
REMARK    2  A    between atoms: C_1  and  P_8
REMARK    3  A    between atoms: C_1  and  O_14
REMARK    4  A    between atoms: C_1  and  C_16
REMARK    5  A    between atoms: P_2  and  O_4
REMARK    6  A    between atoms: P_2  and  O_6
REMARK    7  A    between atoms: P_8  and  O_10
REMARK    8  A    between atoms: P_8  and  O_12
REMARK    9  A    between atoms: C_16  and  C_19
REMARK                            x       y       z     vdW  Elec       q    Type
REMARK                         _______ _______ _______ _____ _____    ______ ____
ROOT
ATOM      1  C   UNL     1      36.440 -23.971 -13.659  0.00  0.00    +0.280 C 
ENDROOT
BRANCH   1   2
ATOM      2  P   UNL     1      36.524 -23.902 -11.812  0.00  0.00    +0.372 P 
ATOM      3  O   UNL     1      35.212 -24.168 -11.137  0.00  0.00    -0.255 OA
BRANCH   2   4
ATOM      4  O   UNL     1      37.183 -22.459 -11.500  0.00  0.00    -0.322 OA
ATOM      5  H   UNL     1      36.668 -22.012 -10.811  0.00  0.00    +0.220 HD
ENDBRANCH   2   4
BRANCH   2   6
ATOM      6  O   UNL     1      37.709 -24.936 -11.440  0.00  0.00    -0.322 OA
ATOM      7  H   UNL     1      37.577 -25.269 -10.538  0.00  0.00    +0.220 HD
ENDBRANCH   2   6
ENDBRANCH   1   2
BRANCH   1   8
ATOM      8  P   UNL     1      37.932 -24.423 -14.615  0.00  0.00    +0.372 P 
ATOM      9  O   UNL     1      39.174 -24.663 -13.808  0.00  0.00    -0.255 OA
BRANCH   8  10
ATOM     10  O   UNL     1      37.447 -25.693 -15.490  0.00  0.00    -0.322 OA
ATOM     11  H   UNL     1      36.538 -25.545 -15.797  0.00  0.00    +0.220 HD
ENDBRANCH   8  10
BRANCH   8  12
ATOM     12  O   UNL     1      38.035 -23.242 -15.713  0.00  0.00    -0.322 OA
ATOM     13  H   UNL     1      38.757 -22.641 -15.475  0.00  0.00    +0.220 HD
ENDBRANCH   8  12
ENDBRANCH   1   8
BRANCH   1  14
ATOM     14  O   UNL     1      36.224 -22.606 -14.013  0.00  0.00    -0.366 OA
ATOM     15  H   UNL     1      36.539 -22.452 -14.917  0.00  0.00    +0.212 HD
ENDBRANCH   1  14
BRANCH   1  16
ATOM     16  C   UNL     1      35.190 -24.799 -14.042  0.00  0.00    +0.094 C 
BRANCH  16  19
ATOM     17  N   UNL     1      32.969 -23.905 -14.800  0.00  0.00    -0.252 N 
ATOM     18  N   UNL     1      33.405 -23.197 -16.876  0.00  0.00    -0.228 NA
ATOM     19  C   UNL     1      34.274 -24.153 -15.053  0.00  0.00    +0.057 C 
ATOM     20  C   UNL     1      34.536 -23.723 -16.308  0.00  0.00    +0.111 C 
ATOM     21  C   UNL     1      32.469 -23.314 -15.957  0.00  0.00    +0.139 C 
ATOM     22  C   UNL     1      32.199 -24.152 -13.667  0.00  0.00    +0.071 C 
ATOM     23  C   UNL     1      31.090 -22.948 -15.954  0.00  0.00    +0.035 C 
ATOM     24  C   UNL     1      30.902 -23.805 -13.671  0.00  0.00    +0.017 C 
ATOM     25  C   UNL     1      30.340 -23.184 -14.860  0.00  0.00    +0.004 C 
ENDBRANCH  16  19
ENDBRANCH   1  16
TORSDOF 9
ENDMDL
MODEL 8
REMARK VINA RESULT:      -7.5      2.262      3.887
REMARK  Name = 130956
REMARK  9 active torsions:
REMARK  status: ('A' for Active; 'I' for Inactive)
REMARK    1  A    between atoms: C_1  and  P_2
REMARK    2  A    between atoms: C_1  and  P_8
REMARK    3  A    between atoms: C_1  and  O_14
REMARK    4  A    between atoms: C_1  and  C_16
REMARK    5  A    between atoms: P_2  and  O_4
REMARK    6  A    between atoms: P_2  and  O_6
REMARK    7  A    between atoms: P_8  and  O_10
REMARK    8  A    between atoms: P_8  and  O_12
REMARK    9  A    between atoms: C_16  and  C_19
REMARK                            x       y       z     vdW  Elec       q    Type
REMARK                         _______ _______ _______ _____ _____    ______ ____
ROOT
ATOM      1  C   UNL     1      34.294 -23.719 -14.403  0.00  0.00    +0.280 C 
ENDROOT
BRANCH   1   2
ATOM      2  P   UNL     1      32.468 -23.938 -14.199  0.00  0.00    +0.372 P 
ATOM      3  O   UNL     1      31.672 -23.523 -15.399  0.00  0.00    -0.255 OA
BRANCH   2   4
ATOM      4  O   UNL     1      32.126 -23.143 -12.833  0.00  0.00    -0.322 OA
ATOM      5  H   UNL     1      31.757 -23.761 -12.184  0.00  0.00    +0.220 HD
ENDBRANCH   2   4
BRANCH   2   6
ATOM      6  O   UNL     1      32.311 -25.489 -13.772  0.00  0.00    -0.322 OA
ATOM      7  H   UNL     1      32.593 -26.057 -14.506  0.00  0.00    +0.220 HD
ENDBRANCH   2   6
ENDBRANCH   1   2
BRANCH   1   8
ATOM      8  P   UNL     1      35.431 -24.377 -13.131  0.00  0.00    +0.372 P 
ATOM      9  O   UNL     1      36.445 -25.370 -13.615  0.00  0.00    -0.255 OA
BRANCH   8  10
ATOM     10  O   UNL     1      36.062 -23.045 -12.467  0.00  0.00    -0.322 OA
ATOM     11  H   UNL     1      35.870 -22.280 -13.032  0.00  0.00    +0.220 HD
ENDBRANCH   8  10
BRANCH   8  12
ATOM     12  O   UNL     1      34.426 -24.912 -11.984  0.00  0.00    -0.322 OA
ATOM     13  H   UNL     1      34.630 -24.474 -11.144  0.00  0.00    +0.220 HD
ENDBRANCH   8  12
ENDBRANCH   1   8
BRANCH   1  14
ATOM     14  O   UNL     1      34.454 -22.306 -14.290  0.00  0.00    -0.366 OA
ATOM     15  H   UNL     1      34.629 -21.929 -15.166  0.00  0.00    +0.212 HD
ENDBRANCH   1  14
BRANCH   1  16
ATOM     16  C   UNL     1      34.662 -24.157 -15.842  0.00  0.00    +0.094 C 
BRANCH  16  19
ATOM     17  N   UNL     1      35.066 -22.557 -17.735  0.00  0.00    -0.252 N 
ATOM     18  N   UNL     1      37.153 -21.853 -17.348  0.00  0.00    -0.228 NA
ATOM     19  C   UNL     1      35.508 -23.177 -16.618  0.00  0.00    +0.057 C 
ATOM     20  C   UNL     1      36.770 -22.750 -16.385  0.00  0.00    +0.111 C 
ATOM     21  C   UNL     1      36.117 -21.747 -18.155  0.00  0.00    +0.139 C 
ATOM     22  C   UNL     1      33.846 -22.643 -18.401  0.00  0.00    +0.071 C 
ATOM     23  C   UNL     1      35.907 -20.971 -19.333  0.00  0.00    +0.035 C 
ATOM     24  C   UNL     1      33.655 -21.910 -19.510  0.00  0.00    +0.017 C 
ATOM     25  C   UNL     1      34.729 -21.049 -19.982  0.00  0.00    +0.004 C 
ENDBRANCH  16  19
ENDBRANCH   1  16
TORSDOF 9
ENDMDL
MODEL 9
REMARK VINA RESULT:      -7.5      8.964     10.731
REMARK  Name = 130956
REMARK  9 active torsions:
REMARK  status: ('A' for Active; 'I' for Inactive)
REMARK    1  A    between atoms: C_1  and  P_2
REMARK    2  A    between atoms: C_1  and  P_8
REMARK    3  A    between atoms: C_1  and  O_14
REMARK    4  A    between atoms: C_1  and  C_16
REMARK    5  A    between atoms: P_2  and  O_4
REMARK    6  A    between atoms: P_2  and  O_6
REMARK    7  A    between atoms: P_8  and  O_10
REMARK    8  A    between atoms: P_8  and  O_12
REMARK    9  A    between atoms: C_16  and  C_19
REMARK                            x       y       z     vdW  Elec       q    Type
REMARK                         _______ _______ _______ _____ _____    ______ ____
ROOT
ATOM      1  C   UNL     1      34.686 -16.793 -23.039  0.00  0.00    +0.280 C 
ENDROOT
BRANCH   1   2
ATOM      2  P   UNL     1      34.266 -16.682 -24.837  0.00  0.00    +0.372 P 
ATOM      3  O   UNL     1      33.719 -17.955 -25.410  0.00  0.00    -0.255 OA
BRANCH   2   4
ATOM      4  O   UNL     1      35.624 -16.140 -25.528  0.00  0.00    -0.322 OA
ATOM      5  H   UNL     1      36.185 -15.726 -24.855  0.00  0.00    +0.220 HD
ENDBRANCH   2   4
BRANCH   2   6
ATOM      6  O   UNL     1      33.274 -15.409 -24.925  0.00  0.00    -0.322 OA
ATOM      7  H   UNL     1      33.148 -15.036 -24.038  0.00  0.00    +0.220 HD
ENDBRANCH   2   6
ENDBRANCH   1   2
BRANCH   1   8
ATOM      8  P   UNL     1      34.297 -15.390 -21.932  0.00  0.00    +0.372 P 
ATOM      9  O   UNL     1      34.858 -15.482 -20.544  0.00  0.00    -0.255 OA
BRANCH   8  10
ATOM     10  O   UNL     1      34.794 -14.102 -22.772  0.00  0.00    -0.322 OA
ATOM     11  H   UNL     1      34.161 -13.916 -23.483  0.00  0.00    +0.220 HD
ENDBRANCH   8  10
BRANCH   8  12
ATOM     12  O   UNL     1      32.687 -15.286 -22.025  0.00  0.00    -0.322 OA
ATOM     13  H   UNL     1      32.286 -15.877 -21.370  0.00  0.00    +0.220 HD
ENDBRANCH   8  12
ENDBRANCH   1   8
BRANCH   1  14
ATOM     14  O   UNL     1      36.112 -16.818 -23.052  0.00  0.00    -0.366 OA
ATOM     15  H   UNL     1      36.445 -16.031 -23.511  0.00  0.00    +0.212 HD
ENDBRANCH   1  14
BRANCH   1  16
ATOM     16  C   UNL     1      34.160 -18.152 -22.517  0.00  0.00    +0.094 C 
BRANCH  16  19
ATOM     17  N   UNL     1      34.687 -19.903 -20.795  0.00  0.00    -0.252 N 
ATOM     18  N   UNL     1      36.882 -19.627 -20.466  0.00  0.00    -0.228 NA
ATOM     19  C   UNL     1      35.098 -18.896 -21.598  0.00  0.00    +0.057 C 
ATOM     20  C   UNL     1      36.426 -18.731 -21.398  0.00  0.00    +0.111 C 
ATOM     21  C   UNL     1      35.823 -20.326 -20.112  0.00  0.00    +0.139 C 
ATOM     22  C   UNL     1      33.426 -20.466 -20.617  0.00  0.00    +0.071 C 
ATOM     23  C   UNL     1      35.660 -21.398 -19.184  0.00  0.00    +0.035 C 
ATOM     24  C   UNL     1      33.281 -21.475 -19.742  0.00  0.00    +0.017 C 
ATOM     25  C   UNL     1      34.443 -21.948 -19.007  0.00  0.00    +0.004 C 
ENDBRANCH  16  19
ENDBRANCH   1  16
TORSDOF 9
ENDMDL
