MODEL 1
REMARK VINA RESULT:      -9.9      0.000      0.000
REMARK  Name = 3086671
REMARK  6 active torsions:
REMARK  status: ('A' for Active; 'I' for Inactive)
REMARK    1  A    between atoms: C_2  and  C_18
REMARK    2  A    between atoms: C_4  and  C_7
REMARK    3  A    between atoms: C_6  and  C_8
REMARK    4  A    between atoms: C_8  and  N_11
REMARK    5  A    between atoms: N_11  and  O_16
REMARK    6  A    between atoms: C_18  and  C_20
REMARK                            x       y       z     vdW  Elec       q    Type
REMARK                         _______ _______ _______ _____ _____    ______ ____
ROOT
ATOM      1  S   UNL     1      34.896 -16.351 -23.227  0.00  0.00    -0.083 S 
ATOM      2  C   UNL     1      35.177 -17.279 -21.816  0.00  0.00    +0.012 C 
ATOM      3  C   UNL     1      34.898 -16.572 -20.667  0.00  0.00    +0.004 C 
ATOM      4  C   UNL     1      34.401 -15.003 -22.300  0.00  0.00    +0.071 C 
ATOM      5  C   UNL     1      34.448 -15.249 -20.949  0.00  0.00    +0.015 C 
ENDROOT
BRANCH   4   7
ATOM      6  C   UNL     1      33.640 -12.727 -23.382  0.00  0.00    -0.064 C 
ATOM      7  C   UNL     1      33.988 -13.766 -22.889  0.00  0.00    -0.056 C 
BRANCH   6   8
ATOM      8  C   UNL     1      33.217 -11.456 -23.984  0.00  0.00    +0.168 C 
ATOM      9  C   UNL     1      32.666 -10.505 -22.929  0.00  0.00    +0.039 C 
BRANCH   8  11
ATOM     10  O   UNL     1      34.022 -11.940 -26.685  0.00  0.00    -0.251 OA
ATOM     11  N   UNL     1      34.323 -10.850 -24.682  0.00  0.00    -0.146 N 
ATOM     12  N   UNL     1      35.746 -10.459 -26.475  0.00  0.00    -0.312 N 
ATOM     13  C   UNL     1      34.647 -11.137 -25.988  0.00  0.00    +0.324 C 
ATOM     14  H   UNL     1      36.045 -10.607 -27.401  0.00  0.00    +0.147 HD
ATOM     15  H   UNL     1      36.231  -9.827 -25.897  0.00  0.00    +0.147 HD
BRANCH  11  16
ATOM     16  O   UNL     1      35.035  -9.937 -23.890  0.00  0.00    -0.290 OA
ATOM     17  H   UNL     1      34.793 -10.058 -22.959  0.00  0.00    +0.242 HD
ENDBRANCH  11  16
ENDBRANCH   8  11
ENDBRANCH   6   8
ENDBRANCH   4   7
BRANCH   2  18
ATOM     18  C   UNL     1      35.663 -18.670 -21.944  0.00  0.00    +0.059 C 
BRANCH  18  20
ATOM     19  F   UNL     1      32.998 -22.369 -18.656  0.00  0.00    -0.204 F 
ATOM     20  C   UNL     1      34.942 -19.670 -21.054  0.00  0.00    -0.017 C 
ATOM     21  C   UNL     1      33.562 -19.663 -21.022  0.00  0.00    -0.002 C 
ATOM     22  C   UNL     1      35.689 -20.558 -20.305  0.00  0.00    -0.002 C 
ATOM     23  C   UNL     1      32.902 -20.581 -20.207  0.00  0.00    +0.029 C 
ATOM     24  C   UNL     1      35.028 -21.476 -19.489  0.00  0.00    +0.029 C 
ATOM     25  C   UNL     1      33.633 -21.488 -19.440  0.00  0.00    +0.140 C 
ENDBRANCH  18  20
ENDBRANCH   2  18
TORSDOF 6
ENDMDL
MODEL 2
REMARK VINA RESULT:      -9.6      7.850     10.788
REMARK  Name = 3086671
REMARK  6 active torsions:
REMARK  status: ('A' for Active; 'I' for Inactive)
REMARK    1  A    between atoms: C_2  and  C_18
REMARK    2  A    between atoms: C_4  and  C_7
REMARK    3  A    between atoms: C_6  and  C_8
REMARK    4  A    between atoms: C_8  and  N_11
REMARK    5  A    between atoms: N_11  and  O_16
REMARK    6  A    between atoms: C_18  and  C_20
REMARK                            x       y       z     vdW  Elec       q    Type
REMARK                         _______ _______ _______ _____ _____    ______ ____
ROOT
ATOM      1  S   UNL     1      35.195 -21.085 -19.822  0.00  0.00    -0.083 S 
ATOM      2  C   UNL     1      34.785 -19.944 -21.032  0.00  0.00    +0.012 C 
ATOM      3  C   UNL     1      33.427 -19.713 -21.086  0.00  0.00    +0.004 C 
ATOM      4  C   UNL     1      33.557 -21.268 -19.371  0.00  0.00    +0.071 C 
ATOM      5  C   UNL     1      32.714 -20.483 -20.121  0.00  0.00    +0.015 C 
ENDROOT
BRANCH   4   7
ATOM      6  C   UNL     1      32.778 -22.887 -17.447  0.00  0.00    -0.064 C 
ATOM      7  C   UNL     1      33.133 -22.148 -18.326  0.00  0.00    -0.056 C 
BRANCH   6   8
ATOM      8  C   UNL     1      32.342 -23.789 -16.373  0.00  0.00    +0.168 C 
ATOM      9  C   UNL     1      33.034 -23.453 -15.059  0.00  0.00    +0.039 C 
BRANCH   8  11
ATOM     10  O   UNL     1      30.666 -25.626 -14.961  0.00  0.00    -0.251 OA
ATOM     11  N   UNL     1      30.910 -23.719 -16.223  0.00  0.00    -0.146 N 
ATOM     12  N   UNL     1      28.813 -24.409 -15.502  0.00  0.00    -0.312 N 
ATOM     13  C   UNL     1      30.172 -24.646 -15.525  0.00  0.00    +0.324 C 
ATOM     14  H   UNL     1      28.213 -25.025 -15.024  0.00  0.00    +0.147 HD
ATOM     15  H   UNL     1      28.443 -23.622 -15.964  0.00  0.00    +0.147 HD
BRANCH  11  16
ATOM     16  O   UNL     1      30.347 -22.605 -16.864  0.00  0.00    -0.290 OA
ATOM     17  H   UNL     1      31.052 -21.992 -17.127  0.00  0.00    +0.242 HD
ENDBRANCH  11  16
ENDBRANCH   8  11
ENDBRANCH   6   8
ENDBRANCH   4   7
BRANCH   2  18
ATOM     18  C   UNL     1      35.853 -19.345 -21.860  0.00  0.00    +0.059 C 
BRANCH  18  20
ATOM     19  F   UNL     1      33.999 -15.878 -25.877  0.00  0.00    -0.204 F 
ATOM     20  C   UNL     1      35.352 -18.407 -22.947  0.00  0.00    -0.017 C 
ATOM     21  C   UNL     1      34.897 -18.943 -24.135  0.00  0.00    -0.002 C 
ATOM     22  C   UNL     1      35.365 -17.046 -22.713  0.00  0.00    -0.002 C 
ATOM     23  C   UNL     1      34.437 -18.083 -25.131  0.00  0.00    +0.029 C 
ATOM     24  C   UNL     1      34.906 -16.185 -23.710  0.00  0.00    +0.029 C 
ATOM     25  C   UNL     1      34.441 -16.704 -24.919  0.00  0.00    +0.140 C 
ENDBRANCH  18  20
ENDBRANCH   2  18
TORSDOF 6
ENDMDL
MODEL 3
REMARK VINA RESULT:      -9.3      2.696      3.395
REMARK  Name = 3086671
REMARK  6 active torsions:
REMARK  status: ('A' for Active; 'I' for Inactive)
REMARK    1  A    between atoms: C_2  and  C_18
REMARK    2  A    between atoms: C_4  and  C_7
REMARK    3  A    between atoms: C_6  and  C_8
REMARK    4  A    between atoms: C_8  and  N_11
REMARK    5  A    between atoms: N_11  and  O_16
REMARK    6  A    between atoms: C_18  and  C_20
REMARK                            x       y       z     vdW  Elec       q    Type
REMARK                         _______ _______ _______ _____ _____    ______ ____
ROOT
ATOM      1  S   UNL     1      34.268 -15.197 -20.945  0.00  0.00    -0.083 S 
ATOM      2  C   UNL     1      34.564 -16.192 -22.307  0.00  0.00    +0.012 C 
ATOM      3  C   UNL     1      33.864 -15.770 -23.417  0.00  0.00    +0.004 C 
ATOM      4  C   UNL     1      33.204 -14.204 -21.841  0.00  0.00    +0.071 C 
ATOM      5  C   UNL     1      33.074 -14.615 -23.145  0.00  0.00    +0.015 C 
ENDROOT
BRANCH   4   7
ATOM      6  C   UNL     1      31.970 -12.124 -20.798  0.00  0.00    -0.064 C 
ATOM      7  C   UNL     1      32.534 -13.074 -21.273  0.00  0.00    -0.056 C 
BRANCH   6   8
ATOM      8  C   UNL     1      31.282 -10.966 -20.216  0.00  0.00    +0.168 C 
ATOM      9  C   UNL     1      31.256 -11.051 -18.695  0.00  0.00    +0.039 C 
BRANCH   8  11
ATOM     10  O   UNL     1      31.160  -9.775 -22.813  0.00  0.00    -0.251 OA
ATOM     11  N   UNL     1      31.921  -9.747 -20.643  0.00  0.00    -0.146 N 
ATOM     12  N   UNL     1      32.507  -8.063 -22.132  0.00  0.00    -0.312 N 
ATOM     13  C   UNL     1      31.814  -9.237 -21.916  0.00  0.00    +0.324 C 
ATOM     14  H   UNL     1      32.483  -7.632 -23.016  0.00  0.00    +0.147 HD
ATOM     15  H   UNL     1      33.026  -7.657 -21.400  0.00  0.00    +0.147 HD
BRANCH  11  16
ATOM     16  O   UNL     1      32.666  -9.134 -19.624  0.00  0.00    -0.290 OA
ATOM     17  H   UNL     1      32.186  -8.359 -19.292  0.00  0.00    +0.242 HD
ENDBRANCH  11  16
ENDBRANCH   8  11
ENDBRANCH   6   8
ENDBRANCH   4   7
BRANCH   2  18
ATOM     18  C   UNL     1      35.485 -17.341 -22.183  0.00  0.00    +0.059 C 
BRANCH  18  20
ATOM     19  F   UNL     1      33.315 -21.766 -19.480  0.00  0.00    -0.204 F 
ATOM     20  C   UNL     1      34.898 -18.539 -21.452  0.00  0.00    -0.017 C 
ATOM     21  C   UNL     1      35.754 -19.468 -20.897  0.00  0.00    -0.002 C 
ATOM     22  C   UNL     1      33.526 -18.660 -21.364  0.00  0.00    -0.002 C 
ATOM     23  C   UNL     1      35.216 -20.565 -20.227  0.00  0.00    +0.029 C 
ATOM     24  C   UNL     1      32.987 -19.758 -20.694  0.00  0.00    +0.029 C 
ATOM     25  C   UNL     1      33.832 -20.711 -20.124  0.00  0.00    +0.140 C 
ENDBRANCH  18  20
ENDBRANCH   2  18
TORSDOF 6
ENDMDL
MODEL 4
REMARK VINA RESULT:      -9.3      8.689     11.685
REMARK  Name = 3086671
REMARK  6 active torsions:
REMARK  status: ('A' for Active; 'I' for Inactive)
REMARK    1  A    between atoms: C_2  and  C_18
REMARK    2  A    between atoms: C_4  and  C_7
REMARK    3  A    between atoms: C_6  and  C_8
REMARK    4  A    between atoms: C_8  and  N_11
REMARK    5  A    between atoms: N_11  and  O_16
REMARK    6  A    between atoms: C_18  and  C_20
REMARK                            x       y       z     vdW  Elec       q    Type
REMARK                         _______ _______ _______ _____ _____    ______ ____
ROOT
ATOM      1  S   UNL     1      34.295 -21.901 -18.654  0.00  0.00    -0.083 S 
ATOM      2  C   UNL     1      34.884 -20.957 -19.956  0.00  0.00    +0.012 C 
ATOM      3  C   UNL     1      36.232 -20.695 -19.838  0.00  0.00    +0.004 C 
ATOM      4  C   UNL     1      35.844 -21.960 -17.934  0.00  0.00    +0.071 C 
ATOM      5  C   UNL     1      36.789 -21.278 -18.662  0.00  0.00    +0.015 C 
ENDROOT
BRANCH   4   7
ATOM      6  C   UNL     1      36.323 -23.226 -15.676  0.00  0.00    -0.064 C 
ATOM      7  C   UNL     1      36.103 -22.649 -16.706  0.00  0.00    -0.056 C 
BRANCH   6   8
ATOM      8  C   UNL     1      36.589 -23.931 -14.416  0.00  0.00    +0.168 C 
ATOM      9  C   UNL     1      35.297 -24.437 -13.787  0.00  0.00    +0.039 C 
BRANCH   8  11
ATOM     10  O   UNL     1      39.079 -24.405 -13.091  0.00  0.00    -0.251 OA
ATOM     11  N   UNL     1      37.501 -25.024 -14.646  0.00  0.00    -0.146 N 
ATOM     12  N   UNL     1      39.424 -26.288 -14.334  0.00  0.00    -0.312 N 
ATOM     13  C   UNL     1      38.685 -25.182 -13.964  0.00  0.00    +0.324 C 
ATOM     14  H   UNL     1      40.284 -26.474 -13.895  0.00  0.00    +0.147 HD
ATOM     15  H   UNL     1      39.090 -26.890 -15.038  0.00  0.00    +0.147 HD
BRANCH  11  16
ATOM     16  O   UNL     1      37.054 -25.908 -15.639  0.00  0.00    -0.290 OA
ATOM     17  H   UNL     1      37.732 -26.583 -15.801  0.00  0.00    +0.242 HD
ENDBRANCH  11  16
ENDBRANCH   8  11
ENDBRANCH   6   8
ENDBRANCH   4   7
BRANCH   2  18
ATOM     18  C   UNL     1      33.955 -20.531 -21.025  0.00  0.00    +0.059 C 
BRANCH  18  20
ATOM     19  F   UNL     1      35.465 -15.802 -23.662  0.00  0.00    -0.204 F 
ATOM     20  C   UNL     1      34.364 -19.252 -21.738  0.00  0.00    -0.017 C 
ATOM     21  C   UNL     1      34.848 -19.332 -23.029  0.00  0.00    -0.002 C 
ATOM     22  C   UNL     1      34.237 -18.048 -21.075  0.00  0.00    -0.002 C 
ATOM     23  C   UNL     1      35.222 -18.159 -23.682  0.00  0.00    +0.029 C 
ATOM     24  C   UNL     1      34.612 -16.874 -21.729  0.00  0.00    +0.029 C 
ATOM     25  C   UNL     1      35.105 -16.930 -23.033  0.00  0.00    +0.140 C 
ENDBRANCH  18  20
ENDBRANCH   2  18
TORSDOF 6
ENDMDL
MODEL 5
REMARK VINA RESULT:      -9.2      1.747      2.166
REMARK  Name = 3086671
REMARK  6 active torsions:
REMARK  status: ('A' for Active; 'I' for Inactive)
REMARK    1  A    between atoms: C_2  and  C_18
REMARK    2  A    between atoms: C_4  and  C_7
REMARK    3  A    between atoms: C_6  and  C_8
REMARK    4  A    between atoms: C_8  and  N_11
REMARK    5  A    between atoms: N_11  and  O_16
REMARK    6  A    between atoms: C_18  and  C_20
REMARK                            x       y       z     vdW  Elec       q    Type
REMARK                         _______ _______ _______ _____ _____    ______ ____
ROOT
ATOM      1  S   UNL     1      34.784 -16.349 -21.444  0.00  0.00    -0.083 S 
ATOM      2  C   UNL     1      35.368 -17.669 -22.366  0.00  0.00    +0.012 C 
ATOM      3  C   UNL     1      35.030 -17.559 -23.698  0.00  0.00    +0.004 C 
ATOM      4  C   UNL     1      34.081 -15.632 -22.827  0.00  0.00    +0.071 C 
ATOM      5  C   UNL     1      34.282 -16.375 -23.965  0.00  0.00    +0.015 C 
ENDROOT
BRANCH   4   7
ATOM      6  C   UNL     1      32.764 -13.353 -22.743  0.00  0.00    -0.064 C 
ATOM      7  C   UNL     1      33.366 -14.393 -22.780  0.00  0.00    -0.056 C 
BRANCH   6   8
ATOM      8  C   UNL     1      32.029 -12.084 -22.694  0.00  0.00    +0.168 C 
ATOM      9  C   UNL     1      31.556 -11.777 -21.280  0.00  0.00    +0.039 C 
BRANCH   8  11
ATOM     10  O   UNL     1      31.342  -9.314 -22.882  0.00  0.00    -0.251 OA
ATOM     11  N   UNL     1      32.858 -11.015 -23.193  0.00  0.00    -0.146 N 
ATOM     12  N   UNL     1      33.388  -8.828 -23.768  0.00  0.00    -0.312 N 
ATOM     13  C   UNL     1      32.453  -9.702 -23.251  0.00  0.00    +0.324 C 
ATOM     14  H   UNL     1      33.178  -7.870 -23.844  0.00  0.00    +0.147 HD
ATOM     15  H   UNL     1      34.267  -9.164 -24.061  0.00  0.00    +0.147 HD
BRANCH  11  16
ATOM     16  O   UNL     1      34.122 -11.455 -23.614  0.00  0.00    -0.290 OA
ATOM     17  H   UNL     1      34.725 -11.484 -22.854  0.00  0.00    +0.242 HD
ENDBRANCH  11  16
ENDBRANCH   8  11
ENDBRANCH   6   8
ENDBRANCH   4   7
BRANCH   2  18
ATOM     18  C   UNL     1      36.134 -18.742 -21.697  0.00  0.00    +0.059 C 
BRANCH  18  20
ATOM     19  F   UNL     1      32.983 -22.354 -18.762  0.00  0.00    -0.204 F 
ATOM     20  C   UNL     1      35.282 -19.719 -20.903  0.00  0.00    -0.017 C 
ATOM     21  C   UNL     1      33.907 -19.620 -20.977  0.00  0.00    -0.002 C 
ATOM     22  C   UNL     1      35.908 -20.677 -20.131  0.00  0.00    -0.002 C 
ATOM     23  C   UNL     1      33.126 -20.516 -20.249  0.00  0.00    +0.029 C 
ATOM     24  C   UNL     1      35.126 -21.574 -19.402  0.00  0.00    +0.029 C 
ATOM     25  C   UNL     1      33.734 -21.493 -19.462  0.00  0.00    +0.140 C 
ENDBRANCH  18  20
ENDBRANCH   2  18
TORSDOF 6
ENDMDL
MODEL 6
REMARK VINA RESULT:      -9.2      1.545      2.370
REMARK  Name = 3086671
REMARK  6 active torsions:
REMARK  status: ('A' for Active; 'I' for Inactive)
REMARK    1  A    between atoms: C_2  and  C_18
REMARK    2  A    between atoms: C_4  and  C_7
REMARK    3  A    between atoms: C_6  and  C_8
REMARK    4  A    between atoms: C_8  and  N_11
REMARK    5  A    between atoms: N_11  and  O_16
REMARK    6  A    between atoms: C_18  and  C_20
REMARK                            x       y       z     vdW  Elec       q    Type
REMARK                         _______ _______ _______ _____ _____    ______ ____
ROOT
ATOM      1  S   UNL     1      34.875 -16.725 -23.363  0.00  0.00    -0.083 S 
ATOM      2  C   UNL     1      35.078 -17.693 -21.965  0.00  0.00    +0.012 C 
ATOM      3  C   UNL     1      34.918 -16.966 -20.805  0.00  0.00    +0.004 C 
ATOM      4  C   UNL     1      34.572 -15.335 -22.415  0.00  0.00    +0.071 C 
ATOM      5  C   UNL     1      34.625 -15.596 -21.067  0.00  0.00    +0.015 C 
ENDROOT
BRANCH   4   7
ATOM      6  C   UNL     1      34.069 -12.973 -23.463  0.00  0.00    -0.064 C 
ATOM      7  C   UNL     1      34.298 -14.051 -22.985  0.00  0.00    -0.056 C 
BRANCH   6   8
ATOM      8  C   UNL     1      33.788 -11.656 -24.049  0.00  0.00    +0.168 C 
ATOM      9  C   UNL     1      33.359 -11.784 -25.505  0.00  0.00    +0.039 C 
BRANCH   8  11
ATOM     10  O   UNL     1      33.545  -8.840 -23.613  0.00  0.00    -0.251 OA
ATOM     11  N   UNL     1      32.773 -10.981 -23.280  0.00  0.00    -0.146 N 
ATOM     12  N   UNL     1      31.680  -9.162 -22.338  0.00  0.00    -0.312 N 
ATOM     13  C   UNL     1      32.725  -9.616 -23.117  0.00  0.00    +0.324 C 
ATOM     14  H   UNL     1      31.573  -8.198 -22.171  0.00  0.00    +0.147 HD
ATOM     15  H   UNL     1      31.041  -9.802 -21.949  0.00  0.00    +0.147 HD
BRANCH  11  16
ATOM     16  O   UNL     1      31.839 -11.863 -22.715  0.00  0.00    -0.290 OA
ATOM     17  H   UNL     1      32.283 -12.436 -22.071  0.00  0.00    +0.242 HD
ENDBRANCH  11  16
ENDBRANCH   8  11
ENDBRANCH   6   8
ENDBRANCH   4   7
BRANCH   2  18
ATOM     18  C   UNL     1      35.387 -19.131 -22.114  0.00  0.00    +0.059 C 
BRANCH  18  20
ATOM     19  F   UNL     1      33.056 -22.418 -18.195  0.00  0.00    -0.204 F 
ATOM     20  C   UNL     1      34.757 -20.021 -21.054  0.00  0.00    -0.017 C 
ATOM     21  C   UNL     1      35.571 -20.839 -20.297  0.00  0.00    -0.002 C 
ATOM     22  C   UNL     1      33.388 -19.983 -20.879  0.00  0.00    -0.002 C 
ATOM     23  C   UNL     1      34.993 -21.653 -19.325  0.00  0.00    +0.029 C 
ATOM     24  C   UNL     1      32.809 -20.799 -19.907  0.00  0.00    +0.029 C 
ATOM     25  C   UNL     1      33.612 -21.635 -19.129  0.00  0.00    +0.140 C 
ENDBRANCH  18  20
ENDBRANCH   2  18
TORSDOF 6
ENDMDL
MODEL 7
REMARK VINA RESULT:      -9.1      8.404     11.578
REMARK  Name = 3086671
REMARK  6 active torsions:
REMARK  status: ('A' for Active; 'I' for Inactive)
REMARK    1  A    between atoms: C_2  and  C_18
REMARK    2  A    between atoms: C_4  and  C_7
REMARK    3  A    between atoms: C_6  and  C_8
REMARK    4  A    between atoms: C_8  and  N_11
REMARK    5  A    between atoms: N_11  and  O_16
REMARK    6  A    between atoms: C_18  and  C_20
REMARK                            x       y       z     vdW  Elec       q    Type
REMARK                         _______ _______ _______ _____ _____    ______ ____
ROOT
ATOM      1  S   UNL     1      33.746 -22.009 -18.653  0.00  0.00    -0.083 S 
ATOM      2  C   UNL     1      34.440 -21.033 -19.878  0.00  0.00    +0.012 C 
ATOM      3  C   UNL     1      35.798 -20.874 -19.706  0.00  0.00    +0.004 C 
ATOM      4  C   UNL     1      35.263 -22.219 -17.894  0.00  0.00    +0.071 C 
ATOM      5  C   UNL     1      36.275 -21.563 -18.553  0.00  0.00    +0.015 C 
ENDROOT
BRANCH   4   7
ATOM      6  C   UNL     1      35.582 -23.646 -15.705  0.00  0.00    -0.064 C 
ATOM      7  C   UNL     1      35.435 -22.995 -16.705  0.00  0.00    -0.056 C 
BRANCH   6   8
ATOM      8  C   UNL     1      35.758 -24.442 -14.484  0.00  0.00    +0.168 C 
ATOM      9  C   UNL     1      36.392 -25.791 -14.794  0.00  0.00    +0.039 C 
BRANCH   8  11
ATOM     10  O   UNL     1      35.180 -24.002 -11.718  0.00  0.00    -0.251 OA
ATOM     11  N   UNL     1      36.561 -23.713 -13.534  0.00  0.00    -0.146 N 
ATOM     12  N   UNL     1      37.108 -22.809 -11.466  0.00  0.00    -0.312 N 
ATOM     13  C   UNL     1      36.212 -23.545 -12.214  0.00  0.00    +0.324 C 
ATOM     14  H   UNL     1      36.934 -22.642 -10.512  0.00  0.00    +0.147 HD
ATOM     15  H   UNL     1      37.923 -22.450 -11.887  0.00  0.00    +0.147 HD
BRANCH  11  16
ATOM     16  O   UNL     1      37.736 -23.192 -14.097  0.00  0.00    -0.290 OA
ATOM     17  H   UNL     1      37.711 -22.223 -14.060  0.00  0.00    +0.242 HD
ENDBRANCH  11  16
ENDBRANCH   8  11
ENDBRANCH   6   8
ENDBRANCH   4   7
BRANCH   2  18
ATOM     18  C   UNL     1      33.577 -20.481 -20.945  0.00  0.00    +0.059 C 
BRANCH  18  20
ATOM     19  F   UNL     1      35.644 -15.900 -23.460  0.00  0.00    -0.204 F 
ATOM     20  C   UNL     1      34.137 -19.242 -21.625  0.00  0.00    -0.017 C 
ATOM     21  C   UNL     1      34.767 -19.376 -22.846  0.00  0.00    -0.002 C 
ATOM     22  C   UNL     1      33.996 -18.018 -21.003  0.00  0.00    -0.002 C 
ATOM     23  C   UNL     1      35.279 -18.240 -23.469  0.00  0.00    +0.029 C 
ATOM     24  C   UNL     1      34.509 -16.880 -21.626  0.00  0.00    +0.029 C 
ATOM     25  C   UNL     1      35.151 -16.992 -22.860  0.00  0.00    +0.140 C 
ENDBRANCH  18  20
ENDBRANCH   2  18
TORSDOF 6
ENDMDL
MODEL 8
REMARK VINA RESULT:      -9.0      6.501      9.685
REMARK  Name = 3086671
REMARK  6 active torsions:
REMARK  status: ('A' for Active; 'I' for Inactive)
REMARK    1  A    between atoms: C_2  and  C_18
REMARK    2  A    between atoms: C_4  and  C_7
REMARK    3  A    between atoms: C_6  and  C_8
REMARK    4  A    between atoms: C_8  and  N_11
REMARK    5  A    between atoms: N_11  and  O_16
REMARK    6  A    between atoms: C_18  and  C_20
REMARK                            x       y       z     vdW  Elec       q    Type
REMARK                         _______ _______ _______ _____ _____    ______ ____
ROOT
ATOM      1  S   UNL     1      34.146 -16.714 -21.149  0.00  0.00    -0.083 S 
ATOM      2  C   UNL     1      34.639 -15.839 -22.536  0.00  0.00    +0.012 C 
ATOM      3  C   UNL     1      35.368 -16.618 -23.408  0.00  0.00    +0.004 C 
ATOM      4  C   UNL     1      34.907 -18.135 -21.716  0.00  0.00    +0.071 C 
ATOM      5  C   UNL     1      35.523 -17.953 -22.931  0.00  0.00    +0.015 C 
ENDROOT
BRANCH   4   7
ATOM      6  C   UNL     1      34.876 -20.403 -20.379  0.00  0.00    -0.064 C 
ATOM      7  C   UNL     1      34.891 -19.368 -20.990  0.00  0.00    -0.056 C 
BRANCH   6   8
ATOM      8  C   UNL     1      34.860 -21.669 -19.635  0.00  0.00    +0.168 C 
ATOM      9  C   UNL     1      35.992 -21.722 -18.618  0.00  0.00    +0.039 C 
BRANCH   8  11
ATOM     10  O   UNL     1      34.142 -23.711 -17.767  0.00  0.00    -0.251 OA
ATOM     11  N   UNL     1      33.586 -21.840 -18.983  0.00  0.00    -0.146 N 
ATOM     12  N   UNL     1      32.036 -22.852 -17.580  0.00  0.00    -0.312 N 
ATOM     13  C   UNL     1      33.318 -22.853 -18.092  0.00  0.00    +0.324 C 
ATOM     14  H   UNL     1      31.762 -23.543 -16.936  0.00  0.00    +0.147 HD
ATOM     15  H   UNL     1      31.395 -22.159 -17.860  0.00  0.00    +0.147 HD
BRANCH  11  16
ATOM     16  O   UNL     1      32.648 -20.865 -19.352  0.00  0.00    -0.290 OA
ATOM     17  H   UNL     1      32.922 -20.002 -19.003  0.00  0.00    +0.242 HD
ENDBRANCH  11  16
ENDBRANCH   8  11
ENDBRANCH   6   8
ENDBRANCH   4   7
BRANCH   2  18
ATOM     18  C   UNL     1      34.265 -14.414 -22.669  0.00  0.00    +0.059 C 
BRANCH  18  20
ATOM     19  F   UNL     1      32.686 -12.907 -27.848  0.00  0.00    -0.204 F 
ATOM     20  C   UNL     1      33.838 -14.007 -24.070  0.00  0.00    -0.017 C 
ATOM     21  C   UNL     1      33.351 -14.972 -24.928  0.00  0.00    -0.002 C 
ATOM     22  C   UNL     1      33.949 -12.682 -24.443  0.00  0.00    -0.002 C 
ATOM     23  C   UNL     1      32.960 -14.598 -26.212  0.00  0.00    +0.029 C 
ATOM     24  C   UNL     1      33.557 -12.307 -25.728  0.00  0.00    +0.029 C 
ATOM     25  C   UNL     1      33.062 -13.266 -26.613  0.00  0.00    +0.140 C 
ENDBRANCH  18  20
ENDBRANCH   2  18
TORSDOF 6
ENDMDL
MODEL 9
REMARK VINA RESULT:      -9.0      7.550     10.561
REMARK  Name = 3086671
REMARK  6 active torsions:
REMARK  status: ('A' for Active; 'I' for Inactive)
REMARK    1  A    between atoms: C_2  and  C_18
REMARK    2  A    between atoms: C_4  and  C_7
REMARK    3  A    between atoms: C_6  and  C_8
REMARK    4  A    between atoms: C_8  and  N_11
REMARK    5  A    between atoms: N_11  and  O_16
REMARK    6  A    between atoms: C_18  and  C_20
REMARK                            x       y       z     vdW  Elec       q    Type
REMARK                         _______ _______ _______ _____ _____    ______ ____
ROOT
ATOM      1  S   UNL     1      33.254 -20.729 -20.552  0.00  0.00    -0.083 S 
ATOM      2  C   UNL     1      34.742 -20.231 -21.237  0.00  0.00    +0.012 C 
ATOM      3  C   UNL     1      35.823 -20.675 -20.507  0.00  0.00    +0.004 C 
ATOM      4  C   UNL     1      34.056 -21.538 -19.278  0.00  0.00    +0.071 C 
ATOM      5  C   UNL     1      35.423 -21.435 -19.368  0.00  0.00    +0.015 C 
ENDROOT
BRANCH   4   7
ATOM      6  C   UNL     1      32.775 -22.831 -17.375  0.00  0.00    -0.064 C 
ATOM      7  C   UNL     1      33.360 -22.240 -18.243  0.00  0.00    -0.056 C 
BRANCH   6   8
ATOM      8  C   UNL     1      32.062 -23.551 -16.313  0.00  0.00    +0.168 C 
ATOM      9  C   UNL     1      32.497 -23.068 -14.935  0.00  0.00    +0.039 C 
BRANCH   8  11
ATOM     10  O   UNL     1      30.015 -25.354 -15.455  0.00  0.00    -0.251 OA
ATOM     11  N   UNL     1      30.639 -23.392 -16.479  0.00  0.00    -0.146 N 
ATOM     12  N   UNL     1      28.400 -23.979 -16.297  0.00  0.00    -0.312 N 
ATOM     13  C   UNL     1      29.715 -24.308 -16.036  0.00  0.00    +0.324 C 
ATOM     14  H   UNL     1      27.675 -24.581 -16.013  0.00  0.00    +0.147 HD
ATOM     15  H   UNL     1      28.186 -23.140 -16.768  0.00  0.00    +0.147 HD
BRANCH  11  16
ATOM     16  O   UNL     1      30.296 -22.203 -17.140  0.00  0.00    -0.290 OA
ATOM     17  H   UNL     1      29.668 -22.398 -17.853  0.00  0.00    +0.242 HD
ENDBRANCH  11  16
ENDBRANCH   8  11
ENDBRANCH   6   8
ENDBRANCH   4   7
BRANCH   2  18
ATOM     18  C   UNL     1      34.739 -19.421 -22.474  0.00  0.00    +0.059 C 
BRANCH  18  20
ATOM     19  F   UNL     1      34.645 -13.868 -21.605  0.00  0.00    -0.204 F 
ATOM     20  C   UNL     1      34.714 -17.919 -22.239  0.00  0.00    -0.017 C 
ATOM     21  C   UNL     1      34.711 -17.072 -23.329  0.00  0.00    -0.002 C 
ATOM     22  C   UNL     1      34.693 -17.446 -20.942  0.00  0.00    -0.002 C 
ATOM     23  C   UNL     1      34.687 -15.695 -23.113  0.00  0.00    +0.029 C 
ATOM     24  C   UNL     1      34.671 -16.068 -20.726  0.00  0.00    +0.029 C 
ATOM     25  C   UNL     1      34.667 -15.192 -21.813  0.00  0.00    +0.140 C 
ENDBRANCH  18  20
ENDBRANCH   2  18
TORSDOF 6
ENDMDL
