MODEL 1
REMARK VINA RESULT:     -10.2      0.000      0.000
REMARK  Name = 107994
REMARK  10 active torsions:
REMARK  status: ('A' for Active; 'I' for Inactive)
REMARK    1  A    between atoms: CA_1  and  C_10
REMARK    2  A    between atoms: CA_1  and  N_19
REMARK    3  A    between atoms: CA_5  and  C_16
REMARK    4  A    between atoms: C_16  and  O_17
REMARK    5  A    between atoms: N_19  and  CA_22
REMARK    6  A    between atoms: CA_22  and  C_24
REMARK    7  A    between atoms: CA_22  and  C_27
REMARK    8  A    between atoms: C_24  and  O_25
REMARK    9  A    between atoms: C_27  and  C_28
REMARK   10  A    between atoms: C_28  and  C_29
REMARK                            x       y       z     vdW  Elec       q    Type
REMARK                         _______ _______ _______ _____ _____    ______ ____
ROOT
ATOM      1  CA  UNL     1      35.374 -18.312 -21.877  0.00  0.00    +0.018 C 
ATOM      2  CB  UNL     1      36.084 -18.205 -23.211  0.00  0.00    -0.014 C 
ENDROOT
BRANCH   1  10
ATOM      3  O   UNL     1      35.355 -16.645 -20.190  0.00  0.00    -0.277 OA
ATOM      4  N   UNL     1      34.435 -16.052 -22.249  0.00  0.00    -0.269 N 
ATOM      5  CA  UNL     1      33.923 -14.776 -21.745  0.00  0.00    +0.179 C 
ATOM      6  C   UNL     1      34.163 -13.622 -22.712  0.00  0.00    +0.057 C 
ATOM      7  C   UNL     1      34.095 -16.432 -23.630  0.00  0.00    +0.120 C 
ATOM      8  C   UNL     1      33.801 -13.959 -24.133  0.00  0.00    -0.022 C 
ATOM      9  C   UNL     1      33.786 -15.292 -24.565  0.00  0.00    -0.006 C 
ATOM     10  C   UNL     1      35.056 -16.932 -21.351  0.00  0.00    +0.206 C 
ATOM     11  C   UNL     1      33.525 -12.930 -25.045  0.00  0.00    -0.004 C 
ATOM     12  C   UNL     1      33.467 -15.578 -25.901  0.00  0.00    -0.003 C 
ATOM     13  C   UNL     1      33.212 -13.225 -26.371  0.00  0.00    -0.000 C 
ATOM     14  C   UNL     1      33.180 -14.549 -26.798  0.00  0.00    -0.000 C 
BRANCH   5  16
ATOM     15  OXT UNL     1      31.991 -15.989 -20.934  0.00  0.00    -0.248 OA
ATOM     16  C   UNL     1      32.466 -14.982 -21.436  0.00  0.00    +0.332 C 
BRANCH  16  17
ATOM     17  O   UNL     1      31.743 -13.893 -21.793  0.00  0.00    -0.479 OA
ATOM     18  H   UNL     1      31.489 -13.772 -22.687  0.00  0.00    +0.295 HD
ENDBRANCH  16  17
ENDBRANCH   5  16
ENDBRANCH   1  10
BRANCH   1  19
ATOM     19  N   UNL     1      34.108 -19.011 -22.013  0.00  0.00    +0.399 N 
ATOM     20  H1  UNL     1      33.993 -19.307 -22.982  0.00  0.00    -0.083 HD
ATOM     21  H2  UNL     1      33.356 -18.377 -21.741  0.00  0.00    -0.083 HD
BRANCH  19  22
ATOM     22  CA  UNL     1      34.059 -20.183 -21.148  0.00  0.00    +0.041 C 
BRANCH  22  24
ATOM     23  OXT UNL     1      32.462 -20.854 -19.437  0.00  0.00    -0.253 OA
ATOM     24  C   UNL     1      32.814 -20.048 -20.289  0.00  0.00    +0.293 C 
BRANCH  24  25
ATOM     25  O   UNL     1      32.126 -18.907 -20.546  0.00  0.00    -0.482 OA
ATOM     26  H   UNL     1      31.255 -18.800 -20.216  0.00  0.00    +0.295 HD
ENDBRANCH  24  25
ENDBRANCH  22  24
BRANCH  22  27
ATOM     27  C   UNL     1      35.326 -20.225 -20.281  0.00  0.00    -0.006 C 
BRANCH  27  28
ATOM     28  C   UNL     1      35.830 -21.641 -19.957  0.00  0.00    +0.025 C 
BRANCH  28  29
ATOM     29  C   UNL     1      35.826 -21.985 -18.488  0.00  0.00    -0.022 C 
ATOM     30  C   UNL     1      36.914 -21.638 -17.687  0.00  0.00    -0.004 C 
ATOM     31  C   UNL     1      34.734 -22.650 -17.930  0.00  0.00    -0.004 C 
ATOM     32  C   UNL     1      36.911 -21.956 -16.329  0.00  0.00    -0.000 C 
ATOM     33  C   UNL     1      34.731 -22.968 -16.572  0.00  0.00    -0.000 C 
ATOM     34  C   UNL     1      35.819 -22.621 -15.772  0.00  0.00    -0.000 C 
ENDBRANCH  28  29
ENDBRANCH  27  28
ENDBRANCH  22  27
ENDBRANCH  19  22
ENDBRANCH   1  19
TORSDOF 10
ENDMDL
MODEL 2
REMARK VINA RESULT:     -10.1      3.214      8.997
REMARK  Name = 107994
REMARK  10 active torsions:
REMARK  status: ('A' for Active; 'I' for Inactive)
REMARK    1  A    between atoms: CA_1  and  C_10
REMARK    2  A    between atoms: CA_1  and  N_19
REMARK    3  A    between atoms: CA_5  and  C_16
REMARK    4  A    between atoms: C_16  and  O_17
REMARK    5  A    between atoms: N_19  and  CA_22
REMARK    6  A    between atoms: CA_22  and  C_24
REMARK    7  A    between atoms: CA_22  and  C_27
REMARK    8  A    between atoms: C_24  and  O_25
REMARK    9  A    between atoms: C_27  and  C_28
REMARK   10  A    between atoms: C_28  and  C_29
REMARK                            x       y       z     vdW  Elec       q    Type
REMARK                         _______ _______ _______ _____ _____    ______ ____
ROOT
ATOM      1  CA  UNL     1      33.097 -14.979 -21.487  0.00  0.00    +0.018 C 
ATOM      2  CB  UNL     1      32.325 -15.970 -20.639  0.00  0.00    -0.014 C 
ENDROOT
BRANCH   1  10
ATOM      3  O   UNL     1      35.300 -14.842 -22.355  0.00  0.00    -0.277 OA
ATOM      4  N   UNL     1      34.554 -16.963 -21.736  0.00  0.00    -0.269 N 
ATOM      5  CA  UNL     1      35.727 -17.631 -22.303  0.00  0.00    +0.179 C 
ATOM      6  C   UNL     1      36.285 -18.718 -21.391  0.00  0.00    +0.057 C 
ATOM      7  C   UNL     1      33.479 -17.808 -21.192  0.00  0.00    +0.120 C 
ATOM      8  C   UNL     1      35.220 -19.623 -20.835  0.00  0.00    -0.022 C 
ATOM      9  C   UNL     1      33.895 -19.180 -20.729  0.00  0.00    -0.006 C 
ATOM     10  C   UNL     1      34.418 -15.578 -21.904  0.00  0.00    +0.206 C 
ATOM     11  C   UNL     1      35.564 -20.902 -20.371  0.00  0.00    -0.004 C 
ATOM     12  C   UNL     1      32.925 -20.036 -20.186  0.00  0.00    -0.003 C 
ATOM     13  C   UNL     1      34.593 -21.743 -19.831  0.00  0.00    -0.000 C 
ATOM     14  C   UNL     1      33.273 -21.311 -19.741  0.00  0.00    -0.000 C 
BRANCH   5  16
ATOM     15  OXT UNL     1      35.065 -19.324 -23.902  0.00  0.00    -0.248 OA
ATOM     16  C   UNL     1      35.322 -18.156 -23.652  0.00  0.00    +0.332 C 
BRANCH  16  17
ATOM     17  O   UNL     1      35.281 -17.154 -24.563  0.00  0.00    -0.479 OA
ATOM     18  H   UNL     1      34.460 -16.766 -24.795  0.00  0.00    +0.295 HD
ENDBRANCH  16  17
ENDBRANCH   5  16
ENDBRANCH   1  10
BRANCH   1  19
ATOM     19  N   UNL     1      32.375 -14.661 -22.707  0.00  0.00    +0.399 N 
ATOM     20  H1  UNL     1      31.465 -15.120 -22.685  0.00  0.00    -0.083 HD
ATOM     21  H2  UNL     1      32.924 -14.990 -23.503  0.00  0.00    -0.083 HD
BRANCH  19  22
ATOM     22  CA  UNL     1      32.181 -13.223 -22.843  0.00  0.00    +0.041 C 
BRANCH  22  24
ATOM     23  OXT UNL     1      33.787 -11.610 -23.708  0.00  0.00    -0.253 OA
ATOM     24  C   UNL     1      33.266 -12.716 -23.777  0.00  0.00    +0.293 C 
BRANCH  24  25
ATOM     25  O   UNL     1      33.629 -13.640 -24.703  0.00  0.00    -0.482 OA
ATOM     26  H   UNL     1      32.973 -14.143 -25.145  0.00  0.00    +0.295 HD
ENDBRANCH  24  25
ENDBRANCH  22  24
BRANCH  22  27
ATOM     27  C   UNL     1      32.290 -12.564 -21.460  0.00  0.00    -0.006 C 
BRANCH  27  28
ATOM     28  C   UNL     1      31.168 -11.564 -21.141  0.00  0.00    +0.025 C 
BRANCH  28  29
ATOM     29  C   UNL     1      31.585 -10.114 -21.205  0.00  0.00    -0.022 C 
ATOM     30  C   UNL     1      31.574  -9.438 -22.424  0.00  0.00    -0.004 C 
ATOM     31  C   UNL     1      31.980  -9.451 -20.043  0.00  0.00    -0.004 C 
ATOM     32  C   UNL     1      31.960  -8.099 -22.484  0.00  0.00    -0.000 C 
ATOM     33  C   UNL     1      32.364  -8.112 -20.102  0.00  0.00    -0.000 C 
ATOM     34  C   UNL     1      32.355  -7.436 -21.321  0.00  0.00    -0.000 C 
ENDBRANCH  28  29
ENDBRANCH  27  28
ENDBRANCH  22  27
ENDBRANCH  19  22
ENDBRANCH   1  19
TORSDOF 10
ENDMDL
MODEL 3
REMARK VINA RESULT:      -9.9      5.408     11.149
REMARK  Name = 107994
REMARK  10 active torsions:
REMARK  status: ('A' for Active; 'I' for Inactive)
REMARK    1  A    between atoms: CA_1  and  C_10
REMARK    2  A    between atoms: CA_1  and  N_19
REMARK    3  A    between atoms: CA_5  and  C_16
REMARK    4  A    between atoms: C_16  and  O_17
REMARK    5  A    between atoms: N_19  and  CA_22
REMARK    6  A    between atoms: CA_22  and  C_24
REMARK    7  A    between atoms: CA_22  and  C_27
REMARK    8  A    between atoms: C_24  and  O_25
REMARK    9  A    between atoms: C_27  and  C_28
REMARK   10  A    between atoms: C_28  and  C_29
REMARK                            x       y       z     vdW  Elec       q    Type
REMARK                         _______ _______ _______ _____ _____    ______ ____
ROOT
ATOM      1  CA  UNL     1      33.415 -23.090 -14.379  0.00  0.00    +0.018 C 
ATOM      2  CB  UNL     1      32.196 -22.377 -13.830  0.00  0.00    -0.014 C 
ENDROOT
BRANCH   1  10
ATOM      3  O   UNL     1      33.196 -24.567 -12.536  0.00  0.00    -0.277 OA
ATOM      4  N   UNL     1      35.349 -24.266 -13.379  0.00  0.00    -0.269 N 
ATOM      5  CA  UNL     1      35.971 -25.013 -12.285  0.00  0.00    +0.179 C 
ATOM      6  C   UNL     1      37.056 -25.970 -12.766  0.00  0.00    +0.057 C 
ATOM      7  C   UNL     1      36.235 -23.619 -14.360  0.00  0.00    +0.120 C 
ATOM      8  C   UNL     1      38.003 -25.340 -13.750  0.00  0.00    -0.022 C 
ATOM      9  C   UNL     1      37.602 -24.235 -14.513  0.00  0.00    -0.006 C 
ATOM     10  C   UNL     1      33.966 -24.040 -13.343  0.00  0.00    +0.206 C 
ATOM     11  C   UNL     1      39.278 -25.891 -13.943  0.00  0.00    -0.004 C 
ATOM     12  C   UNL     1      38.496 -23.679 -15.441  0.00  0.00    -0.003 C 
ATOM     13  C   UNL     1      40.158 -25.333 -14.869  0.00  0.00    -0.000 C 
ATOM     14  C   UNL     1      39.768 -24.225 -15.616  0.00  0.00    -0.000 C 
BRANCH   5  16
ATOM     15  OXT UNL     1      37.187 -23.041 -11.583  0.00  0.00    -0.248 OA
ATOM     16  C   UNL     1      36.485 -24.000 -11.300  0.00  0.00    +0.332 C 
BRANCH  16  17
ATOM     17  O   UNL     1      36.065 -24.296 -10.046  0.00  0.00    -0.479 OA
ATOM     18  H   UNL     1      36.282 -25.123  -9.662  0.00  0.00    +0.295 HD
ENDBRANCH  16  17
ENDBRANCH   5  16
ENDBRANCH   1  10
BRANCH   1  19
ATOM     19  N   UNL     1      33.073 -23.889 -15.543  0.00  0.00    +0.399 N 
ATOM     20  H1  UNL     1      32.417 -24.619 -15.265  0.00  0.00    -0.083 HD
ATOM     21  H2  UNL     1      33.930 -24.300 -15.916  0.00  0.00    -0.083 HD
BRANCH  19  22
ATOM     22  CA  UNL     1      32.463 -23.070 -16.583  0.00  0.00    +0.041 C 
BRANCH  22  24
ATOM     23  OXT UNL     1      30.494 -24.432 -16.143  0.00  0.00    -0.253 OA
ATOM     24  C   UNL     1      30.982 -23.406 -16.598  0.00  0.00    +0.293 C 
BRANCH  24  25
ATOM     25  O   UNL     1      30.231 -22.422 -17.156  0.00  0.00    -0.482 OA
ATOM     26  H   UNL     1      29.705 -21.869 -16.613  0.00  0.00    +0.295 HD
ENDBRANCH  24  25
ENDBRANCH  22  24
BRANCH  22  27
ATOM     27  C   UNL     1      33.118 -23.394 -17.933  0.00  0.00    -0.006 C 
BRANCH  27  28
ATOM     28  C   UNL     1      34.428 -22.638 -18.203  0.00  0.00    +0.025 C 
BRANCH  28  29
ATOM     29  C   UNL     1      34.325 -21.563 -19.258  0.00  0.00    -0.022 C 
ATOM     30  C   UNL     1      33.074 -21.086 -19.648  0.00  0.00    -0.004 C 
ATOM     31  C   UNL     1      35.482 -21.047 -19.843  0.00  0.00    -0.004 C 
ATOM     32  C   UNL     1      32.978 -20.093 -20.623  0.00  0.00    -0.000 C 
ATOM     33  C   UNL     1      35.386 -20.054 -20.818  0.00  0.00    -0.000 C 
ATOM     34  C   UNL     1      34.135 -19.577 -21.208  0.00  0.00    -0.000 C 
ENDBRANCH  28  29
ENDBRANCH  27  28
ENDBRANCH  22  27
ENDBRANCH  19  22
ENDBRANCH   1  19
TORSDOF 10
ENDMDL
MODEL 4
REMARK VINA RESULT:      -9.8      2.809      9.190
REMARK  Name = 107994
REMARK  10 active torsions:
REMARK  status: ('A' for Active; 'I' for Inactive)
REMARK    1  A    between atoms: CA_1  and  C_10
REMARK    2  A    between atoms: CA_1  and  N_19
REMARK    3  A    between atoms: CA_5  and  C_16
REMARK    4  A    between atoms: C_16  and  O_17
REMARK    5  A    between atoms: N_19  and  CA_22
REMARK    6  A    between atoms: CA_22  and  C_24
REMARK    7  A    between atoms: CA_22  and  C_27
REMARK    8  A    between atoms: C_24  and  O_25
REMARK    9  A    between atoms: C_27  and  C_28
REMARK   10  A    between atoms: C_28  and  C_29
REMARK                            x       y       z     vdW  Elec       q    Type
REMARK                         _______ _______ _______ _____ _____    ______ ____
ROOT
ATOM      1  CA  UNL     1      33.009 -15.042 -21.266  0.00  0.00    +0.018 C 
ATOM      2  CB  UNL     1      32.109 -16.183 -20.838  0.00  0.00    -0.014 C 
ENDROOT
BRANCH   1  10
ATOM      3  O   UNL     1      35.162 -14.810 -22.237  0.00  0.00    -0.277 OA
ATOM      4  N   UNL     1      34.512 -16.971 -21.649  0.00  0.00    -0.269 N 
ATOM      5  CA  UNL     1      35.674 -17.585 -22.294  0.00  0.00    +0.179 C 
ATOM      6  C   UNL     1      36.310 -18.680 -21.445  0.00  0.00    +0.057 C 
ATOM      7  C   UNL     1      33.491 -17.866 -21.080  0.00  0.00    +0.120 C 
ATOM      8  C   UNL     1      35.302 -19.635 -20.866  0.00  0.00    -0.022 C 
ATOM      9  C   UNL     1      33.970 -19.237 -20.682  0.00  0.00    -0.006 C 
ATOM     10  C   UNL     1      34.326 -15.586 -21.766  0.00  0.00    +0.206 C 
ATOM     11  C   UNL     1      35.706 -20.915 -20.460  0.00  0.00    -0.004 C 
ATOM     12  C   UNL     1      33.055 -20.139 -20.119  0.00  0.00    -0.003 C 
ATOM     13  C   UNL     1      34.789 -21.803 -19.900  0.00  0.00    -0.000 C 
ATOM     14  C   UNL     1      33.463 -21.415 -19.732  0.00  0.00    -0.000 C 
BRANCH   5  16
ATOM     15  OXT UNL     1      34.873 -19.228 -23.881  0.00  0.00    -0.248 OA
ATOM     16  C   UNL     1      35.218 -18.082 -23.637  0.00  0.00    +0.332 C 
BRANCH  16  17
ATOM     17  O   UNL     1      35.243 -17.081 -24.551  0.00  0.00    -0.479 OA
ATOM     18  H   UNL     1      34.945 -17.239 -25.425  0.00  0.00    +0.295 HD
ENDBRANCH  16  17
ENDBRANCH   5  16
ENDBRANCH   1  10
BRANCH   1  19
ATOM     19  N   UNL     1      32.421 -14.293 -22.362  0.00  0.00    +0.399 N 
ATOM     20  H1  UNL     1      31.409 -14.415 -22.344  0.00  0.00    -0.083 HD
ATOM     21  H2  UNL     1      32.808 -14.643 -23.239  0.00  0.00    -0.083 HD
BRANCH  19  22
ATOM     22  CA  UNL     1      32.732 -12.873 -22.255  0.00  0.00    +0.041 C 
BRANCH  22  24
ATOM     23  OXT UNL     1      31.874 -12.188 -20.082  0.00  0.00    -0.253 OA
ATOM     24  C   UNL     1      31.723 -12.270 -21.294  0.00  0.00    +0.293 C 
BRANCH  24  25
ATOM     25  O   UNL     1      30.620 -11.795 -21.928  0.00  0.00    -0.482 OA
ATOM     26  H   UNL     1      29.821 -11.676 -21.452  0.00  0.00    +0.295 HD
ENDBRANCH  24  25
ENDBRANCH  22  24
BRANCH  22  27
ATOM     27  C   UNL     1      32.630 -12.225 -23.643  0.00  0.00    -0.006 C 
BRANCH  27  28
ATOM     28  C   UNL     1      33.871 -11.424 -24.065  0.00  0.00    +0.025 C 
BRANCH  28  29
ATOM     29  C   UNL     1      33.756  -9.934 -23.851  0.00  0.00    -0.022 C 
ATOM     30  C   UNL     1      34.870  -9.114 -24.034  0.00  0.00    -0.004 C 
ATOM     31  C   UNL     1      32.535  -9.376 -23.472  0.00  0.00    -0.004 C 
ATOM     32  C   UNL     1      34.764  -7.738 -23.837  0.00  0.00    -0.000 C 
ATOM     33  C   UNL     1      32.428  -8.000 -23.275  0.00  0.00    -0.000 C 
ATOM     34  C   UNL     1      33.542  -7.180 -23.457  0.00  0.00    -0.000 C 
ENDBRANCH  28  29
ENDBRANCH  27  28
ENDBRANCH  22  27
ENDBRANCH  19  22
ENDBRANCH   1  19
TORSDOF 10
ENDMDL
MODEL 5
REMARK VINA RESULT:      -9.6      3.913      6.077
REMARK  Name = 107994
REMARK  10 active torsions:
REMARK  status: ('A' for Active; 'I' for Inactive)
REMARK    1  A    between atoms: CA_1  and  C_10
REMARK    2  A    between atoms: CA_1  and  N_19
REMARK    3  A    between atoms: CA_5  and  C_16
REMARK    4  A    between atoms: C_16  and  O_17
REMARK    5  A    between atoms: N_19  and  CA_22
REMARK    6  A    between atoms: CA_22  and  C_24
REMARK    7  A    between atoms: CA_22  and  C_27
REMARK    8  A    between atoms: C_24  and  O_25
REMARK    9  A    between atoms: C_27  and  C_28
REMARK   10  A    between atoms: C_28  and  C_29
REMARK                            x       y       z     vdW  Elec       q    Type
REMARK                         _______ _______ _______ _____ _____    ______ ____
ROOT
ATOM      1  CA  UNL     1      33.149 -13.632 -23.148  0.00  0.00    +0.018 C 
ATOM      2  CB  UNL     1      34.443 -13.715 -22.365  0.00  0.00    -0.014 C 
ENDROOT
BRANCH   1  10
ATOM      3  O   UNL     1      33.367 -12.741 -25.336  0.00  0.00    -0.277 OA
ATOM      4  N   UNL     1      33.097 -11.200 -23.607  0.00  0.00    -0.269 N 
ATOM      5  CA  UNL     1      33.355 -10.052 -24.478  0.00  0.00    +0.179 C 
ATOM      6  C   UNL     1      32.386  -8.900 -24.238  0.00  0.00    +0.057 C 
ATOM      7  C   UNL     1      32.919 -10.944 -22.168  0.00  0.00    +0.120 C 
ATOM      8  C   UNL     1      32.197  -8.585 -22.779  0.00  0.00    -0.022 C 
ATOM      9  C   UNL     1      32.437  -9.564 -21.804  0.00  0.00    -0.006 C 
ATOM     10  C   UNL     1      33.218 -12.492 -24.137  0.00  0.00    +0.206 C 
ATOM     11  C   UNL     1      31.729  -7.321 -22.393  0.00  0.00    -0.004 C 
ATOM     12  C   UNL     1      32.230  -9.252 -20.452  0.00  0.00    -0.003 C 
ATOM     13  C   UNL     1      31.525  -7.022 -21.047  0.00  0.00    -0.000 C 
ATOM     14  C   UNL     1      31.779  -7.987 -20.076  0.00  0.00    -0.000 C 
BRANCH   5  16
ATOM     15  OXT UNL     1      35.166  -8.701 -23.610  0.00  0.00    -0.248 OA
ATOM     16  C   UNL     1      34.790  -9.658 -24.269  0.00  0.00    +0.332 C 
BRANCH  16  17
ATOM     17  O   UNL     1      35.620 -10.512 -24.916  0.00  0.00    -0.479 OA
ATOM     18  H   UNL     1      35.422 -10.785 -25.791  0.00  0.00    +0.295 HD
ENDBRANCH  16  17
ENDBRANCH   5  16
ENDBRANCH   1  10
BRANCH   1  19
ATOM     19  N   UNL     1      32.924 -14.843 -23.917  0.00  0.00    +0.399 N 
ATOM     20  H1  UNL     1      32.679 -14.589 -24.874  0.00  0.00    -0.083 HD
ATOM     21  H2  UNL     1      32.166 -15.368 -23.480  0.00  0.00    -0.083 HD
BRANCH  19  22
ATOM     22  CA  UNL     1      34.116 -15.682 -23.938  0.00  0.00    +0.041 C 
BRANCH  22  24
ATOM     23  OXT UNL     1      34.646 -17.412 -25.566  0.00  0.00    -0.253 OA
ATOM     24  C   UNL     1      34.201 -16.297 -25.323  0.00  0.00    +0.293 C 
BRANCH  24  25
ATOM     25  O   UNL     1      33.699 -15.483 -26.286  0.00  0.00    -0.482 OA
ATOM     26  H   UNL     1      34.275 -14.936 -26.785  0.00  0.00    +0.295 HD
ENDBRANCH  24  25
ENDBRANCH  22  24
BRANCH  22  27
ATOM     27  C   UNL     1      33.992 -16.765 -22.857  0.00  0.00    -0.006 C 
BRANCH  27  28
ATOM     28  C   UNL     1      35.333 -17.297 -22.330  0.00  0.00    +0.025 C 
BRANCH  28  29
ATOM     29  C   UNL     1      35.227 -18.555 -21.503  0.00  0.00    -0.022 C 
ATOM     30  C   UNL     1      36.376 -19.144 -20.976  0.00  0.00    -0.004 C 
ATOM     31  C   UNL     1      33.977 -19.129 -21.266  0.00  0.00    -0.004 C 
ATOM     32  C   UNL     1      36.278 -20.306 -20.212  0.00  0.00    -0.000 C 
ATOM     33  C   UNL     1      33.879 -20.292 -20.502  0.00  0.00    -0.000 C 
ATOM     34  C   UNL     1      35.028 -20.881 -19.975  0.00  0.00    -0.000 C 
ENDBRANCH  28  29
ENDBRANCH  27  28
ENDBRANCH  22  27
ENDBRANCH  19  22
ENDBRANCH   1  19
TORSDOF 10
ENDMDL
MODEL 6
REMARK VINA RESULT:      -9.4      5.889      9.834
REMARK  Name = 107994
REMARK  10 active torsions:
REMARK  status: ('A' for Active; 'I' for Inactive)
REMARK    1  A    between atoms: CA_1  and  C_10
REMARK    2  A    between atoms: CA_1  and  N_19
REMARK    3  A    between atoms: CA_5  and  C_16
REMARK    4  A    between atoms: C_16  and  O_17
REMARK    5  A    between atoms: N_19  and  CA_22
REMARK    6  A    between atoms: CA_22  and  C_24
REMARK    7  A    between atoms: CA_22  and  C_27
REMARK    8  A    between atoms: C_24  and  O_25
REMARK    9  A    between atoms: C_27  and  C_28
REMARK   10  A    between atoms: C_28  and  C_29
REMARK                            x       y       z     vdW  Elec       q    Type
REMARK                         _______ _______ _______ _____ _____    ______ ____
ROOT
ATOM      1  CA  UNL     1      34.481 -23.451 -15.829  0.00  0.00    +0.018 C 
ATOM      2  CB  UNL     1      35.229 -24.768 -15.823  0.00  0.00    -0.014 C 
ENDROOT
BRANCH   1  10
ATOM      3  O   UNL     1      34.238 -23.204 -13.483  0.00  0.00    -0.277 OA
ATOM      4  N   UNL     1      32.269 -23.325 -14.727  0.00  0.00    -0.269 N 
ATOM      5  CA  UNL     1      31.423 -23.401 -13.534  0.00  0.00    +0.179 C 
ATOM      6  C   UNL     1      30.185 -22.517 -13.633  0.00  0.00    +0.057 C 
ATOM      7  C   UNL     1      31.619 -23.461 -16.040  0.00  0.00    +0.120 C 
ATOM      8  C   UNL     1      29.472 -22.647 -14.952  0.00  0.00    -0.022 C 
ATOM      9  C   UNL     1      30.162 -23.080 -16.092  0.00  0.00    -0.006 C 
ATOM     10  C   UNL     1      33.662 -23.317 -14.568  0.00  0.00    +0.206 C 
ATOM     11  C   UNL     1      28.121 -22.284 -15.053  0.00  0.00    -0.004 C 
ATOM     12  C   UNL     1      29.480 -23.171 -17.315  0.00  0.00    -0.003 C 
ATOM     13  C   UNL     1      27.454 -22.376 -16.273  0.00  0.00    -0.000 C 
ATOM     14  C   UNL     1      28.133 -22.822 -17.404  0.00  0.00    -0.000 C 
BRANCH   5  16
ATOM     15  OXT UNL     1      31.568 -25.780 -13.961  0.00  0.00    -0.248 OA
ATOM     16  C   UNL     1      31.087 -24.851 -13.329  0.00  0.00    +0.332 C 
BRANCH  16  17
ATOM     17  O   UNL     1      30.168 -24.994 -12.343  0.00  0.00    -0.479 OA
ATOM     18  H   UNL     1      30.006 -25.840 -11.974  0.00  0.00    +0.295 HD
ENDBRANCH  16  17
ENDBRANCH   5  16
ENDBRANCH   1  10
BRANCH   1  19
ATOM     19  N   UNL     1      35.402 -22.327 -15.854  0.00  0.00    +0.399 N 
ATOM     20  H1  UNL     1      35.664 -22.091 -14.898  0.00  0.00    -0.083 HD
ATOM     21  H2  UNL     1      34.937 -21.538 -16.304  0.00  0.00    -0.083 HD
BRANCH  19  22
ATOM     22  CA  UNL     1      36.603 -22.649 -16.613  0.00  0.00    +0.041 C 
BRANCH  22  24
ATOM     23  OXT UNL     1      37.638 -22.628 -14.409  0.00  0.00    -0.253 OA
ATOM     24  C   UNL     1      37.714 -22.882 -15.605  0.00  0.00    +0.293 C 
BRANCH  24  25
ATOM     25  O   UNL     1      38.819 -23.438 -16.166  0.00  0.00    -0.482 OA
ATOM     26  H   UNL     1      39.525 -23.728 -15.622  0.00  0.00    +0.295 HD
ENDBRANCH  24  25
ENDBRANCH  22  24
BRANCH  22  27
ATOM     27  C   UNL     1      36.941 -21.478 -17.548  0.00  0.00    -0.006 C 
BRANCH  27  28
ATOM     28  C   UNL     1      36.689 -21.759 -19.037  0.00  0.00    +0.025 C 
BRANCH  28  29
ATOM     29  C   UNL     1      35.399 -21.184 -19.572  0.00  0.00    -0.022 C 
ATOM     30  C   UNL     1      35.430 -20.166 -20.524  0.00  0.00    -0.004 C 
ATOM     31  C   UNL     1      34.176 -21.674 -19.114  0.00  0.00    -0.004 C 
ATOM     32  C   UNL     1      34.239 -19.635 -21.018  0.00  0.00    -0.000 C 
ATOM     33  C   UNL     1      32.984 -21.144 -19.609  0.00  0.00    -0.000 C 
ATOM     34  C   UNL     1      33.016 -20.125 -20.560  0.00  0.00    -0.000 C 
ENDBRANCH  28  29
ENDBRANCH  27  28
ENDBRANCH  22  27
ENDBRANCH  19  22
ENDBRANCH   1  19
TORSDOF 10
ENDMDL
MODEL 7
REMARK VINA RESULT:      -9.2      1.457      2.093
REMARK  Name = 107994
REMARK  10 active torsions:
REMARK  status: ('A' for Active; 'I' for Inactive)
REMARK    1  A    between atoms: CA_1  and  C_10
REMARK    2  A    between atoms: CA_1  and  N_19
REMARK    3  A    between atoms: CA_5  and  C_16
REMARK    4  A    between atoms: C_16  and  O_17
REMARK    5  A    between atoms: N_19  and  CA_22
REMARK    6  A    between atoms: CA_22  and  C_24
REMARK    7  A    between atoms: CA_22  and  C_27
REMARK    8  A    between atoms: C_24  and  O_25
REMARK    9  A    between atoms: C_27  and  C_28
REMARK   10  A    between atoms: C_28  and  C_29
REMARK                            x       y       z     vdW  Elec       q    Type
REMARK                         _______ _______ _______ _____ _____    ______ ____
ROOT
ATOM      1  CA  UNL     1      35.471 -18.788 -22.037  0.00  0.00    +0.018 C 
ATOM      2  CB  UNL     1      35.502 -18.649 -23.546  0.00  0.00    -0.014 C 
ENDROOT
BRANCH   1  10
ATOM      3  O   UNL     1      35.578 -17.246 -20.238  0.00  0.00    -0.277 OA
ATOM      4  N   UNL     1      34.577 -16.487 -22.203  0.00  0.00    -0.269 N 
ATOM      5  CA  UNL     1      34.123 -15.238 -21.587  0.00  0.00    +0.179 C 
ATOM      6  C   UNL     1      34.348 -14.024 -22.481  0.00  0.00    +0.057 C 
ATOM      7  C   UNL     1      34.162 -16.760 -23.589  0.00  0.00    +0.120 C 
ATOM      8  C   UNL     1      33.910 -14.251 -23.903  0.00  0.00    -0.022 C 
ATOM      9  C   UNL     1      33.838 -15.549 -24.426  0.00  0.00    -0.006 C 
ATOM     10  C   UNL     1      35.216 -17.443 -21.401  0.00  0.00    +0.206 C 
ATOM     11  C   UNL     1      33.619 -13.154 -24.727  0.00  0.00    -0.004 C 
ATOM     12  C   UNL     1      33.449 -15.732 -25.761  0.00  0.00    -0.003 C 
ATOM     13  C   UNL     1      33.235 -13.346 -26.053  0.00  0.00    -0.000 C 
ATOM     14  C   UNL     1      33.147 -14.636 -26.569  0.00  0.00    -0.000 C 
BRANCH   5  16
ATOM     15  OXT UNL     1      32.214 -16.435 -20.703  0.00  0.00    -0.248 OA
ATOM     16  C   UNL     1      32.678 -15.431 -21.222  0.00  0.00    +0.332 C 
BRANCH  16  17
ATOM     17  O   UNL     1      31.952 -14.335 -21.549  0.00  0.00    -0.479 OA
ATOM     18  H   UNL     1      31.183 -14.423 -22.077  0.00  0.00    +0.295 HD
ENDBRANCH  16  17
ENDBRANCH   5  16
ENDBRANCH   1  10
BRANCH   1  19
ATOM     19  N   UNL     1      34.392 -19.664 -21.614  0.00  0.00    +0.399 N 
ATOM     20  H1  UNL     1      34.386 -20.494 -22.206  0.00  0.00    -0.083 HD
ATOM     21  H2  UNL     1      33.511 -19.157 -21.699  0.00  0.00    -0.083 HD
BRANCH  19  22
ATOM     22  CA  UNL     1      34.560 -20.071 -20.225  0.00  0.00    +0.041 C 
BRANCH  22  24
ATOM     23  OXT UNL     1      36.265 -21.718 -20.778  0.00  0.00    -0.253 OA
ATOM     24  C   UNL     1      35.916 -20.745 -20.121  0.00  0.00    +0.293 C 
BRANCH  24  25
ATOM     25  O   UNL     1      36.735 -20.134 -19.227  0.00  0.00    -0.482 OA
ATOM     26  H   UNL     1      36.656 -20.325 -18.313  0.00  0.00    +0.295 HD
ENDBRANCH  24  25
ENDBRANCH  22  24
BRANCH  22  27
ATOM     27  C   UNL     1      33.431 -21.037 -19.839  0.00  0.00    -0.006 C 
BRANCH  27  28
ATOM     28  C   UNL     1      33.909 -22.415 -19.356  0.00  0.00    +0.025 C 
BRANCH  28  29
ATOM     29  C   UNL     1      33.592 -22.716 -17.911  0.00  0.00    -0.022 C 
ATOM     30  C   UNL     1      32.267 -22.750 -17.479  0.00  0.00    -0.004 C 
ATOM     31  C   UNL     1      34.627 -22.960 -17.007  0.00  0.00    -0.004 C 
ATOM     32  C   UNL     1      31.975 -23.028 -16.144  0.00  0.00    -0.000 C 
ATOM     33  C   UNL     1      34.335 -23.238 -15.672  0.00  0.00    -0.000 C 
ATOM     34  C   UNL     1      33.010 -23.272 -15.240  0.00  0.00    -0.000 C 
ENDBRANCH  28  29
ENDBRANCH  27  28
ENDBRANCH  22  27
ENDBRANCH  19  22
ENDBRANCH   1  19
TORSDOF 10
ENDMDL
MODEL 8
REMARK VINA RESULT:      -9.1      6.124     11.415
REMARK  Name = 107994
REMARK  10 active torsions:
REMARK  status: ('A' for Active; 'I' for Inactive)
REMARK    1  A    between atoms: CA_1  and  C_10
REMARK    2  A    between atoms: CA_1  and  N_19
REMARK    3  A    between atoms: CA_5  and  C_16
REMARK    4  A    between atoms: C_16  and  O_17
REMARK    5  A    between atoms: N_19  and  CA_22
REMARK    6  A    between atoms: CA_22  and  C_24
REMARK    7  A    between atoms: CA_22  and  C_27
REMARK    8  A    between atoms: C_24  and  O_25
REMARK    9  A    between atoms: C_27  and  C_28
REMARK   10  A    between atoms: C_28  and  C_29
REMARK                            x       y       z     vdW  Elec       q    Type
REMARK                         _______ _______ _______ _____ _____    ______ ____
ROOT
ATOM      1  CA  UNL     1      32.153 -10.315 -20.867  0.00  0.00    +0.018 C 
ATOM      2  CB  UNL     1      31.525 -10.383 -19.490  0.00  0.00    -0.014 C 
ENDROOT
BRANCH   1  10
ATOM      3  O   UNL     1      30.962 -12.333 -21.237  0.00  0.00    -0.277 OA
ATOM      4  N   UNL     1      32.656 -11.829 -22.759  0.00  0.00    -0.269 N 
ATOM      5  CA  UNL     1      32.563 -13.132 -23.420  0.00  0.00    +0.179 C 
ATOM      6  C   UNL     1      32.614 -13.027 -24.940  0.00  0.00    +0.057 C 
ATOM      7  C   UNL     1      33.722 -10.912 -23.195  0.00  0.00    +0.120 C 
ATOM      8  C   UNL     1      33.710 -12.120 -25.430  0.00  0.00    -0.022 C 
ATOM      9  C   UNL     1      34.220 -11.110 -24.603  0.00  0.00    -0.006 C 
ATOM     10  C   UNL     1      31.863 -11.587 -21.628  0.00  0.00    +0.206 C 
ATOM     11  C   UNL     1      34.191 -12.252 -26.741  0.00  0.00    -0.004 C 
ATOM     12  C   UNL     1      35.226 -10.263 -25.092  0.00  0.00    -0.003 C 
ATOM     13  C   UNL     1      35.189 -11.404 -27.218  0.00  0.00    -0.000 C 
ATOM     14  C   UNL     1      35.708 -10.411 -26.392  0.00  0.00    -0.000 C 
BRANCH   5  16
ATOM     15  OXT UNL     1      34.578 -14.471 -23.510  0.00  0.00    -0.248 OA
ATOM     16  C   UNL     1      33.664 -13.987 -22.859  0.00  0.00    +0.332 C 
BRANCH  16  17
ATOM     17  O   UNL     1      33.508 -14.153 -21.523  0.00  0.00    -0.479 OA
ATOM     18  H   UNL     1      32.712 -14.517 -21.187  0.00  0.00    +0.295 HD
ENDBRANCH  16  17
ENDBRANCH   5  16
ENDBRANCH   1  10
BRANCH   1  19
ATOM     19  N   UNL     1      31.593  -9.223 -21.644  0.00  0.00    +0.399 N 
ATOM     20  H1  UNL     1      30.781  -8.848 -21.154  0.00  0.00    -0.083 HD
ATOM     21  H2  UNL     1      31.324  -9.583 -22.561  0.00  0.00    -0.083 HD
BRANCH  19  22
ATOM     22  CA  UNL     1      32.570  -8.158 -21.834  0.00  0.00    +0.041 C 
BRANCH  22  24
ATOM     23  OXT UNL     1      31.433  -6.230 -20.877  0.00  0.00    -0.253 OA
ATOM     24  C   UNL     1      32.285  -7.104 -20.779  0.00  0.00    +0.293 C 
BRANCH  24  25
ATOM     25  O   UNL     1      33.069  -7.242 -19.679  0.00  0.00    -0.482 OA
ATOM     26  H   UNL     1      33.995  -7.349 -19.774  0.00  0.00    +0.295 HD
ENDBRANCH  24  25
ENDBRANCH  22  24
BRANCH  22  27
ATOM     27  C   UNL     1      32.422  -7.581 -23.249  0.00  0.00    -0.006 C 
BRANCH  27  28
ATOM     28  C   UNL     1      33.736  -7.095 -23.880  0.00  0.00    +0.025 C 
BRANCH  28  29
ATOM     29  C   UNL     1      33.562  -6.086 -24.989  0.00  0.00    -0.022 C 
ATOM     30  C   UNL     1      34.569  -5.910 -25.937  0.00  0.00    -0.004 C 
ATOM     31  C   UNL     1      32.392  -5.330 -25.066  0.00  0.00    -0.004 C 
ATOM     32  C   UNL     1      34.409  -4.978 -26.962  0.00  0.00    -0.000 C 
ATOM     33  C   UNL     1      32.231  -4.398 -26.091  0.00  0.00    -0.000 C 
ATOM     34  C   UNL     1      33.239  -4.222 -27.038  0.00  0.00    -0.000 C 
ENDBRANCH  28  29
ENDBRANCH  27  28
ENDBRANCH  22  27
ENDBRANCH  19  22
ENDBRANCH   1  19
TORSDOF 10
ENDMDL
MODEL 9
REMARK VINA RESULT:      -9.1      4.026     10.111
REMARK  Name = 107994
REMARK  10 active torsions:
REMARK  status: ('A' for Active; 'I' for Inactive)
REMARK    1  A    between atoms: CA_1  and  C_10
REMARK    2  A    between atoms: CA_1  and  N_19
REMARK    3  A    between atoms: CA_5  and  C_16
REMARK    4  A    between atoms: C_16  and  O_17
REMARK    5  A    between atoms: N_19  and  CA_22
REMARK    6  A    between atoms: CA_22  and  C_24
REMARK    7  A    between atoms: CA_22  and  C_27
REMARK    8  A    between atoms: C_24  and  O_25
REMARK    9  A    between atoms: C_27  and  C_28
REMARK   10  A    between atoms: C_28  and  C_29
REMARK                            x       y       z     vdW  Elec       q    Type
REMARK                         _______ _______ _______ _____ _____    ______ ____
ROOT
ATOM      1  CA  UNL     1      32.173 -12.521 -22.807  0.00  0.00    +0.018 C 
ATOM      2  CB  UNL     1      33.521 -11.897 -23.103  0.00  0.00    -0.014 C 
ENDROOT
BRANCH   1  10
ATOM      3  O   UNL     1      31.798 -13.314 -20.603  0.00  0.00    -0.277 OA
ATOM      4  N   UNL     1      33.022 -14.707 -22.016  0.00  0.00    -0.269 N 
ATOM      5  CA  UNL     1      33.362 -15.639 -20.939  0.00  0.00    +0.179 C 
ATOM      6  C   UNL     1      33.222 -17.099 -21.357  0.00  0.00    +0.057 C 
ATOM      7  C   UNL     1      33.618 -14.943 -23.342  0.00  0.00    +0.120 C 
ATOM      8  C   UNL     1      33.844 -17.390 -22.695  0.00  0.00    -0.022 C 
ATOM      9  C   UNL     1      34.014 -16.366 -23.637  0.00  0.00    -0.006 C 
ATOM     10  C   UNL     1      32.310 -13.541 -21.702  0.00  0.00    +0.206 C 
ATOM     11  C   UNL     1      34.209 -18.704 -23.024  0.00  0.00    -0.004 C 
ATOM     12  C   UNL     1      34.576 -16.668 -24.887  0.00  0.00    -0.003 C 
ATOM     13  C   UNL     1      34.764 -18.994 -24.269  0.00  0.00    -0.000 C 
ATOM     14  C   UNL     1      34.950 -17.975 -25.200  0.00  0.00    -0.000 C 
BRANCH   5  16
ATOM     15  OXT UNL     1      35.240 -14.175 -20.504  0.00  0.00    -0.248 OA
ATOM     16  C   UNL     1      34.752 -15.295 -20.486  0.00  0.00    +0.332 C 
BRANCH  16  17
ATOM     17  O   UNL     1      35.402 -16.403 -20.052  0.00  0.00    -0.479 OA
ATOM     18  H   UNL     1      36.198 -16.671 -20.467  0.00  0.00    +0.295 HD
ENDBRANCH  16  17
ENDBRANCH   5  16
ENDBRANCH   1  10
BRANCH   1  19
ATOM     19  N   UNL     1      31.224 -11.524 -22.343  0.00  0.00    +0.399 N 
ATOM     20  H1  UNL     1      30.793 -11.851 -21.479  0.00  0.00    -0.083 HD
ATOM     21  H2  UNL     1      30.518 -11.388 -23.067  0.00  0.00    -0.083 HD
BRANCH  19  22
ATOM     22  CA  UNL     1      31.883 -10.248 -22.095  0.00  0.00    +0.041 C 
BRANCH  22  24
ATOM     23  OXT UNL     1      32.447  -9.178 -19.983  0.00  0.00    -0.253 OA
ATOM     24  C   UNL     1      31.745  -9.960 -20.611  0.00  0.00    +0.293 C 
BRANCH  24  25
ATOM     25  O   UNL     1      30.726 -10.651 -20.039  0.00  0.00    -0.482 OA
ATOM     26  H   UNL     1      30.877 -11.511 -19.697  0.00  0.00    +0.295 HD
ENDBRANCH  24  25
ENDBRANCH  22  24
BRANCH  22  27
ATOM     27  C   UNL     1      31.206  -9.156 -22.936  0.00  0.00    -0.006 C 
BRANCH  27  28
ATOM     28  C   UNL     1      31.644  -7.724 -22.592  0.00  0.00    +0.025 C 
BRANCH  28  29
ATOM     29  C   UNL     1      32.501  -7.062 -23.644  0.00  0.00    -0.022 C 
ATOM     30  C   UNL     1      33.848  -7.401 -23.762  0.00  0.00    -0.004 C 
ATOM     31  C   UNL     1      31.944  -6.111 -24.500  0.00  0.00    -0.004 C 
ATOM     32  C   UNL     1      34.640  -6.790 -24.733  0.00  0.00    -0.000 C 
ATOM     33  C   UNL     1      32.735  -5.500 -25.472  0.00  0.00    -0.000 C 
ATOM     34  C   UNL     1      34.083  -5.839 -25.589  0.00  0.00    -0.000 C 
ENDBRANCH  28  29
ENDBRANCH  27  28
ENDBRANCH  22  27
ENDBRANCH  19  22
ENDBRANCH   1  19
TORSDOF 10
ENDMDL
