MODEL 1
REMARK VINA RESULT:      -8.7      0.000      0.000
REMARK  Name = 3035016
REMARK  8 active torsions:
REMARK  status: ('A' for Active; 'I' for Inactive)
REMARK    1  A    between atoms: C_3  and  N_21
REMARK    2  A    between atoms: C_3  and  C_26
REMARK    3  A    between atoms: C_5  and  O_32
REMARK    4  A    between atoms: C_9  and  O_28
REMARK    5  A    between atoms: C_10  and  O_30
REMARK    6  A    between atoms: O_32  and  C_34
REMARK    7  A    between atoms: C_36  and  O_39
REMARK    8  A    between atoms: C_37  and  O_41
REMARK                            x       y       z     vdW  Elec       q    Type
REMARK                         _______ _______ _______ _____ _____    ______ ____
ROOT
ATOM      1  O   UNL     1      32.124 -21.650 -18.613  0.00  0.00    -0.286 OA
ATOM      2  O   UNL     1      37.460 -21.546 -18.866  0.00  0.00    -0.286 OA
ATOM      3  C   UNL     1      35.808 -24.786 -13.417  0.00  0.00    +0.011 C 
ATOM      4  C   UNL     1      34.456 -25.417 -13.754  0.00  0.00    +0.022 C 
ATOM      5  C   UNL     1      33.556 -24.463 -14.549  0.00  0.00    +0.141 C 
ATOM      6  C   UNL     1      36.546 -24.396 -14.705  0.00  0.00    +0.016 C 
ATOM      7  C   UNL     1      34.274 -23.737 -15.664  0.00  0.00    +0.037 A 
ATOM      8  C   UNL     1      35.678 -23.678 -15.715  0.00  0.00    +0.011 A 
ATOM      9  C   UNL     1      33.526 -23.044 -16.634  0.00  0.00    +0.135 A 
ATOM     10  C   UNL     1      36.306 -22.975 -16.757  0.00  0.00    +0.133 A 
ATOM     11  C   UNL     1      34.161 -22.337 -17.662  0.00  0.00    +0.078 A 
ATOM     12  C   UNL     1      35.551 -22.306 -17.726  0.00  0.00    +0.078 A 
ATOM     13  C   UNL     1      33.347 -21.628 -18.671  0.00  0.00    +0.199 C 
ATOM     14  C   UNL     1      36.237 -21.570 -18.808  0.00  0.00    +0.199 C 
ATOM     15  C   UNL     1      34.031 -20.890 -19.753  0.00  0.00    +0.042 C 
ATOM     16  C   UNL     1      35.426 -20.863 -19.820  0.00  0.00    +0.042 C 
ATOM     17  C   UNL     1      33.272 -20.216 -20.717  0.00  0.00    +0.003 C 
ATOM     18  C   UNL     1      36.063 -20.162 -20.850  0.00  0.00    +0.003 C 
ATOM     19  C   UNL     1      33.911 -19.517 -21.742  0.00  0.00    +0.000 C 
ATOM     20  C   UNL     1      35.303 -19.490 -21.809  0.00  0.00    +0.000 C 
ENDROOT
BRANCH   3  21
ATOM     21  N   UNL     1      36.624 -25.741 -12.664  0.00  0.00    +0.388 N 
ATOM     22  H   UNL     1      37.377 -26.087 -13.259  0.00  0.00    -0.089 HD
ATOM     23  H   UNL     1      36.041 -26.522 -12.362  0.00  0.00    -0.089 HD
ATOM     24  H   UNL     1      37.022 -25.277 -11.847  0.00  0.00    -0.089 HD
ENDBRANCH   3  21
BRANCH   3  26
ATOM     25  O   UNL     1      34.550 -23.324 -11.999  0.00  0.00    -0.298 OA
ATOM     26  C   UNL     1      35.637 -23.596 -12.506  0.00  0.00    +0.133 C 
ATOM     27  C   UNL     1      36.861 -22.760 -12.248  0.00  0.00    +0.070 C 
ENDBRANCH   3  26
BRANCH   9  28
ATOM     28  O   UNL     1      32.162 -23.042 -16.529  0.00  0.00    -0.506 OA
ATOM     29  H   UNL     1      31.741 -22.478 -15.911  0.00  0.00    +0.292 HD
ENDBRANCH   9  28
BRANCH  10  30
ATOM     30  O   UNL     1      37.673 -22.971 -16.801  0.00  0.00    -0.506 OA
ATOM     31  H   UNL     1      38.154 -23.706 -16.476  0.00  0.00    +0.292 HD
ENDBRANCH  10  30
BRANCH   5  32
ATOM     32  O   UNL     1      32.470 -25.221 -15.080  0.00  0.00    -0.328 OA
BRANCH  32  34
ATOM     33  O   UNL     1      30.316 -26.106 -14.629  0.00  0.00    -0.328 OA
ATOM     34  C   UNL     1      31.379 -25.271 -14.164  0.00  0.00    +0.238 C 
ATOM     35  C   UNL     1      30.880 -23.855 -13.883  0.00  0.00    +0.093 C 
ATOM     36  C   UNL     1      30.171 -23.278 -15.108  0.00  0.00    +0.145 C 
ATOM     37  C   UNL     1      29.091 -24.234 -15.608  0.00  0.00    +0.167 C 
ATOM     38  C   UNL     1      29.677 -25.627 -15.817  0.00  0.00    +0.176 C 
BRANCH  36  39
ATOM     39  O   UNL     1      29.589 -22.018 -14.792  0.00  0.00    -0.382 OA
ATOM     40  H   UNL     1      30.242 -21.315 -14.933  0.00  0.00    +0.210 HD
ENDBRANCH  36  39
BRANCH  37  41
ATOM     41  O   UNL     1      28.047 -24.319 -14.636  0.00  0.00    -0.379 OA
ATOM     42  H   UNL     1      28.419 -24.187 -13.750  0.00  0.00    +0.211 HD
ENDBRANCH  37  41
ENDBRANCH  32  34
ENDBRANCH   5  32
TORSDOF 8
ENDMDL
MODEL 2
REMARK VINA RESULT:      -8.0      1.936      2.683
REMARK  Name = 3035016
REMARK  8 active torsions:
REMARK  status: ('A' for Active; 'I' for Inactive)
REMARK    1  A    between atoms: C_3  and  N_21
REMARK    2  A    between atoms: C_3  and  C_26
REMARK    3  A    between atoms: C_5  and  O_32
REMARK    4  A    between atoms: C_9  and  O_28
REMARK    5  A    between atoms: C_10  and  O_30
REMARK    6  A    between atoms: O_32  and  C_34
REMARK    7  A    between atoms: C_36  and  O_39
REMARK    8  A    between atoms: C_37  and  O_41
REMARK                            x       y       z     vdW  Elec       q    Type
REMARK                         _______ _______ _______ _____ _____    ______ ____
ROOT
ATOM      1  O   UNL     1      32.341 -20.716 -19.885  0.00  0.00    -0.286 OA
ATOM      2  O   UNL     1      37.030 -22.220 -17.812  0.00  0.00    -0.286 OA
ATOM      3  C   UNL     1      32.308 -24.687 -14.001  0.00  0.00    +0.011 C 
ATOM      4  C   UNL     1      31.130 -24.892 -14.953  0.00  0.00    +0.022 C 
ATOM      5  C   UNL     1      30.980 -23.732 -15.944  0.00  0.00    +0.141 C 
ATOM      6  C   UNL     1      33.616 -24.567 -14.795  0.00  0.00    +0.016 C 
ATOM      7  C   UNL     1      32.287 -23.280 -16.554  0.00  0.00    +0.037 A 
ATOM      8  C   UNL     1      33.523 -23.646 -15.992  0.00  0.00    +0.011 A 
ATOM      9  C   UNL     1      32.272 -22.419 -17.667  0.00  0.00    +0.135 A 
ATOM     10  C   UNL     1      34.716 -23.187 -16.577  0.00  0.00    +0.133 A 
ATOM     11  C   UNL     1      33.465 -21.958 -18.237  0.00  0.00    +0.078 A 
ATOM     12  C   UNL     1      34.687 -22.346 -17.695  0.00  0.00    +0.078 A 
ATOM     13  C   UNL     1      33.416 -21.061 -19.410  0.00  0.00    +0.199 C 
ATOM     14  C   UNL     1      35.955 -21.875 -18.287  0.00  0.00    +0.199 C 
ATOM     15  C   UNL     1      34.683 -20.588 -20.004  0.00  0.00    +0.042 C 
ATOM     16  C   UNL     1      35.909 -20.981 -19.463  0.00  0.00    +0.042 C 
ATOM     17  C   UNL     1      34.651 -19.740 -21.118  0.00  0.00    +0.003 C 
ATOM     18  C   UNL     1      37.103 -20.527 -20.035  0.00  0.00    +0.003 C 
ATOM     19  C   UNL     1      35.843 -19.289 -21.684  0.00  0.00    +0.000 C 
ATOM     20  C   UNL     1      37.067 -19.682 -21.144  0.00  0.00    +0.000 C 
ENDROOT
BRANCH   3  21
ATOM     21  N   UNL     1      32.405 -25.825 -13.083  0.00  0.00    +0.388 N 
ATOM     22  H   UNL     1      32.435 -26.692 -13.620  0.00  0.00    -0.089 HD
ATOM     23  H   UNL     1      31.592 -25.833 -12.466  0.00  0.00    -0.089 HD
ATOM     24  H   UNL     1      33.255 -25.740 -12.526  0.00  0.00    -0.089 HD
ENDBRANCH   3  21
BRANCH   3  26
ATOM     25  O   UNL     1      33.034 -22.826 -12.682  0.00  0.00    -0.298 OA
ATOM     26  C   UNL     1      32.091 -23.480 -13.124  0.00  0.00    +0.133 C 
ATOM     27  C   UNL     1      30.663 -23.114 -12.818  0.00  0.00    +0.070 C 
ENDBRANCH   3  26
BRANCH   9  28
ATOM     28  O   UNL     1      31.064 -22.006 -18.158  0.00  0.00    -0.506 OA
ATOM     29  H   UNL     1      30.393 -22.635 -18.341  0.00  0.00    +0.292 HD
ENDBRANCH   9  28
BRANCH  10  30
ATOM     30  O   UNL     1      35.901 -23.594 -16.031  0.00  0.00    -0.506 OA
ATOM     31  H   UNL     1      36.704 -23.452 -16.493  0.00  0.00    +0.292 HD
ENDBRANCH  10  30
BRANCH   5  32
ATOM     32  O   UNL     1      30.078 -24.142 -16.972  0.00  0.00    -0.328 OA
BRANCH  32  34
ATOM     33  O   UNL     1      27.748 -24.247 -17.402  0.00  0.00    -0.328 OA
ATOM     34  C   UNL     1      28.788 -24.434 -16.440  0.00  0.00    +0.238 C 
ATOM     35  C   UNL     1      28.542 -23.582 -15.196  0.00  0.00    +0.093 C 
ATOM     36  C   UNL     1      28.347 -22.114 -15.575  0.00  0.00    +0.145 C 
ATOM     37  C   UNL     1      27.275 -21.972 -16.653  0.00  0.00    +0.167 C 
ATOM     38  C   UNL     1      27.587 -22.890 -17.830  0.00  0.00    +0.176 C 
BRANCH  36  39
ATOM     39  O   UNL     1      27.980 -21.354 -14.429  0.00  0.00    -0.382 OA
ATOM     40  H   UNL     1      27.959 -20.412 -14.658  0.00  0.00    +0.210 HD
ENDBRANCH  36  39
BRANCH  37  41
ATOM     41  O   UNL     1      26.006 -22.340 -16.109  0.00  0.00    -0.379 OA
ATOM     42  H   UNL     1      25.760 -21.714 -15.410  0.00  0.00    +0.211 HD
ENDBRANCH  37  41
ENDBRANCH  32  34
ENDBRANCH   5  32
TORSDOF 8
ENDMDL
MODEL 3
REMARK VINA RESULT:      -6.1      1.877      5.291
REMARK  Name = 3035016
REMARK  8 active torsions:
REMARK  status: ('A' for Active; 'I' for Inactive)
REMARK    1  A    between atoms: C_3  and  N_21
REMARK    2  A    between atoms: C_3  and  C_26
REMARK    3  A    between atoms: C_5  and  O_32
REMARK    4  A    between atoms: C_9  and  O_28
REMARK    5  A    between atoms: C_10  and  O_30
REMARK    6  A    between atoms: O_32  and  C_34
REMARK    7  A    between atoms: C_36  and  O_39
REMARK    8  A    between atoms: C_37  and  O_41
REMARK                            x       y       z     vdW  Elec       q    Type
REMARK                         _______ _______ _______ _____ _____    ______ ____
ROOT
ATOM      1  O   UNL     1      36.813 -22.389 -17.975  0.00  0.00    -0.286 OA
ATOM      2  O   UNL     1      31.996 -20.740 -19.595  0.00  0.00    -0.286 OA
ATOM      3  C   UNL     1      31.155 -24.155 -14.069  0.00  0.00    +0.011 C 
ATOM      4  C   UNL     1      32.460 -23.948 -13.300  0.00  0.00    +0.022 C 
ATOM      5  C   UNL     1      33.686 -24.001 -14.220  0.00  0.00    +0.141 C 
ATOM      6  C   UNL     1      30.993 -23.069 -15.141  0.00  0.00    +0.016 C 
ATOM      7  C   UNL     1      33.515 -23.227 -15.507  0.00  0.00    +0.037 A 
ATOM      8  C   UNL     1      32.245 -22.821 -15.954  0.00  0.00    +0.011 A 
ATOM      9  C   UNL     1      34.638 -22.965 -16.314  0.00  0.00    +0.135 A 
ATOM     10  C   UNL     1      32.126 -22.121 -17.167  0.00  0.00    +0.133 A 
ATOM     11  C   UNL     1      34.508 -22.278 -17.526  0.00  0.00    +0.078 A 
ATOM     12  C   UNL     1      33.253 -21.851 -17.950  0.00  0.00    +0.078 A 
ATOM     13  C   UNL     1      35.708 -22.011 -18.346  0.00  0.00    +0.199 C 
ATOM     14  C   UNL     1      33.100 -21.118 -19.223  0.00  0.00    +0.199 C 
ATOM     15  C   UNL     1      35.557 -21.279 -19.620  0.00  0.00    +0.042 C 
ATOM     16  C   UNL     1      34.299 -20.847 -20.043  0.00  0.00    +0.042 C 
ATOM     17  C   UNL     1      36.686 -21.016 -20.405  0.00  0.00    +0.003 C 
ATOM     18  C   UNL     1      34.168 -20.153 -21.252  0.00  0.00    +0.003 C 
ATOM     19  C   UNL     1      36.552 -20.325 -21.610  0.00  0.00    +0.000 C 
ATOM     20  C   UNL     1      35.295 -19.894 -22.032  0.00  0.00    +0.000 C 
ENDROOT
BRANCH   3  21
ATOM     21  N   UNL     1      30.022 -24.091 -13.143  0.00  0.00    +0.388 N 
ATOM     22  H   UNL     1      30.014 -23.183 -12.678  0.00  0.00    -0.089 HD
ATOM     23  H   UNL     1      30.110 -24.830 -12.446  0.00  0.00    -0.089 HD
ATOM     24  H   UNL     1      29.152 -24.214 -13.661  0.00  0.00    -0.089 HD
ENDBRANCH   3  21
BRANCH   3  26
ATOM     25  O   UNL     1      32.035 -26.324 -14.571  0.00  0.00    -0.298 OA
ATOM     26  C   UNL     1      31.099 -25.534 -14.678  0.00  0.00    +0.133 C 
ATOM     27  C   UNL     1      29.841 -25.896 -15.420  0.00  0.00    +0.070 C 
ENDBRANCH   3  26
BRANCH   9  28
ATOM     28  O   UNL     1      35.857 -23.434 -15.908  0.00  0.00    -0.506 OA
ATOM     29  H   UNL     1      36.460 -23.779 -16.538  0.00  0.00    +0.292 HD
ENDBRANCH   9  28
BRANCH  10  30
ATOM     30  O   UNL     1      30.883 -21.705 -17.553  0.00  0.00    -0.506 OA
ATOM     31  H   UNL     1      30.680 -21.617 -18.464  0.00  0.00    +0.292 HD
ENDBRANCH  10  30
BRANCH   5  32
ATOM     32  O   UNL     1      34.806 -23.497 -13.493  0.00  0.00    -0.328 OA
BRANCH  32  34
ATOM     33  O   UNL     1      35.735 -23.766 -11.327  0.00  0.00    -0.328 OA
ATOM     34  C   UNL     1      35.230 -24.420 -12.493  0.00  0.00    +0.238 C 
ATOM     35  C   UNL     1      36.270 -25.371 -13.081  0.00  0.00    +0.093 C 
ATOM     36  C   UNL     1      37.587 -24.640 -13.341  0.00  0.00    +0.145 C 
ATOM     37  C   UNL     1      38.051 -23.902 -12.088  0.00  0.00    +0.167 C 
ATOM     38  C   UNL     1      36.932 -23.013 -11.555  0.00  0.00    +0.176 C 
BRANCH  36  39
ATOM     39  O   UNL     1      38.589 -25.562 -13.755  0.00  0.00    -0.382 OA
ATOM     40  H   UNL     1      38.352 -25.931 -14.619  0.00  0.00    +0.210 HD
ENDBRANCH  36  39
BRANCH  37  41
ATOM     41  O   UNL     1      38.400 -24.853 -11.080  0.00  0.00    -0.379 OA
ATOM     42  H   UNL     1      39.365 -24.943 -11.042  0.00  0.00    +0.211 HD
ENDBRANCH  37  41
ENDBRANCH  32  34
ENDBRANCH   5  32
TORSDOF 8
ENDMDL
MODEL 4
REMARK VINA RESULT:      -6.0      1.266      2.066
REMARK  Name = 3035016
REMARK  8 active torsions:
REMARK  status: ('A' for Active; 'I' for Inactive)
REMARK    1  A    between atoms: C_3  and  N_21
REMARK    2  A    between atoms: C_3  and  C_26
REMARK    3  A    between atoms: C_5  and  O_32
REMARK    4  A    between atoms: C_9  and  O_28
REMARK    5  A    between atoms: C_10  and  O_30
REMARK    6  A    between atoms: O_32  and  C_34
REMARK    7  A    between atoms: C_36  and  O_39
REMARK    8  A    between atoms: C_37  and  O_41
REMARK                            x       y       z     vdW  Elec       q    Type
REMARK                         _______ _______ _______ _____ _____    ______ ____
ROOT
ATOM      1  O   UNL     1      32.307 -20.412 -19.936  0.00  0.00    -0.286 OA
ATOM      2  O   UNL     1      37.635 -20.807 -19.957  0.00  0.00    -0.286 OA
ATOM      3  C   UNL     1      35.417 -24.332 -14.900  0.00  0.00    +0.011 C 
ATOM      4  C   UNL     1      34.031 -24.797 -15.349  0.00  0.00    +0.022 C 
ATOM      5  C   UNL     1      33.265 -23.694 -16.090  0.00  0.00    +0.141 C 
ATOM      6  C   UNL     1      36.251 -23.906 -16.116  0.00  0.00    +0.016 C 
ATOM      7  C   UNL     1      34.102 -22.947 -17.103  0.00  0.00    +0.037 A 
ATOM      8  C   UNL     1      35.506 -23.021 -17.091  0.00  0.00    +0.011 A 
ATOM      9  C   UNL     1      33.472 -22.103 -18.036  0.00  0.00    +0.135 A 
ATOM     10  C   UNL     1      36.249 -22.295 -18.037  0.00  0.00    +0.133 A 
ATOM     11  C   UNL     1      34.220 -21.374 -18.968  0.00  0.00    +0.078 A 
ATOM     12  C   UNL     1      35.609 -21.474 -18.971  0.00  0.00    +0.078 A 
ATOM     13  C   UNL     1      33.528 -20.503 -19.941  0.00  0.00    +0.199 C 
ATOM     14  C   UNL     1      36.414 -20.717 -19.952  0.00  0.00    +0.199 C 
ATOM     15  C   UNL     1      34.331 -19.744 -20.921  0.00  0.00    +0.042 C 
ATOM     16  C   UNL     1      35.724 -19.848 -20.928  0.00  0.00    +0.042 C 
ATOM     17  C   UNL     1      33.688 -18.918 -21.851  0.00  0.00    +0.003 C 
ATOM     18  C   UNL     1      36.474 -19.125 -21.862  0.00  0.00    +0.003 C 
ATOM     19  C   UNL     1      34.439 -18.199 -22.780  0.00  0.00    +0.000 C 
ATOM     20  C   UNL     1      35.829 -18.302 -22.786  0.00  0.00    +0.000 C 
ENDROOT
BRANCH   3  21
ATOM     21  N   UNL     1      36.101 -25.424 -14.205  0.00  0.00    +0.388 N 
ATOM     22  H   UNL     1      35.411 -26.019 -13.744  0.00  0.00    -0.089 HD
ATOM     23  H   UNL     1      36.737 -25.037 -13.508  0.00  0.00    -0.089 HD
ATOM     24  H   UNL     1      36.630 -25.978 -14.879  0.00  0.00    -0.089 HD
ENDBRANCH   3  21
BRANCH   3  26
ATOM     25  O   UNL     1      35.604 -22.057 -14.182  0.00  0.00    -0.298 OA
ATOM     26  C   UNL     1      35.312 -23.216 -13.892  0.00  0.00    +0.133 C 
ATOM     27  C   UNL     1      34.831 -23.589 -12.516  0.00  0.00    +0.070 C 
ENDBRANCH   3  26
BRANCH   9  28
ATOM     28  O   UNL     1      32.110 -21.977 -17.988  0.00  0.00    -0.506 OA
ATOM     29  H   UNL     1      31.654 -21.549 -18.687  0.00  0.00    +0.292 HD
ENDBRANCH   9  28
BRANCH  10  30
ATOM     30  O   UNL     1      37.610 -22.420 -18.024  0.00  0.00    -0.506 OA
ATOM     31  H   UNL     1      38.151 -21.656 -17.988  0.00  0.00    +0.292 HD
ENDBRANCH  10  30
BRANCH   5  32
ATOM     32  O   UNL     1      32.140 -24.293 -16.733  0.00  0.00    -0.328 OA
BRANCH  32  34
ATOM     33  O   UNL     1      31.089 -22.901 -15.126  0.00  0.00    -0.328 OA
ATOM     34  C   UNL     1      30.920 -23.696 -16.302  0.00  0.00    +0.238 C 
ATOM     35  C   UNL     1      29.867 -24.780 -16.082  0.00  0.00    +0.093 C 
ATOM     36  C   UNL     1      30.202 -25.618 -14.849  0.00  0.00    +0.145 C 
ATOM     37  C   UNL     1      30.441 -24.722 -13.636  0.00  0.00    +0.167 C 
ATOM     38  C   UNL     1      31.473 -23.650 -13.968  0.00  0.00    +0.176 C 
BRANCH  36  39
ATOM     39  O   UNL     1      29.147 -26.532 -14.572  0.00  0.00    -0.382 OA
ATOM     40  H   UNL     1      28.310 -26.167 -14.898  0.00  0.00    +0.210 HD
ENDBRANCH  36  39
BRANCH  37  41
ATOM     41  O   UNL     1      29.217 -24.083 -13.272  0.00  0.00    -0.379 OA
ATOM     42  H   UNL     1      28.781 -24.593 -12.571  0.00  0.00    +0.211 HD
ENDBRANCH  37  41
ENDBRANCH  32  34
ENDBRANCH   5  32
TORSDOF 8
ENDMDL
