MODEL 1
REMARK VINA RESULT:     -10.4      0.000      0.000
REMARK  Name = 24764441
REMARK  4 active torsions:
REMARK  status: ('A' for Active; 'I' for Inactive)
REMARK    1  A    between atoms: C_3  and  C_18
REMARK    2  A    between atoms: C_7  and  C_9
REMARK    3  A    between atoms: C_10  and  N_15
REMARK    4  A    between atoms: C_18  and  C_20
REMARK                            x       y       z     vdW  Elec       q    Type
REMARK                         _______ _______ _______ _____ _____    ______ ____
ROOT
ATOM      1  O   UNL     1      34.737 -15.921 -20.779  0.00  0.00    -0.270 OA
ATOM      2  N   UNL     1      34.477 -16.638 -22.979  0.00  0.00    -0.277 N 
ATOM      3  C   UNL     1      35.131 -17.939 -22.816  0.00  0.00    +0.080 C 
ATOM      4  C   UNL     1      35.369 -18.408 -24.254  0.00  0.00    +0.022 C 
ATOM      5  C   UNL     1      34.203 -17.798 -25.021  0.00  0.00    +0.023 C 
ATOM      6  C   UNL     1      34.035 -16.439 -24.358  0.00  0.00    +0.094 C 
ATOM      7  C   UNL     1      34.359 -15.734 -21.933  0.00  0.00    +0.250 C 
ENDROOT
BRANCH   7   9
ATOM      8 BR   UNL     1      34.094 -11.540 -25.181  0.00  0.00    -0.049 Br
ATOM      9  C   UNL     1      33.715 -14.447 -22.226  0.00  0.00    +0.067 C 
ATOM     10  C   UNL     1      32.709 -13.934 -21.407  0.00  0.00    +0.046 C 
ATOM     11  C   UNL     1      34.127 -13.733 -23.352  0.00  0.00    +0.012 C 
ATOM     12  C   UNL     1      32.116 -12.709 -21.712  0.00  0.00    +0.015 C 
ATOM     13  C   UNL     1      33.534 -12.507 -23.657  0.00  0.00    +0.035 C 
ATOM     14  C   UNL     1      32.530 -11.995 -22.837  0.00  0.00    +0.008 C 
BRANCH  10  15
ATOM     15  N   UNL     1      32.276 -14.641 -20.263  0.00  0.00    -0.357 N 
ATOM     16  H   UNL     1      32.649 -14.421 -19.378  0.00  0.00    +0.142 HD
ATOM     17  H   UNL     1      31.602 -15.352 -20.349  0.00  0.00    +0.142 HD
ENDBRANCH  10  15
ENDBRANCH   7   9
BRANCH   3  18
ATOM     18  C   UNL     1      34.255 -18.914 -22.032  0.00  0.00    +0.047 C 
BRANCH  18  20
ATOM     19 CL   UNL     1      32.778 -21.000 -20.302  0.00  0.00    -0.083 Cl
ATOM     20  C   UNL     1      35.060 -19.705 -21.038  0.00  0.00    -0.010 C 
ATOM     21  C   UNL     1      34.469 -20.666 -20.218  0.00  0.00    +0.054 C 
ATOM     22  C   UNL     1      36.429 -19.457 -20.947  0.00  0.00    -0.003 C 
ATOM     23  C   UNL     1      35.249 -21.380 -19.308  0.00  0.00    +0.011 C 
ATOM     24  C   UNL     1      37.209 -20.172 -20.037  0.00  0.00    -0.000 C 
ATOM     25  C   UNL     1      36.619 -21.133 -19.218  0.00  0.00    +0.001 C 
ENDBRANCH  18  20
ENDBRANCH   3  18
TORSDOF 4
ENDMDL
MODEL 2
REMARK VINA RESULT:      -9.8      3.222      5.250
REMARK  Name = 24764441
REMARK  4 active torsions:
REMARK  status: ('A' for Active; 'I' for Inactive)
REMARK    1  A    between atoms: C_3  and  C_18
REMARK    2  A    between atoms: C_7  and  C_9
REMARK    3  A    between atoms: C_10  and  N_15
REMARK    4  A    between atoms: C_18  and  C_20
REMARK                            x       y       z     vdW  Elec       q    Type
REMARK                         _______ _______ _______ _____ _____    ______ ____
ROOT
ATOM      1  O   UNL     1      34.087 -12.228 -25.311  0.00  0.00    -0.270 OA
ATOM      2  N   UNL     1      33.183 -12.542 -23.188  0.00  0.00    -0.277 N 
ATOM      3  C   UNL     1      33.139 -14.006 -23.232  0.00  0.00    +0.080 C 
ATOM      4  C   UNL     1      32.238 -14.378 -22.051  0.00  0.00    +0.022 C 
ATOM      5  C   UNL     1      32.504 -13.268 -21.042  0.00  0.00    +0.023 C 
ATOM      6  C   UNL     1      32.649 -12.036 -21.924  0.00  0.00    +0.094 C 
ATOM      7  C   UNL     1      33.641 -11.783 -24.255  0.00  0.00    +0.250 C 
ENDROOT
BRANCH   7   9
ATOM      8 BR   UNL     1      30.735  -7.521 -22.989  0.00  0.00    -0.049 Br
ATOM      9  C   UNL     1      33.604 -10.322 -24.107  0.00  0.00    +0.067 C 
ATOM     10  C   UNL     1      34.727  -9.536 -24.367  0.00  0.00    +0.046 C 
ATOM     11  C   UNL     1      32.414  -9.721 -23.695  0.00  0.00    +0.012 C 
ATOM     12  C   UNL     1      34.660  -8.152 -24.217  0.00  0.00    +0.015 C 
ATOM     13  C   UNL     1      32.347  -8.336 -23.545  0.00  0.00    +0.035 C 
ATOM     14  C   UNL     1      33.470  -7.551 -23.806  0.00  0.00    +0.008 C 
BRANCH  10  15
ATOM     15  N   UNL     1      35.942 -10.124 -24.784  0.00  0.00    -0.357 N 
ATOM     16  H   UNL     1      35.954 -10.733 -25.557  0.00  0.00    +0.142 HD
ATOM     17  H   UNL     1      36.776  -9.924 -24.302  0.00  0.00    +0.142 HD
ENDBRANCH  10  15
ENDBRANCH   7   9
BRANCH   3  18
ATOM     18  C   UNL     1      34.535 -14.613 -23.104  0.00  0.00    +0.047 C 
BRANCH  18  20
ATOM     19 CL   UNL     1      35.007 -16.714 -20.893  0.00  0.00    -0.083 Cl
ATOM     20  C   UNL     1      34.546 -16.064 -23.499  0.00  0.00    -0.010 C 
ATOM     21  C   UNL     1      34.752 -17.075 -22.561  0.00  0.00    +0.054 C 
ATOM     22  C   UNL     1      34.343 -16.388 -24.840  0.00  0.00    -0.003 C 
ATOM     23  C   UNL     1      34.756 -18.411 -22.965  0.00  0.00    +0.011 C 
ATOM     24  C   UNL     1      34.345 -17.723 -25.244  0.00  0.00    -0.000 C 
ATOM     25  C   UNL     1      34.552 -18.734 -24.306  0.00  0.00    +0.001 C 
ENDBRANCH  18  20
ENDBRANCH   3  18
TORSDOF 4
ENDMDL
MODEL 3
REMARK VINA RESULT:      -9.4      3.427      7.434
REMARK  Name = 24764441
REMARK  4 active torsions:
REMARK  status: ('A' for Active; 'I' for Inactive)
REMARK    1  A    between atoms: C_3  and  C_18
REMARK    2  A    between atoms: C_7  and  C_9
REMARK    3  A    between atoms: C_10  and  N_15
REMARK    4  A    between atoms: C_18  and  C_20
REMARK                            x       y       z     vdW  Elec       q    Type
REMARK                         _______ _______ _______ _____ _____    ______ ____
ROOT
ATOM      1  O   UNL     1      35.530 -17.776 -23.737  0.00  0.00    -0.270 OA
ATOM      2  N   UNL     1      34.877 -16.412 -21.967  0.00  0.00    -0.277 N 
ATOM      3  C   UNL     1      34.686 -15.189 -22.751  0.00  0.00    +0.080 C 
ATOM      4  C   UNL     1      34.596 -14.088 -21.690  0.00  0.00    +0.022 C 
ATOM      5  C   UNL     1      33.965 -14.798 -20.499  0.00  0.00    +0.023 C 
ATOM      6  C   UNL     1      34.603 -16.178 -20.550  0.00  0.00    +0.094 C 
ATOM      7  C   UNL     1      35.305 -17.600 -22.542  0.00  0.00    +0.250 C 
ENDROOT
BRANCH   7   9
ATOM      8 BR   UNL     1      32.988 -21.309 -19.527  0.00  0.00    -0.049 Br
ATOM      9  C   UNL     1      35.494 -18.750 -21.648  0.00  0.00    +0.067 C 
ATOM     10  C   UNL     1      36.767 -19.225 -21.335  0.00  0.00    +0.046 C 
ATOM     11  C   UNL     1      34.367 -19.372 -21.109  0.00  0.00    +0.012 C 
ATOM     12  C   UNL     1      36.915 -20.320 -20.484  0.00  0.00    +0.015 C 
ATOM     13  C   UNL     1      34.514 -20.467 -20.258  0.00  0.00    +0.035 C 
ATOM     14  C   UNL     1      35.788 -20.941 -19.945  0.00  0.00    +0.008 C 
BRANCH  10  15
ATOM     15  N   UNL     1      37.922 -18.611 -21.869  0.00  0.00    -0.357 N 
ATOM     16  H   UNL     1      38.816 -18.939 -21.617  0.00  0.00    +0.142 HD
ATOM     17  H   UNL     1      37.834 -17.855 -22.493  0.00  0.00    +0.142 HD
ENDBRANCH  10  15
ENDBRANCH   7   9
BRANCH   3  18
ATOM     18  C   UNL     1      33.426 -15.264 -23.610  0.00  0.00    +0.047 C 
BRANCH  18  20
ATOM     19 CL   UNL     1      32.777 -16.197 -26.480  0.00  0.00    -0.083 Cl
ATOM     20  C   UNL     1      33.443 -14.237 -24.709  0.00  0.00    -0.010 C 
ATOM     21  C   UNL     1      33.162 -14.576 -26.031  0.00  0.00    +0.054 C 
ATOM     22  C   UNL     1      33.750 -12.917 -24.377  0.00  0.00    -0.003 C 
ATOM     23  C   UNL     1      33.187 -13.595 -27.024  0.00  0.00    +0.011 C 
ATOM     24  C   UNL     1      33.775 -11.936 -25.369  0.00  0.00    -0.000 C 
ATOM     25  C   UNL     1      33.493 -12.275 -26.691  0.00  0.00    +0.001 C 
ENDBRANCH  18  20
ENDBRANCH   3  18
TORSDOF 4
ENDMDL
MODEL 4
REMARK VINA RESULT:      -9.4      3.474      7.664
REMARK  Name = 24764441
REMARK  4 active torsions:
REMARK  status: ('A' for Active; 'I' for Inactive)
REMARK    1  A    between atoms: C_3  and  C_18
REMARK    2  A    between atoms: C_7  and  C_9
REMARK    3  A    between atoms: C_10  and  N_15
REMARK    4  A    between atoms: C_18  and  C_20
REMARK                            x       y       z     vdW  Elec       q    Type
REMARK                         _______ _______ _______ _____ _____    ______ ____
ROOT
ATOM      1  O   UNL     1      35.009 -14.904 -23.727  0.00  0.00    -0.270 OA
ATOM      2  N   UNL     1      33.602 -15.273 -21.909  0.00  0.00    -0.277 N 
ATOM      3  C   UNL     1      33.285 -13.867 -21.646  0.00  0.00    +0.080 C 
ATOM      4  C   UNL     1      32.645 -13.892 -20.255  0.00  0.00    +0.022 C 
ATOM      5  C   UNL     1      31.959 -15.252 -20.208  0.00  0.00    +0.023 C 
ATOM      6  C   UNL     1      32.939 -16.152 -20.947  0.00  0.00    +0.094 C 
ATOM      7  C   UNL     1      34.461 -15.660 -22.927  0.00  0.00    +0.250 C 
ENDROOT
BRANCH   7   9
ATOM      8 BR   UNL     1      36.011 -20.147 -20.545  0.00  0.00    -0.049 Br
ATOM      9  C   UNL     1      34.731 -17.096 -23.071  0.00  0.00    +0.067 C 
ATOM     10  C   UNL     1      34.563 -17.748 -24.293  0.00  0.00    +0.046 C 
ATOM     11  C   UNL     1      35.162 -17.812 -21.954  0.00  0.00    +0.012 C 
ATOM     12  C   UNL     1      34.826 -19.113 -24.398  0.00  0.00    +0.015 C 
ATOM     13  C   UNL     1      35.426 -19.178 -22.059  0.00  0.00    +0.035 C 
ATOM     14  C   UNL     1      35.258 -19.828 -23.281  0.00  0.00    +0.008 C 
BRANCH  10  15
ATOM     15  N   UNL     1      34.127 -17.043 -25.437  0.00  0.00    -0.357 N 
ATOM     16  H   UNL     1      34.647 -17.090 -26.272  0.00  0.00    +0.142 HD
ATOM     17  H   UNL     1      33.304 -16.505 -25.400  0.00  0.00    +0.142 HD
ENDBRANCH  10  15
ENDBRANCH   7   9
BRANCH   3  18
ATOM     18  C   UNL     1      32.340 -13.298 -22.703  0.00  0.00    +0.047 C 
BRANCH  18  20
ATOM     19 CL   UNL     1      30.611 -11.202 -21.236  0.00  0.00    -0.083 Cl
ATOM     20  C   UNL     1      32.616 -11.843 -22.967  0.00  0.00    -0.010 C 
ATOM     21  C   UNL     1      31.881 -10.834 -22.346  0.00  0.00    +0.054 C 
ATOM     22  C   UNL     1      33.636 -11.514 -23.859  0.00  0.00    -0.003 C 
ATOM     23  C   UNL     1      32.166  -9.496 -22.617  0.00  0.00    +0.011 C 
ATOM     24  C   UNL     1      33.922 -10.176 -24.130  0.00  0.00    -0.000 C 
ATOM     25  C   UNL     1      33.187  -9.167 -23.509  0.00  0.00    +0.001 C 
ENDBRANCH  18  20
ENDBRANCH   3  18
TORSDOF 4
ENDMDL
MODEL 5
REMARK VINA RESULT:      -9.3      3.018      4.620
REMARK  Name = 24764441
REMARK  4 active torsions:
REMARK  status: ('A' for Active; 'I' for Inactive)
REMARK    1  A    between atoms: C_3  and  C_18
REMARK    2  A    between atoms: C_7  and  C_9
REMARK    3  A    between atoms: C_10  and  N_15
REMARK    4  A    between atoms: C_18  and  C_20
REMARK                            x       y       z     vdW  Elec       q    Type
REMARK                         _______ _______ _______ _____ _____    ______ ____
ROOT
ATOM      1  O   UNL     1      33.103 -12.733 -24.607  0.00  0.00    -0.270 OA
ATOM      2  N   UNL     1      32.877 -13.367 -22.378  0.00  0.00    -0.277 N 
ATOM      3  C   UNL     1      33.048 -14.807 -22.587  0.00  0.00    +0.080 C 
ATOM      4  C   UNL     1      32.576 -15.425 -21.269  0.00  0.00    +0.022 C 
ATOM      5  C   UNL     1      32.935 -14.365 -20.235  0.00  0.00    +0.023 C 
ATOM      6  C   UNL     1      32.641 -13.064 -20.966  0.00  0.00    +0.094 C 
ATOM      7  C   UNL     1      32.902 -12.458 -23.425  0.00  0.00    +0.250 C 
ENDROOT
BRANCH   7   9
ATOM      8 BR   UNL     1      34.814  -7.506 -23.614  0.00  0.00    -0.049 Br
ATOM      9  C   UNL     1      32.682 -11.043 -23.095  0.00  0.00    +0.067 C 
ATOM     10  C   UNL     1      31.522 -10.620 -22.449  0.00  0.00    +0.046 C 
ATOM     11  C   UNL     1      33.664 -10.115 -23.443  0.00  0.00    +0.012 C 
ATOM     12  C   UNL     1      31.341  -9.271 -22.149  0.00  0.00    +0.015 C 
ATOM     13  C   UNL     1      33.484  -8.764 -23.144  0.00  0.00    +0.035 C 
ATOM     14  C   UNL     1      32.323  -8.342 -22.497  0.00  0.00    +0.008 C 
BRANCH  10  15
ATOM     15  N   UNL     1      30.515 -11.544 -22.087  0.00  0.00    -0.357 N 
ATOM     16  H   UNL     1      29.567 -11.279 -22.126  0.00  0.00    +0.142 HD
ATOM     17  H   UNL     1      30.760 -12.451 -21.797  0.00  0.00    +0.142 HD
ENDBRANCH  10  15
ENDBRANCH   7   9
BRANCH   3  18
ATOM     18  C   UNL     1      34.502 -15.159 -22.899  0.00  0.00    +0.047 C 
BRANCH  18  20
ATOM     19 CL   UNL     1      33.710 -15.805 -25.812  0.00  0.00    -0.083 Cl
ATOM     20  C   UNL     1      34.638 -16.581 -23.370  0.00  0.00    -0.010 C 
ATOM     21  C   UNL     1      34.302 -16.956 -24.670  0.00  0.00    +0.054 C 
ATOM     22  C   UNL     1      35.114 -17.534 -22.470  0.00  0.00    -0.003 C 
ATOM     23  C   UNL     1      34.442 -18.285 -25.070  0.00  0.00    +0.011 C 
ATOM     24  C   UNL     1      35.255 -18.863 -22.870  0.00  0.00    -0.000 C 
ATOM     25  C   UNL     1      34.919 -19.238 -24.170  0.00  0.00    +0.001 C 
ENDBRANCH  18  20
ENDBRANCH   3  18
TORSDOF 4
ENDMDL
MODEL 6
REMARK VINA RESULT:      -9.0      5.152      9.756
REMARK  Name = 24764441
REMARK  4 active torsions:
REMARK  status: ('A' for Active; 'I' for Inactive)
REMARK    1  A    between atoms: C_3  and  C_18
REMARK    2  A    between atoms: C_7  and  C_9
REMARK    3  A    between atoms: C_10  and  N_15
REMARK    4  A    between atoms: C_18  and  C_20
REMARK                            x       y       z     vdW  Elec       q    Type
REMARK                         _______ _______ _______ _____ _____    ______ ____
ROOT
ATOM      1  O   UNL     1      34.538 -11.196 -24.800  0.00  0.00    -0.270 OA
ATOM      2  N   UNL     1      32.873 -11.395 -23.185  0.00  0.00    -0.277 N 
ATOM      3  C   UNL     1      32.778  -9.971 -22.856  0.00  0.00    +0.080 C 
ATOM      4  C   UNL     1      31.976  -9.951 -21.552  0.00  0.00    +0.022 C 
ATOM      5  C   UNL     1      31.061 -11.162 -21.684  0.00  0.00    +0.023 C 
ATOM      6  C   UNL     1      31.951 -12.187 -22.372  0.00  0.00    +0.094 C 
ATOM      7  C   UNL     1      33.770 -11.879 -24.125  0.00  0.00    +0.250 C 
ENDROOT
BRANCH   7   9
ATOM      8 BR   UNL     1      34.848 -16.658 -22.074  0.00  0.00    -0.049 Br
ATOM      9  C   UNL     1      33.799 -13.331 -24.344  0.00  0.00    +0.067 C 
ATOM     10  C   UNL     1      33.407 -13.890 -25.560  0.00  0.00    +0.046 C 
ATOM     11  C   UNL     1      34.228 -14.157 -23.304  0.00  0.00    +0.012 C 
ATOM     12  C   UNL     1      33.444 -15.273 -25.738  0.00  0.00    +0.015 C 
ATOM     13  C   UNL     1      34.265 -15.540 -23.482  0.00  0.00    +0.035 C 
ATOM     14  C   UNL     1      33.874 -16.098 -24.698  0.00  0.00    +0.008 C 
BRANCH  10  15
ATOM     15  N   UNL     1      32.968 -13.073 -26.627  0.00  0.00    -0.357 N 
ATOM     16  H   UNL     1      32.664 -13.484 -27.468  0.00  0.00    +0.142 HD
ATOM     17  H   UNL     1      32.968 -12.094 -26.528  0.00  0.00    +0.142 HD
ENDBRANCH  10  15
ENDBRANCH   7   9
BRANCH   3  18
ATOM     18  C   UNL     1      32.087  -9.183 -23.967  0.00  0.00    +0.047 C 
BRANCH  18  20
ATOM     19 CL   UNL     1      34.452  -7.246 -24.398  0.00  0.00    -0.083 Cl
ATOM     20  C   UNL     1      31.898  -7.740 -23.588  0.00  0.00    -0.010 C 
ATOM     21  C   UNL     1      32.915  -6.801 -23.750  0.00  0.00    +0.054 C 
ATOM     22  C   UNL     1      30.666  -7.349 -23.061  0.00  0.00    -0.003 C 
ATOM     23  C   UNL     1      32.702  -5.471 -23.386  0.00  0.00    +0.011 C 
ATOM     24  C   UNL     1      30.453  -6.019 -22.698  0.00  0.00    -0.000 C 
ATOM     25  C   UNL     1      31.471  -5.081 -22.861  0.00  0.00    +0.001 C 
ENDBRANCH  18  20
ENDBRANCH   3  18
TORSDOF 4
ENDMDL
MODEL 7
REMARK VINA RESULT:      -9.0      1.134      1.516
REMARK  Name = 24764441
REMARK  4 active torsions:
REMARK  status: ('A' for Active; 'I' for Inactive)
REMARK    1  A    between atoms: C_3  and  C_18
REMARK    2  A    between atoms: C_7  and  C_9
REMARK    3  A    between atoms: C_10  and  N_15
REMARK    4  A    between atoms: C_18  and  C_20
REMARK                            x       y       z     vdW  Elec       q    Type
REMARK                         _______ _______ _______ _____ _____    ______ ____
ROOT
ATOM      1  O   UNL     1      34.679 -16.275 -20.725  0.00  0.00    -0.270 OA
ATOM      2  N   UNL     1      34.448 -16.941 -22.945  0.00  0.00    -0.277 N 
ATOM      3  C   UNL     1      35.082 -18.254 -22.800  0.00  0.00    +0.080 C 
ATOM      4  C   UNL     1      35.338 -18.695 -24.244  0.00  0.00    +0.022 C 
ATOM      5  C   UNL     1      34.193 -18.052 -25.016  0.00  0.00    +0.023 C 
ATOM      6  C   UNL     1      34.032 -16.705 -24.327  0.00  0.00    +0.094 C 
ATOM      7  C   UNL     1      34.323 -16.058 -21.882  0.00  0.00    +0.250 C 
ENDROOT
BRANCH   7   9
ATOM      8 BR   UNL     1      34.104 -11.833 -25.094  0.00  0.00    -0.049 Br
ATOM      9  C   UNL     1      33.702 -14.756 -22.158  0.00  0.00    +0.067 C 
ATOM     10  C   UNL     1      32.715 -14.231 -21.323  0.00  0.00    +0.046 C 
ATOM     11  C   UNL     1      34.115 -14.041 -23.282  0.00  0.00    +0.012 C 
ATOM     12  C   UNL     1      32.143 -12.992 -21.611  0.00  0.00    +0.015 C 
ATOM     13  C   UNL     1      33.543 -12.802 -23.571  0.00  0.00    +0.035 C 
ATOM     14  C   UNL     1      32.558 -12.277 -22.735  0.00  0.00    +0.008 C 
BRANCH  10  15
ATOM     15  N   UNL     1      32.281 -14.938 -20.179  0.00  0.00    -0.357 N 
ATOM     16  H   UNL     1      31.925 -14.447 -19.403  0.00  0.00    +0.142 HD
ATOM     17  H   UNL     1      32.336 -15.920 -20.157  0.00  0.00    +0.142 HD
ENDBRANCH  10  15
ENDBRANCH   7   9
BRANCH   3  18
ATOM     18  C   UNL     1      34.180 -19.233 -22.051  0.00  0.00    +0.047 C 
BRANCH  18  20
ATOM     19 CL   UNL     1      37.193 -18.644 -21.728  0.00  0.00    -0.083 Cl
ATOM     20  C   UNL     1      34.935 -19.978 -20.986  0.00  0.00    -0.010 C 
ATOM     21  C   UNL     1      36.298 -19.771 -20.775  0.00  0.00    +0.054 C 
ATOM     22  C   UNL     1      34.239 -20.896 -20.200  0.00  0.00    -0.003 C 
ATOM     23  C   UNL     1      36.965 -20.482 -19.776  0.00  0.00    +0.011 C 
ATOM     24  C   UNL     1      34.906 -21.606 -19.200  0.00  0.00    -0.000 C 
ATOM     25  C   UNL     1      36.268 -21.399 -18.989  0.00  0.00    +0.001 C 
ENDBRANCH  18  20
ENDBRANCH   3  18
TORSDOF 4
ENDMDL
MODEL 8
REMARK VINA RESULT:      -8.9      5.008      8.519
REMARK  Name = 24764441
REMARK  4 active torsions:
REMARK  status: ('A' for Active; 'I' for Inactive)
REMARK    1  A    between atoms: C_3  and  C_18
REMARK    2  A    between atoms: C_7  and  C_9
REMARK    3  A    between atoms: C_10  and  N_15
REMARK    4  A    between atoms: C_18  and  C_20
REMARK                            x       y       z     vdW  Elec       q    Type
REMARK                         _______ _______ _______ _____ _____    ______ ____
ROOT
ATOM      1  O   UNL     1      32.731 -22.240 -19.523  0.00  0.00    -0.270 OA
ATOM      2  N   UNL     1      34.928 -21.536 -19.203  0.00  0.00    -0.277 N 
ATOM      3  C   UNL     1      35.099 -20.900 -20.511  0.00  0.00    +0.080 C 
ATOM      4  C   UNL     1      36.612 -20.687 -20.617  0.00  0.00    +0.022 C 
ATOM      5  C   UNL     1      37.038 -20.470 -19.170  0.00  0.00    +0.023 C 
ATOM      6  C   UNL     1      36.150 -21.440 -18.405  0.00  0.00    +0.094 C 
ATOM      7  C   UNL     1      33.749 -22.171 -18.838  0.00  0.00    +0.250 C 
ENDROOT
BRANCH   7   9
ATOM      8 BR   UNL     1      36.509 -24.504 -14.945  0.00  0.00    -0.049 Br
ATOM      9  C   UNL     1      33.708 -22.804 -17.513  0.00  0.00    +0.067 C 
ATOM     10  C   UNL     1      32.511 -22.945 -16.812  0.00  0.00    +0.046 C 
ATOM     11  C   UNL     1      34.901 -23.268 -16.956  0.00  0.00    +0.012 C 
ATOM     12  C   UNL     1      32.505 -23.550 -15.556  0.00  0.00    +0.015 C 
ATOM     13  C   UNL     1      34.894 -23.874 -15.699  0.00  0.00    +0.035 C 
ATOM     14  C   UNL     1      33.696 -24.015 -14.999  0.00  0.00    +0.008 C 
BRANCH  10  15
ATOM     15  N   UNL     1      31.292 -22.482 -17.357  0.00  0.00    -0.357 N 
ATOM     16  H   UNL     1      31.283 -21.682 -17.931  0.00  0.00    +0.142 HD
ATOM     17  H   UNL     1      30.454 -22.958 -17.162  0.00  0.00    +0.142 HD
ENDBRANCH  10  15
ENDBRANCH   7   9
BRANCH   3  18
ATOM     18  C   UNL     1      34.326 -19.585 -20.602  0.00  0.00    +0.047 C 
BRANCH  18  20
ATOM     19 CL   UNL     1      34.883 -16.550 -20.545  0.00  0.00    -0.083 Cl
ATOM     20  C   UNL     1      34.572 -18.887 -21.911  0.00  0.00    -0.010 C 
ATOM     21  C   UNL     1      34.831 -17.519 -21.973  0.00  0.00    +0.054 C 
ATOM     22  C   UNL     1      34.536 -19.644 -23.082  0.00  0.00    -0.003 C 
ATOM     23  C   UNL     1      35.054 -16.906 -23.206  0.00  0.00    +0.011 C 
ATOM     24  C   UNL     1      34.760 -19.032 -24.315  0.00  0.00    -0.000 C 
ATOM     25  C   UNL     1      35.018 -17.663 -24.377  0.00  0.00    +0.001 C 
ENDBRANCH  18  20
ENDBRANCH   3  18
TORSDOF 4
ENDMDL
MODEL 9
REMARK VINA RESULT:      -8.9      2.304      3.642
REMARK  Name = 24764441
REMARK  4 active torsions:
REMARK  status: ('A' for Active; 'I' for Inactive)
REMARK    1  A    between atoms: C_3  and  C_18
REMARK    2  A    between atoms: C_7  and  C_9
REMARK    3  A    between atoms: C_10  and  N_15
REMARK    4  A    between atoms: C_18  and  C_20
REMARK                            x       y       z     vdW  Elec       q    Type
REMARK                         _______ _______ _______ _____ _____    ______ ____
ROOT
ATOM      1  O   UNL     1      33.781 -16.451 -24.593  0.00  0.00    -0.270 OA
ATOM      2  N   UNL     1      33.189 -15.236 -22.697  0.00  0.00    -0.277 N 
ATOM      3  C   UNL     1      33.103 -16.375 -21.780  0.00  0.00    +0.080 C 
ATOM      4  C   UNL     1      32.375 -15.805 -20.559  0.00  0.00    +0.022 C 
ATOM      5  C   UNL     1      32.813 -14.346 -20.539  0.00  0.00    +0.023 C 
ATOM      6  C   UNL     1      32.859 -13.985 -22.016  0.00  0.00    +0.094 C 
ATOM      7  C   UNL     1      33.506 -15.389 -24.039  0.00  0.00    +0.250 C 
ENDROOT
BRANCH   7   9
ATOM      8 BR   UNL     1      34.742 -10.231 -24.331  0.00  0.00    -0.049 Br
ATOM      9  C   UNL     1      33.527 -14.176 -24.868  0.00  0.00    +0.067 C 
ATOM     10  C   UNL     1      33.060 -14.186 -26.182  0.00  0.00    +0.046 C 
ATOM     11  C   UNL     1      34.029 -12.997 -24.316  0.00  0.00    +0.012 C 
ATOM     12  C   UNL     1      33.094 -13.020 -26.944  0.00  0.00    +0.015 C 
ATOM     13  C   UNL     1      34.063 -11.829 -25.079  0.00  0.00    +0.035 C 
ATOM     14  C   UNL     1      33.595 -11.840 -26.392  0.00  0.00    +0.008 C 
BRANCH  10  15
ATOM     15  N   UNL     1      32.548 -15.370 -26.760  0.00  0.00    -0.357 N 
ATOM     16  H   UNL     1      31.635 -15.667 -26.545  0.00  0.00    +0.142 HD
ATOM     17  H   UNL     1      33.105 -15.897 -27.378  0.00  0.00    +0.142 HD
ENDBRANCH  10  15
ENDBRANCH   7   9
BRANCH   3  18
ATOM     18  C   UNL     1      34.486 -16.915 -21.424  0.00  0.00    +0.047 C 
BRANCH  18  20
ATOM     19 CL   UNL     1      37.103 -18.548 -21.557  0.00  0.00    -0.083 Cl
ATOM     20  C   UNL     1      34.433 -18.369 -21.043  0.00  0.00    -0.010 C 
ATOM     21  C   UNL     1      35.569 -19.177 -21.077  0.00  0.00    +0.054 C 
ATOM     22  C   UNL     1      33.207 -18.906 -20.651  0.00  0.00    -0.003 C 
ATOM     23  C   UNL     1      35.479 -20.522 -20.717  0.00  0.00    +0.011 C 
ATOM     24  C   UNL     1      33.117 -20.251 -20.290  0.00  0.00    -0.000 C 
ATOM     25  C   UNL     1      34.253 -21.058 -20.323  0.00  0.00    +0.001 C 
ENDBRANCH  18  20
ENDBRANCH   3  18
TORSDOF 4
ENDMDL
