MODEL 1
REMARK VINA RESULT:      -6.7      0.000      0.000
REMARK  Name = 7478
REMARK  3 active torsions:
REMARK  status: ('A' for Active; 'I' for Inactive)
REMARK    1  A    between atoms: C_1  and  C_10
REMARK    2  A    between atoms: C_2  and  O_7
REMARK    3  A    between atoms: C_10  and  O_11
REMARK                            x       y       z     vdW  Elec       q    Type
REMARK                         _______ _______ _______ _____ _____    ______ ____
ROOT
ATOM      1  C   UNL     1      34.111 -21.529 -19.533  0.00  0.00    +0.076 C 
ATOM      2  C   UNL     1      35.537 -19.553 -20.891  0.00  0.00    +0.139 C 
ATOM      3  C   UNL     1      35.505 -21.536 -19.511  0.00  0.00    +0.010 C 
ATOM      4  C   UNL     1      33.429 -20.535 -20.235  0.00  0.00    +0.010 C 
ATOM      5  C   UNL     1      36.219 -20.548 -20.190  0.00  0.00    +0.037 C 
ATOM      6  C   UNL     1      34.142 -19.547 -20.914  0.00  0.00    +0.037 C 
ENDROOT
BRANCH   2   7
ATOM      7  O   UNL     1      36.233 -18.587 -21.553  0.00  0.00    -0.471 OA
ATOM      8  C   UNL     1      35.732 -18.183 -22.826  0.00  0.00    +0.252 C 
ENDBRANCH   2   7
BRANCH   1  10
ATOM      9  O   UNL     1      32.354 -22.371 -18.146  0.00  0.00    -0.245 OA
ATOM     10  C   UNL     1      33.367 -22.559 -18.826  0.00  0.00    +0.338 C 
BRANCH  10  11
ATOM     11  O   UNL     1      33.911 -23.797 -18.988  0.00  0.00    -0.477 OA
ATOM     12  H   UNL     1      34.538 -23.948 -19.667  0.00  0.00    +0.295 HD
ENDBRANCH  10  11
ENDBRANCH   1  10
TORSDOF 3
ENDMDL
MODEL 2
REMARK VINA RESULT:      -6.7      0.013      1.457
REMARK  Name = 7478
REMARK  3 active torsions:
REMARK  status: ('A' for Active; 'I' for Inactive)
REMARK    1  A    between atoms: C_1  and  C_10
REMARK    2  A    between atoms: C_2  and  O_7
REMARK    3  A    between atoms: C_10  and  O_11
REMARK                            x       y       z     vdW  Elec       q    Type
REMARK                         _______ _______ _______ _____ _____    ______ ____
ROOT
ATOM      1  C   UNL     1      34.106 -21.517 -19.537  0.00  0.00    +0.076 C 
ATOM      2  C   UNL     1      35.533 -19.543 -20.897  0.00  0.00    +0.139 C 
ATOM      3  C   UNL     1      33.425 -20.524 -20.240  0.00  0.00    +0.010 C 
ATOM      4  C   UNL     1      35.501 -21.523 -19.513  0.00  0.00    +0.010 C 
ATOM      5  C   UNL     1      34.138 -19.537 -20.920  0.00  0.00    +0.037 C 
ATOM      6  C   UNL     1      36.215 -20.536 -20.193  0.00  0.00    +0.037 C 
ENDROOT
BRANCH   2   7
ATOM      7  O   UNL     1      36.230 -18.581 -21.562  0.00  0.00    -0.471 OA
ATOM      8  C   UNL     1      35.727 -18.176 -22.834  0.00  0.00    +0.252 C 
ENDBRANCH   2   7
BRANCH   1  10
ATOM      9  O   UNL     1      32.346 -22.358 -18.153  0.00  0.00    -0.245 OA
ATOM     10  C   UNL     1      33.362 -22.546 -18.828  0.00  0.00    +0.338 C 
BRANCH  10  11
ATOM     11  O   UNL     1      33.909 -23.784 -18.982  0.00  0.00    -0.477 OA
ATOM     12  H   UNL     1      33.932 -24.379 -18.260  0.00  0.00    +0.295 HD
ENDBRANCH  10  11
ENDBRANCH   1  10
TORSDOF 3
ENDMDL
MODEL 3
REMARK VINA RESULT:      -6.6      1.107      4.800
REMARK  Name = 7478
REMARK  3 active torsions:
REMARK  status: ('A' for Active; 'I' for Inactive)
REMARK    1  A    between atoms: C_1  and  C_10
REMARK    2  A    between atoms: C_2  and  O_7
REMARK    3  A    between atoms: C_10  and  O_11
REMARK                            x       y       z     vdW  Elec       q    Type
REMARK                         _______ _______ _______ _____ _____    ______ ____
ROOT
ATOM      1  C   UNL     1      34.727 -19.869 -20.685  0.00  0.00    +0.076 C 
ATOM      2  C   UNL     1      34.380 -22.158 -19.126  0.00  0.00    +0.139 C 
ATOM      3  C   UNL     1      33.443 -20.297 -20.351  0.00  0.00    +0.010 C 
ATOM      4  C   UNL     1      35.838 -20.587 -20.240  0.00  0.00    +0.010 C 
ATOM      5  C   UNL     1      33.268 -21.441 -19.572  0.00  0.00    +0.037 C 
ATOM      6  C   UNL     1      35.665 -21.730 -19.461  0.00  0.00    +0.037 C 
ENDROOT
BRANCH   2   7
ATOM      7  O   UNL     1      34.210 -23.274 -18.365  0.00  0.00    -0.471 OA
ATOM      8  C   UNL     1      33.181 -23.237 -17.378  0.00  0.00    +0.252 C 
ENDBRANCH   2   7
BRANCH   1  10
ATOM      9  O   UNL     1      34.665 -18.589 -22.704  0.00  0.00    -0.245 OA
ATOM     10  C   UNL     1      34.909 -18.677 -21.496  0.00  0.00    +0.338 C 
BRANCH  10  11
ATOM     11  O   UNL     1      35.389 -17.625 -20.777  0.00  0.00    -0.477 OA
ATOM     12  H   UNL     1      35.585 -16.815 -21.205  0.00  0.00    +0.295 HD
ENDBRANCH  10  11
ENDBRANCH   1  10
TORSDOF 3
ENDMDL
MODEL 4
REMARK VINA RESULT:      -6.6      1.101      4.597
REMARK  Name = 7478
REMARK  3 active torsions:
REMARK  status: ('A' for Active; 'I' for Inactive)
REMARK    1  A    between atoms: C_1  and  C_10
REMARK    2  A    between atoms: C_2  and  O_7
REMARK    3  A    between atoms: C_10  and  O_11
REMARK                            x       y       z     vdW  Elec       q    Type
REMARK                         _______ _______ _______ _____ _____    ______ ____
ROOT
ATOM      1  C   UNL     1      34.752 -19.876 -20.692  0.00  0.00    +0.076 C 
ATOM      2  C   UNL     1      34.380 -22.153 -19.123  0.00  0.00    +0.139 C 
ATOM      3  C   UNL     1      35.856 -20.592 -20.228  0.00  0.00    +0.010 C 
ATOM      4  C   UNL     1      33.462 -20.298 -20.370  0.00  0.00    +0.010 C 
ATOM      5  C   UNL     1      35.670 -21.730 -19.444  0.00  0.00    +0.037 C 
ATOM      6  C   UNL     1      33.275 -21.436 -19.586  0.00  0.00    +0.037 C 
ENDROOT
BRANCH   2   7
ATOM      7  O   UNL     1      34.197 -23.265 -18.359  0.00  0.00    -0.471 OA
ATOM      8  C   UNL     1      33.149 -23.224 -17.393  0.00  0.00    +0.252 C 
ENDBRANCH   2   7
BRANCH   1  10
ATOM      9  O   UNL     1      34.746 -18.617 -22.725  0.00  0.00    -0.245 OA
ATOM     10  C   UNL     1      34.946 -18.689 -21.509  0.00  0.00    +0.338 C 
BRANCH  10  11
ATOM     11  O   UNL     1      35.385 -17.623 -20.784  0.00  0.00    -0.477 OA
ATOM     12  H   UNL     1      34.791 -17.160 -20.226  0.00  0.00    +0.295 HD
ENDBRANCH  10  11
ENDBRANCH   1  10
TORSDOF 3
ENDMDL
MODEL 5
REMARK VINA RESULT:      -6.5      4.179      5.932
REMARK  Name = 7478
REMARK  3 active torsions:
REMARK  status: ('A' for Active; 'I' for Inactive)
REMARK    1  A    between atoms: C_1  and  C_10
REMARK    2  A    between atoms: C_2  and  O_7
REMARK    3  A    between atoms: C_10  and  O_11
REMARK                            x       y       z     vdW  Elec       q    Type
REMARK                         _______ _______ _______ _____ _____    ______ ____
ROOT
ATOM      1  C   UNL     1      34.850 -16.860 -22.457  0.00  0.00    +0.076 C 
ATOM      2  C   UNL     1      34.113 -16.127 -25.046  0.00  0.00    +0.139 C 
ATOM      3  C   UNL     1      35.032 -17.752 -23.513  0.00  0.00    +0.010 C 
ATOM      4  C   UNL     1      34.299 -15.600 -22.696  0.00  0.00    +0.010 C 
ATOM      5  C   UNL     1      34.663 -17.387 -24.807  0.00  0.00    +0.037 C 
ATOM      6  C   UNL     1      33.931 -15.234 -23.990  0.00  0.00    +0.037 C 
ENDROOT
BRANCH   2   7
ATOM      7  O   UNL     1      33.754 -15.769 -26.310  0.00  0.00    -0.471 OA
ATOM      8  C   UNL     1      32.885 -14.646 -26.445  0.00  0.00    +0.252 C 
ENDBRANCH   2   7
BRANCH   1  10
ATOM      9  O   UNL     1      35.677 -18.345 -20.774  0.00  0.00    -0.245 OA
ATOM     10  C   UNL     1      35.234 -17.241 -21.108  0.00  0.00    +0.338 C 
BRANCH  10  11
ATOM     11  O   UNL     1      35.055 -16.232 -20.211  0.00  0.00    -0.477 OA
ATOM     12  H   UNL     1      35.793 -15.747 -19.899  0.00  0.00    +0.295 HD
ENDBRANCH  10  11
ENDBRANCH   1  10
TORSDOF 3
ENDMDL
MODEL 6
REMARK VINA RESULT:      -6.4      2.732      4.714
REMARK  Name = 7478
REMARK  3 active torsions:
REMARK  status: ('A' for Active; 'I' for Inactive)
REMARK    1  A    between atoms: C_1  and  C_10
REMARK    2  A    between atoms: C_2  and  O_7
REMARK    3  A    between atoms: C_10  and  O_11
REMARK                            x       y       z     vdW  Elec       q    Type
REMARK                         _______ _______ _______ _____ _____    ______ ____
ROOT
ATOM      1  C   UNL     1      35.030 -18.528 -22.374  0.00  0.00    +0.076 C 
ATOM      2  C   UNL     1      34.635 -17.113 -24.746  0.00  0.00    +0.139 C 
ATOM      3  C   UNL     1      35.137 -17.137 -22.383  0.00  0.00    +0.010 C 
ATOM      4  C   UNL     1      34.726 -19.211 -23.552  0.00  0.00    +0.010 C 
ATOM      5  C   UNL     1      34.940 -16.430 -23.568  0.00  0.00    +0.037 C 
ATOM      6  C   UNL     1      34.528 -18.505 -24.737  0.00  0.00    +0.037 C 
ENDROOT
BRANCH   2   7
ATOM      7  O   UNL     1      34.441 -16.423 -25.904  0.00  0.00    -0.471 OA
ATOM      8  C   UNL     1      33.443 -15.405 -25.893  0.00  0.00    +0.252 C 
ENDBRANCH   2   7
BRANCH   1  10
ATOM      9  O   UNL     1      34.446 -20.079 -20.650  0.00  0.00    -0.245 OA
ATOM     10  C   UNL     1      35.236 -19.265 -21.138  0.00  0.00    +0.338 C 
BRANCH  10  11
ATOM     11  O   UNL     1      36.425 -18.966 -20.545  0.00  0.00    -0.477 OA
ATOM     12  H   UNL     1      36.513 -18.180 -20.042  0.00  0.00    +0.295 HD
ENDBRANCH  10  11
ENDBRANCH   1  10
TORSDOF 3
ENDMDL
MODEL 7
REMARK VINA RESULT:      -6.3      2.754      4.712
REMARK  Name = 7478
REMARK  3 active torsions:
REMARK  status: ('A' for Active; 'I' for Inactive)
REMARK    1  A    between atoms: C_1  and  C_10
REMARK    2  A    between atoms: C_2  and  O_7
REMARK    3  A    between atoms: C_10  and  O_11
REMARK                            x       y       z     vdW  Elec       q    Type
REMARK                         _______ _______ _______ _____ _____    ______ ____
ROOT
ATOM      1  C   UNL     1      35.011 -18.479 -22.356  0.00  0.00    +0.076 C 
ATOM      2  C   UNL     1      34.617 -17.086 -24.741  0.00  0.00    +0.139 C 
ATOM      3  C   UNL     1      34.739 -19.175 -23.534  0.00  0.00    +0.010 C 
ATOM      4  C   UNL     1      35.086 -17.086 -22.371  0.00  0.00    +0.010 C 
ATOM      5  C   UNL     1      34.542 -18.479 -24.726  0.00  0.00    +0.037 C 
ATOM      6  C   UNL     1      34.888 -16.389 -23.563  0.00  0.00    +0.037 C 
ENDROOT
BRANCH   2   7
ATOM      7  O   UNL     1      34.425 -16.406 -25.905  0.00  0.00    -0.471 OA
ATOM      8  C   UNL     1      33.441 -15.373 -25.899  0.00  0.00    +0.252 C 
ENDBRANCH   2   7
BRANCH   1  10
ATOM      9  O   UNL     1      34.403 -19.971 -20.589  0.00  0.00    -0.245 OA
ATOM     10  C   UNL     1      35.217 -19.205 -21.113  0.00  0.00    +0.338 C 
BRANCH  10  11
ATOM     11  O   UNL     1      36.436 -18.955 -20.560  0.00  0.00    -0.477 OA
ATOM     12  H   UNL     1      37.039 -19.657 -20.417  0.00  0.00    +0.295 HD
ENDBRANCH  10  11
ENDBRANCH   1  10
TORSDOF 3
ENDMDL
MODEL 8
REMARK VINA RESULT:      -6.3      6.898      7.981
REMARK  Name = 7478
REMARK  3 active torsions:
REMARK  status: ('A' for Active; 'I' for Inactive)
REMARK    1  A    between atoms: C_1  and  C_10
REMARK    2  A    between atoms: C_2  and  O_7
REMARK    3  A    between atoms: C_10  and  O_11
REMARK                            x       y       z     vdW  Elec       q    Type
REMARK                         _______ _______ _______ _____ _____    ______ ____
ROOT
ATOM      1  C   UNL     1      29.256 -23.494 -16.111  0.00  0.00    +0.076 C 
ATOM      2  C   UNL     1      31.306 -24.507 -14.512  0.00  0.00    +0.139 C 
ATOM      3  C   UNL     1      30.488 -22.843 -16.061  0.00  0.00    +0.010 C 
ATOM      4  C   UNL     1      29.048 -24.651 -15.360  0.00  0.00    +0.010 C 
ATOM      5  C   UNL     1      31.513 -23.349 -15.262  0.00  0.00    +0.037 C 
ATOM      6  C   UNL     1      30.073 -25.158 -14.561  0.00  0.00    +0.037 C 
ENDROOT
BRANCH   2   7
ATOM      7  O   UNL     1      32.306 -25.003 -13.733  0.00  0.00    -0.471 OA
ATOM      8  C   UNL     1      33.534 -24.277 -13.712  0.00  0.00    +0.252 C 
ENDBRANCH   2   7
BRANCH   1  10
ATOM      9  O   UNL     1      27.838 -21.783 -16.994  0.00  0.00    -0.245 OA
ATOM     10  C   UNL     1      28.187 -22.966 -16.943  0.00  0.00    +0.338 C 
BRANCH  10  11
ATOM     11  O   UNL     1      27.585 -23.931 -17.691  0.00  0.00    -0.477 OA
ATOM     12  H   UNL     1      28.093 -24.635 -18.044  0.00  0.00    +0.295 HD
ENDBRANCH  10  11
ENDBRANCH   1  10
TORSDOF 3
ENDMDL
MODEL 9
REMARK VINA RESULT:      -6.1      2.770      6.061
REMARK  Name = 7478
REMARK  3 active torsions:
REMARK  status: ('A' for Active; 'I' for Inactive)
REMARK    1  A    between atoms: C_1  and  C_10
REMARK    2  A    between atoms: C_2  and  O_7
REMARK    3  A    between atoms: C_10  and  O_11
REMARK                            x       y       z     vdW  Elec       q    Type
REMARK                         _______ _______ _______ _____ _____    ______ ____
ROOT
ATOM      1  C   UNL     1      34.618 -16.895 -23.602  0.00  0.00    +0.076 C 
ATOM      2  C   UNL     1      35.484 -18.464 -21.463  0.00  0.00    +0.139 C 
ATOM      3  C   UNL     1      34.661 -16.358 -22.315  0.00  0.00    +0.010 C 
ATOM      4  C   UNL     1      35.008 -18.217 -23.819  0.00  0.00    +0.010 C 
ATOM      5  C   UNL     1      35.093 -17.142 -21.246  0.00  0.00    +0.037 C 
ATOM      6  C   UNL     1      35.441 -19.001 -22.750  0.00  0.00    +0.037 C 
ENDROOT
BRANCH   2   7
ATOM      7  O   UNL     1      35.907 -19.229 -20.420  0.00  0.00    -0.471 OA
ATOM      8  C   UNL     1      35.338 -20.532 -20.297  0.00  0.00    +0.252 C 
ENDBRANCH   2   7
BRANCH   1  10
ATOM      9  O   UNL     1      33.465 -15.066 -24.624  0.00  0.00    -0.245 OA
ATOM     10  C   UNL     1      34.168 -16.077 -24.716  0.00  0.00    +0.338 C 
BRANCH  10  11
ATOM     11  O   UNL     1      34.607 -16.546 -25.917  0.00  0.00    -0.477 OA
ATOM     12  H   UNL     1      34.830 -17.451 -26.014  0.00  0.00    +0.295 HD
ENDBRANCH  10  11
ENDBRANCH   1  10
TORSDOF 3
ENDMDL
