MODEL 1
REMARK VINA RESULT:      -9.6      0.000      0.000
REMARK  Name = 23653530
REMARK  8 active torsions:
REMARK  status: ('A' for Active; 'I' for Inactive)
REMARK    1  A    between atoms: C_3  and  C_11
REMARK    2  A    between atoms: C_4  and  O_23
REMARK    3  A    between atoms: N_10  and  C_14
REMARK    4  A    between atoms: C_13  and  O_19
REMARK    5  A    between atoms: O_19  and  C_20
REMARK    6  A    between atoms: O_23  and  C_24
REMARK    7  A    between atoms: C_24  and  C_25
REMARK    8  A    between atoms: C_25  and  N_26
REMARK                            x       y       z     vdW  Elec       q    Type
REMARK                         _______ _______ _______ _____ _____    ______ ____
ROOT
ATOM      1 CL   UNL     1      32.982  -9.973 -24.234  0.00  0.00    -0.079 Cl
ATOM      2 CL   UNL     1      30.821 -10.470 -19.270  0.00  0.00    -0.079 Cl
ATOM      3  C   UNL     1      32.468 -13.092 -21.792  0.00  0.00    +0.056 C 
ATOM      4  C   UNL     1      31.930 -10.355 -21.753  0.00  0.00    +0.159 C 
ATOM      5  C   UNL     1      32.814 -12.298 -22.885  0.00  0.00    +0.019 C 
ATOM      6  C   UNL     1      31.854 -12.519 -20.680  0.00  0.00    +0.019 C 
ATOM      7  C   UNL     1      32.545 -10.929 -22.866  0.00  0.00    +0.093 C 
ATOM      8  C   UNL     1      31.584 -11.150 -20.660  0.00  0.00    +0.093 C 
ENDROOT
BRANCH   3  11
ATOM      9  O   UNL     1      31.923 -15.304 -21.324  0.00  0.00    -0.270 OA
ATOM     10  N   UNL     1      33.960 -14.895 -22.416  0.00  0.00    -0.280 N 
ATOM     11  C   UNL     1      32.752 -14.519 -21.811  0.00  0.00    +0.250 C 
ATOM     12  H   UNL     1      34.515 -14.157 -22.757  0.00  0.00    +0.155 HD
BRANCH  10  14
ATOM     13  C   UNL     1      35.385 -18.218 -21.677  0.00  0.00    +0.140 C 
ATOM     14  C   UNL     1      34.484 -16.198 -22.602  0.00  0.00    +0.054 C 
ATOM     15  C   UNL     1      34.866 -16.936 -21.495  0.00  0.00    +0.052 C 
ATOM     16  C   UNL     1      35.513 -18.742 -22.964  0.00  0.00    +0.037 C 
ATOM     17  C   UNL     1      34.604 -16.702 -23.885  0.00  0.00    +0.015 C 
ATOM     18  C   UNL     1      35.122 -17.984 -24.067  0.00  0.00    +0.004 C 
BRANCH  13  19
ATOM     19  O   UNL     1      35.766 -18.958 -20.600  0.00  0.00    -0.479 OA
BRANCH  19  20
ATOM     20  C   UNL     1      35.421 -20.342 -20.608  0.00  0.00    +0.166 C 
ATOM     21  C   UNL     1      36.372 -21.100 -19.694  0.00  0.00    +0.047 C 
ATOM     22  C   UNL     1      33.972 -20.499 -20.174  0.00  0.00    +0.047 C 
ENDBRANCH  19  20
ENDBRANCH  13  19
ENDBRANCH  10  14
ENDBRANCH   3  11
BRANCH   4  23
ATOM     23  O   UNL     1      31.666  -9.016 -21.734  0.00  0.00    -0.476 OA
BRANCH  23  24
ATOM     24  C   UNL     1      32.723  -8.156 -21.319  0.00  0.00    +0.182 C 
BRANCH  24  25
ATOM     25  C   UNL     1      32.173  -7.155 -20.316  0.00  0.00    -0.038 C 
BRANCH  25  26
ATOM     26  N   UNL     1      31.853  -5.895 -20.970  0.00  0.00    +0.383 N 
ATOM     27  H   UNL     1      32.668  -5.562 -21.484  0.00  0.00    -0.089 HD
ATOM     28  H   UNL     1      31.588  -5.205 -20.268  0.00  0.00    -0.089 HD
ATOM     29  H   UNL     1      31.078  -6.035 -21.618  0.00  0.00    -0.089 HD
ENDBRANCH  25  26
ENDBRANCH  24  25
ENDBRANCH  23  24
ENDBRANCH   4  23
TORSDOF 8
ENDMDL
MODEL 2
REMARK VINA RESULT:      -9.6      0.057      1.817
REMARK  Name = 23653530
REMARK  8 active torsions:
REMARK  status: ('A' for Active; 'I' for Inactive)
REMARK    1  A    between atoms: C_3  and  C_11
REMARK    2  A    between atoms: C_4  and  O_23
REMARK    3  A    between atoms: N_10  and  C_14
REMARK    4  A    between atoms: C_13  and  O_19
REMARK    5  A    between atoms: O_19  and  C_20
REMARK    6  A    between atoms: O_23  and  C_24
REMARK    7  A    between atoms: C_24  and  C_25
REMARK    8  A    between atoms: C_25  and  N_26
REMARK                            x       y       z     vdW  Elec       q    Type
REMARK                         _______ _______ _______ _____ _____    ______ ____
ROOT
ATOM      1 CL   UNL     1      30.823 -10.421 -19.271  0.00  0.00    -0.079 Cl
ATOM      2 CL   UNL     1      32.987  -9.922 -24.234  0.00  0.00    -0.079 Cl
ATOM      3  C   UNL     1      32.466 -13.043 -21.797  0.00  0.00    +0.056 C 
ATOM      4  C   UNL     1      31.930 -10.306 -21.755  0.00  0.00    +0.159 C 
ATOM      5  C   UNL     1      31.852 -12.470 -20.684  0.00  0.00    +0.019 C 
ATOM      6  C   UNL     1      32.812 -12.248 -22.889  0.00  0.00    +0.019 C 
ATOM      7  C   UNL     1      31.583 -11.101 -20.663  0.00  0.00    +0.093 C 
ATOM      8  C   UNL     1      32.545 -10.879 -22.868  0.00  0.00    +0.093 C 
ENDROOT
BRANCH   3  11
ATOM      9  O   UNL     1      31.905 -15.255 -21.351  0.00  0.00    -0.270 OA
ATOM     10  N   UNL     1      33.957 -14.849 -22.413  0.00  0.00    -0.280 N 
ATOM     11  C   UNL     1      32.743 -14.471 -21.821  0.00  0.00    +0.250 C 
ATOM     12  H   UNL     1      34.521 -14.111 -22.742  0.00  0.00    +0.155 HD
BRANCH  10  14
ATOM     13  C   UNL     1      35.358 -18.183 -21.676  0.00  0.00    +0.140 C 
ATOM     14  C   UNL     1      34.479 -16.153 -22.599  0.00  0.00    +0.054 C 
ATOM     15  C   UNL     1      34.842 -16.900 -21.493  0.00  0.00    +0.052 C 
ATOM     16  C   UNL     1      35.500 -18.700 -22.964  0.00  0.00    +0.037 C 
ATOM     17  C   UNL     1      34.613 -16.650 -23.884  0.00  0.00    +0.015 C 
ATOM     18  C   UNL     1      35.127 -17.933 -24.068  0.00  0.00    +0.004 C 
BRANCH  13  19
ATOM     19  O   UNL     1      35.721 -18.931 -20.599  0.00  0.00    -0.479 OA
BRANCH  19  20
ATOM     20  C   UNL     1      35.381 -20.316 -20.625  0.00  0.00    +0.166 C 
ATOM     21  C   UNL     1      36.352 -21.086 -19.743  0.00  0.00    +0.047 C 
ATOM     22  C   UNL     1      33.941 -20.487 -20.167  0.00  0.00    +0.047 C 
ENDBRANCH  19  20
ENDBRANCH  13  19
ENDBRANCH  10  14
ENDBRANCH   3  11
BRANCH   4  23
ATOM     23  O   UNL     1      31.668  -8.966 -21.734  0.00  0.00    -0.476 OA
BRANCH  23  24
ATOM     24  C   UNL     1      32.731  -8.108 -21.330  0.00  0.00    +0.182 C 
BRANCH  24  25
ATOM     25  C   UNL     1      32.186  -7.088 -20.342  0.00  0.00    -0.038 C 
BRANCH  25  26
ATOM     26  N   UNL     1      31.730  -5.893 -21.036  0.00  0.00    +0.383 N 
ATOM     27  H   UNL     1      30.925  -6.124 -21.618  0.00  0.00    -0.089 HD
ATOM     28  H   UNL     1      32.482  -5.533 -21.623  0.00  0.00    -0.089 HD
ATOM     29  H   UNL     1      31.462  -5.185 -20.354  0.00  0.00    -0.089 HD
ENDBRANCH  25  26
ENDBRANCH  24  25
ENDBRANCH  23  24
ENDBRANCH   4  23
TORSDOF 8
ENDMDL
MODEL 3
REMARK VINA RESULT:      -9.3      5.756     10.418
REMARK  Name = 23653530
REMARK  8 active torsions:
REMARK  status: ('A' for Active; 'I' for Inactive)
REMARK    1  A    between atoms: C_3  and  C_11
REMARK    2  A    between atoms: C_4  and  O_23
REMARK    3  A    between atoms: N_10  and  C_14
REMARK    4  A    between atoms: C_13  and  O_19
REMARK    5  A    between atoms: O_19  and  C_20
REMARK    6  A    between atoms: O_23  and  C_24
REMARK    7  A    between atoms: C_24  and  C_25
REMARK    8  A    between atoms: C_25  and  N_26
REMARK                            x       y       z     vdW  Elec       q    Type
REMARK                         _______ _______ _______ _____ _____    ______ ____
ROOT
ATOM      1 CL   UNL     1      37.389 -22.161 -17.555  0.00  0.00    -0.079 Cl
ATOM      2 CL   UNL     1      32.165 -23.541 -16.949  0.00  0.00    -0.079 Cl
ATOM      3  C   UNL     1      34.071 -21.191 -19.556  0.00  0.00    +0.056 C 
ATOM      4  C   UNL     1      34.744 -22.775 -17.360  0.00  0.00    +0.159 C 
ATOM      5  C   UNL     1      35.399 -21.280 -19.142  0.00  0.00    +0.019 C 
ATOM      6  C   UNL     1      33.079 -21.893 -18.873  0.00  0.00    +0.019 C 
ATOM      7  C   UNL     1      35.737 -22.072 -18.044  0.00  0.00    +0.093 C 
ATOM      8  C   UNL     1      33.415 -22.686 -17.775  0.00  0.00    +0.093 C 
ENDROOT
BRANCH   3  11
ATOM      9  O   UNL     1      32.532 -20.304 -21.058  0.00  0.00    -0.270 OA
ATOM     10  N   UNL     1      34.779 -19.677 -21.308  0.00  0.00    -0.280 N 
ATOM     11  C   UNL     1      33.719 -20.367 -20.702  0.00  0.00    +0.250 C 
ATOM     12  H   UNL     1      35.668 -19.827 -20.913  0.00  0.00    +0.155 HD
BRANCH  10  14
ATOM     13  C   UNL     1      34.682 -16.554 -23.271  0.00  0.00    +0.140 C 
ATOM     14  C   UNL     1      34.737 -18.791 -22.412  0.00  0.00    +0.054 C 
ATOM     15  C   UNL     1      34.726 -17.426 -22.184  0.00  0.00    +0.052 C 
ATOM     16  C   UNL     1      34.653 -17.060 -24.571  0.00  0.00    +0.037 C 
ATOM     17  C   UNL     1      34.708 -19.311 -23.695  0.00  0.00    +0.015 C 
ATOM     18  C   UNL     1      34.665 -18.439 -24.782  0.00  0.00    +0.004 C 
BRANCH  13  19
ATOM     19  O   UNL     1      34.670 -15.208 -23.065  0.00  0.00    -0.479 OA
BRANCH  19  20
ATOM     20  C   UNL     1      33.450 -14.521 -23.337  0.00  0.00    +0.166 C 
ATOM     21  C   UNL     1      32.650 -14.393 -22.050  0.00  0.00    +0.047 C 
ATOM     22  C   UNL     1      33.765 -13.163 -23.946  0.00  0.00    +0.047 C 
ENDBRANCH  19  20
ENDBRANCH  13  19
ENDBRANCH  10  14
ENDBRANCH   3  11
BRANCH   4  23
ATOM     23  O   UNL     1      35.074 -23.550 -16.286  0.00  0.00    -0.476 OA
BRANCH  23  24
ATOM     24  C   UNL     1      35.243 -22.883 -15.038  0.00  0.00    +0.182 C 
BRANCH  24  25
ATOM     25  C   UNL     1      35.093 -23.899 -13.917  0.00  0.00    -0.038 C 
BRANCH  25  26
ATOM     26  N   UNL     1      34.203 -24.979 -14.318  0.00  0.00    +0.383 N 
ATOM     27  H   UNL     1      33.235 -24.691 -14.179  0.00  0.00    -0.089 HD
ATOM     28  H   UNL     1      34.396 -25.806 -13.754  0.00  0.00    -0.089 HD
ATOM     29  H   UNL     1      34.353 -25.196 -15.303  0.00  0.00    -0.089 HD
ENDBRANCH  25  26
ENDBRANCH  24  25
ENDBRANCH  23  24
ENDBRANCH   4  23
TORSDOF 8
ENDMDL
MODEL 4
REMARK VINA RESULT:      -9.3      5.775     10.538
REMARK  Name = 23653530
REMARK  8 active torsions:
REMARK  status: ('A' for Active; 'I' for Inactive)
REMARK    1  A    between atoms: C_3  and  C_11
REMARK    2  A    between atoms: C_4  and  O_23
REMARK    3  A    between atoms: N_10  and  C_14
REMARK    4  A    between atoms: C_13  and  O_19
REMARK    5  A    between atoms: O_19  and  C_20
REMARK    6  A    between atoms: O_23  and  C_24
REMARK    7  A    between atoms: C_24  and  C_25
REMARK    8  A    between atoms: C_25  and  N_26
REMARK                            x       y       z     vdW  Elec       q    Type
REMARK                         _______ _______ _______ _____ _____    ______ ____
ROOT
ATOM      1 CL   UNL     1      32.204 -23.631 -16.919  0.00  0.00    -0.079 Cl
ATOM      2 CL   UNL     1      37.409 -22.167 -17.492  0.00  0.00    -0.079 Cl
ATOM      3  C   UNL     1      34.084 -21.225 -19.494  0.00  0.00    +0.056 C 
ATOM      4  C   UNL     1      34.773 -22.819 -17.311  0.00  0.00    +0.159 C 
ATOM      5  C   UNL     1      33.100 -21.949 -18.821  0.00  0.00    +0.019 C 
ATOM      6  C   UNL     1      35.412 -21.298 -19.075  0.00  0.00    +0.019 C 
ATOM      7  C   UNL     1      33.444 -22.746 -17.729  0.00  0.00    +0.093 C 
ATOM      8  C   UNL     1      35.757 -22.096 -17.984  0.00  0.00    +0.093 C 
ENDROOT
BRANCH   3  11
ATOM      9  O   UNL     1      32.533 -20.311 -20.967  0.00  0.00    -0.270 OA
ATOM     10  N   UNL     1      34.784 -19.710 -21.249  0.00  0.00    -0.280 N 
ATOM     11  C   UNL     1      33.725 -20.391 -20.630  0.00  0.00    +0.250 C 
ATOM     12  H   UNL     1      35.677 -19.874 -20.868  0.00  0.00    +0.155 HD
BRANCH  10  14
ATOM     13  C   UNL     1      34.664 -16.576 -23.193  0.00  0.00    +0.140 C 
ATOM     14  C   UNL     1      34.736 -18.818 -22.348  0.00  0.00    +0.054 C 
ATOM     15  C   UNL     1      34.714 -17.454 -22.111  0.00  0.00    +0.052 C 
ATOM     16  C   UNL     1      34.640 -17.073 -24.495  0.00  0.00    +0.037 C 
ATOM     17  C   UNL     1      34.712 -19.330 -23.633  0.00  0.00    +0.015 C 
ATOM     18  C   UNL     1      34.664 -18.451 -24.715  0.00  0.00    +0.004 C 
BRANCH  13  19
ATOM     19  O   UNL     1      34.641 -15.232 -22.978  0.00  0.00    -0.479 OA
BRANCH  19  20
ATOM     20  C   UNL     1      33.440 -14.540 -23.318  0.00  0.00    +0.166 C 
ATOM     21  C   UNL     1      32.579 -14.391 -22.074  0.00  0.00    +0.047 C 
ATOM     22  C   UNL     1      33.794 -13.193 -23.928  0.00  0.00    +0.047 C 
ENDBRANCH  19  20
ENDBRANCH  13  19
ENDBRANCH  10  14
ENDBRANCH   3  11
BRANCH   4  23
ATOM     23  O   UNL     1      35.109 -23.601 -16.243  0.00  0.00    -0.476 OA
BRANCH  23  24
ATOM     24  C   UNL     1      35.219 -22.952 -14.979  0.00  0.00    +0.182 C 
BRANCH  24  25
ATOM     25  C   UNL     1      35.088 -23.996 -13.882  0.00  0.00    -0.038 C 
BRANCH  25  26
ATOM     26  N   UNL     1      34.104 -25.004 -14.246  0.00  0.00    +0.383 N 
ATOM     27  H   UNL     1      34.315 -25.366 -15.176  0.00  0.00    -0.089 HD
ATOM     28  H   UNL     1      33.174 -24.587 -14.247  0.00  0.00    -0.089 HD
ATOM     29  H   UNL     1      34.133 -25.768 -13.571  0.00  0.00    -0.089 HD
ENDBRANCH  25  26
ENDBRANCH  24  25
ENDBRANCH  23  24
ENDBRANCH   4  23
TORSDOF 8
ENDMDL
MODEL 5
REMARK VINA RESULT:      -9.1      3.190      9.352
REMARK  Name = 23653530
REMARK  8 active torsions:
REMARK  status: ('A' for Active; 'I' for Inactive)
REMARK    1  A    between atoms: C_3  and  C_11
REMARK    2  A    between atoms: C_4  and  O_23
REMARK    3  A    between atoms: N_10  and  C_14
REMARK    4  A    between atoms: C_13  and  O_19
REMARK    5  A    between atoms: O_19  and  C_20
REMARK    6  A    between atoms: O_23  and  C_24
REMARK    7  A    between atoms: C_24  and  C_25
REMARK    8  A    between atoms: C_25  and  N_26
REMARK                            x       y       z     vdW  Elec       q    Type
REMARK                         _______ _______ _______ _____ _____    ______ ____
ROOT
ATOM      1 CL   UNL     1      34.221 -17.653 -25.356  0.00  0.00    -0.079 Cl
ATOM      2 CL   UNL     1      34.699 -15.690 -20.309  0.00  0.00    -0.079 Cl
ATOM      3  C   UNL     1      34.035 -13.960 -23.847  0.00  0.00    +0.056 C 
ATOM      4  C   UNL     1      34.439 -16.545 -22.879  0.00  0.00    +0.159 C 
ATOM      5  C   UNL     1      34.030 -15.042 -24.726  0.00  0.00    +0.019 C 
ATOM      6  C   UNL     1      34.242 -14.170 -22.484  0.00  0.00    +0.019 C 
ATOM      7  C   UNL     1      34.231 -16.335 -24.243  0.00  0.00    +0.093 C 
ATOM      8  C   UNL     1      34.444 -15.463 -22.000  0.00  0.00    +0.093 C 
ENDROOT
BRANCH   3  11
ATOM      9  O   UNL     1      33.460 -12.458 -25.527  0.00  0.00    -0.270 OA
ATOM     10  N   UNL     1      34.025 -11.574 -23.428  0.00  0.00    -0.280 N 
ATOM     11  C   UNL     1      33.822 -12.611 -24.350  0.00  0.00    +0.250 C 
ATOM     12  H   UNL     1      34.312 -11.853 -22.528  0.00  0.00    +0.155 HD
BRANCH  10  14
ATOM     13  C   UNL     1      32.595  -8.175 -23.308  0.00  0.00    +0.140 C 
ATOM     14  C   UNL     1      33.870 -10.180 -23.622  0.00  0.00    +0.054 C 
ATOM     15  C   UNL     1      32.749  -9.548 -23.115  0.00  0.00    +0.052 C 
ATOM     16  C   UNL     1      33.567  -7.455 -24.002  0.00  0.00    +0.037 C 
ATOM     17  C   UNL     1      34.845  -9.482 -24.314  0.00  0.00    +0.015 C 
ATOM     18  C   UNL     1      34.692  -8.109 -24.505  0.00  0.00    +0.004 C 
BRANCH  13  19
ATOM     19  O   UNL     1      31.497  -7.537 -22.817  0.00  0.00    -0.479 OA
BRANCH  19  20
ATOM     20  C   UNL     1      31.723  -6.373 -22.023  0.00  0.00    +0.166 C 
ATOM     21  C   UNL     1      30.484  -5.493 -22.063  0.00  0.00    +0.047 C 
ATOM     22  C   UNL     1      32.073  -6.795 -20.604  0.00  0.00    +0.047 C 
ENDBRANCH  19  20
ENDBRANCH  13  19
ENDBRANCH  10  14
ENDBRANCH   3  11
BRANCH   4  23
ATOM     23  O   UNL     1      34.637 -17.811 -22.406  0.00  0.00    -0.476 OA
BRANCH  23  24
ATOM     24  C   UNL     1      35.978 -18.291 -22.394  0.00  0.00    +0.182 C 
BRANCH  24  25
ATOM     25  C   UNL     1      36.264 -18.904 -21.032  0.00  0.00    -0.038 C 
BRANCH  25  26
ATOM     26  N   UNL     1      35.119 -19.667 -20.561  0.00  0.00    +0.383 N 
ATOM     27  H   UNL     1      34.261 -19.252 -20.923  0.00  0.00    -0.089 HD
ATOM     28  H   UNL     1      35.098 -19.656 -19.542  0.00  0.00    -0.089 HD
ATOM     29  H   UNL     1      35.194 -20.630 -20.889  0.00  0.00    -0.089 HD
ENDBRANCH  25  26
ENDBRANCH  24  25
ENDBRANCH  23  24
ENDBRANCH   4  23
TORSDOF 8
ENDMDL
MODEL 6
REMARK VINA RESULT:      -9.1      3.034      5.058
REMARK  Name = 23653530
REMARK  8 active torsions:
REMARK  status: ('A' for Active; 'I' for Inactive)
REMARK    1  A    between atoms: C_3  and  C_11
REMARK    2  A    between atoms: C_4  and  O_23
REMARK    3  A    between atoms: N_10  and  C_14
REMARK    4  A    between atoms: C_13  and  O_19
REMARK    5  A    between atoms: O_19  and  C_20
REMARK    6  A    between atoms: O_23  and  C_24
REMARK    7  A    between atoms: C_24  and  C_25
REMARK    8  A    between atoms: C_25  and  N_26
REMARK                            x       y       z     vdW  Elec       q    Type
REMARK                         _______ _______ _______ _____ _____    ______ ____
ROOT
ATOM      1 CL   UNL     1      32.330 -12.860 -21.341  0.00  0.00    -0.079 Cl
ATOM      2 CL   UNL     1      33.861 -15.551 -25.810  0.00  0.00    -0.079 Cl
ATOM      3  C   UNL     1      34.157 -16.365 -21.912  0.00  0.00    +0.056 C 
ATOM      4  C   UNL     1      33.143 -14.307 -23.499  0.00  0.00    +0.159 C 
ATOM      5  C   UNL     1      33.563 -15.253 -21.316  0.00  0.00    +0.019 C 
ATOM      6  C   UNL     1      34.244 -16.448 -23.301  0.00  0.00    +0.019 C 
ATOM      7  C   UNL     1      33.056 -14.223 -22.109  0.00  0.00    +0.093 C 
ATOM      8  C   UNL     1      33.737 -15.419 -24.095  0.00  0.00    +0.093 C 
ENDROOT
BRANCH   3  11
ATOM      9  O   UNL     1      35.569 -17.183 -20.254  0.00  0.00    -0.270 OA
ATOM     10  N   UNL     1      34.110 -18.704 -21.286  0.00  0.00    -0.280 N 
ATOM     11  C   UNL     1      34.683 -17.440 -21.085  0.00  0.00    +0.250 C 
ATOM     12  H   UNL     1      33.416 -18.752 -21.983  0.00  0.00    +0.155 HD
BRANCH  10  14
ATOM     13  C   UNL     1      33.652 -21.815 -19.355  0.00  0.00    +0.140 C 
ATOM     14  C   UNL     1      34.398 -19.919 -20.619  0.00  0.00    +0.054 C 
ATOM     15  C   UNL     1      33.368 -20.619 -20.014  0.00  0.00    +0.052 C 
ATOM     16  C   UNL     1      34.961 -22.294 -19.311  0.00  0.00    +0.037 C 
ATOM     17  C   UNL     1      35.703 -20.379 -20.585  0.00  0.00    +0.015 C 
ATOM     18  C   UNL     1      35.987 -21.575 -19.926  0.00  0.00    +0.004 C 
BRANCH  13  19
ATOM     19  O   UNL     1      32.651 -22.515 -18.754  0.00  0.00    -0.479 OA
BRANCH  19  20
ATOM     20  C   UNL     1      32.644 -22.545 -17.328  0.00  0.00    +0.166 C 
ATOM     21  C   UNL     1      31.232 -22.830 -16.841  0.00  0.00    +0.047 C 
ATOM     22  C   UNL     1      33.633 -23.594 -16.844  0.00  0.00    +0.047 C 
ENDBRANCH  19  20
ENDBRANCH  13  19
ENDBRANCH  10  14
ENDBRANCH   3  11
BRANCH   4  23
ATOM     23  O   UNL     1      32.647 -13.299 -24.275  0.00  0.00    -0.476 OA
BRANCH  23  24
ATOM     24  C   UNL     1      33.597 -12.442 -24.902  0.00  0.00    +0.182 C 
BRANCH  24  25
ATOM     25  C   UNL     1      33.558 -11.085 -24.217  0.00  0.00    -0.038 C 
BRANCH  25  26
ATOM     26  N   UNL     1      34.869 -10.455 -24.251  0.00  0.00    +0.383 N 
ATOM     27  H   UNL     1      35.175 -10.256 -23.298  0.00  0.00    -0.089 HD
ATOM     28  H   UNL     1      34.815  -9.584 -24.779  0.00  0.00    -0.089 HD
ATOM     29  H   UNL     1      35.537 -11.082 -24.697  0.00  0.00    -0.089 HD
ENDBRANCH  25  26
ENDBRANCH  24  25
ENDBRANCH  23  24
ENDBRANCH   4  23
TORSDOF 8
ENDMDL
MODEL 7
REMARK VINA RESULT:      -8.8      1.890      2.336
REMARK  Name = 23653530
REMARK  8 active torsions:
REMARK  status: ('A' for Active; 'I' for Inactive)
REMARK    1  A    between atoms: C_3  and  C_11
REMARK    2  A    between atoms: C_4  and  O_23
REMARK    3  A    between atoms: N_10  and  C_14
REMARK    4  A    between atoms: C_13  and  O_19
REMARK    5  A    between atoms: O_19  and  C_20
REMARK    6  A    between atoms: O_23  and  C_24
REMARK    7  A    between atoms: C_24  and  C_25
REMARK    8  A    between atoms: C_25  and  N_26
REMARK                            x       y       z     vdW  Elec       q    Type
REMARK                         _______ _______ _______ _____ _____    ______ ____
ROOT
ATOM      1 CL   UNL     1      34.282  -7.753 -23.978  0.00  0.00    -0.079 Cl
ATOM      2 CL   UNL     1      30.972 -10.463 -20.623  0.00  0.00    -0.079 Cl
ATOM      3  C   UNL     1      33.285 -11.608 -23.670  0.00  0.00    +0.056 C 
ATOM      4  C   UNL     1      32.659  -9.225 -22.363  0.00  0.00    +0.159 C 
ATOM      5  C   UNL     1      33.863 -10.411 -24.089  0.00  0.00    +0.019 C 
ATOM      6  C   UNL     1      32.393 -11.614 -22.598  0.00  0.00    +0.019 C 
ATOM      7  C   UNL     1      33.551  -9.219 -23.436  0.00  0.00    +0.093 C 
ATOM      8  C   UNL     1      32.080 -10.423 -21.944  0.00  0.00    +0.093 C 
ENDROOT
BRANCH   3  11
ATOM      9  O   UNL     1      33.726 -12.852 -25.585  0.00  0.00    -0.270 OA
ATOM     10  N   UNL     1      33.802 -13.969 -23.523  0.00  0.00    -0.280 N 
ATOM     11  C   UNL     1      33.613 -12.852 -24.350  0.00  0.00    +0.250 C 
ATOM     12  H   UNL     1      33.677 -13.814 -22.559  0.00  0.00    +0.155 HD
BRANCH  10  14
ATOM     13  C   UNL     1      35.290 -17.345 -23.413  0.00  0.00    +0.140 C 
ATOM     14  C   UNL     1      34.151 -15.291 -23.894  0.00  0.00    +0.054 C 
ATOM     15  C   UNL     1      34.945 -16.044 -23.047  0.00  0.00    +0.052 C 
ATOM     16  C   UNL     1      34.834 -17.874 -24.620  0.00  0.00    +0.037 C 
ATOM     17  C   UNL     1      33.689 -15.800 -25.096  0.00  0.00    +0.015 C 
ATOM     18  C   UNL     1      34.033 -17.101 -25.462  0.00  0.00    +0.004 C 
BRANCH  13  19
ATOM     19  O   UNL     1      36.071 -18.099 -22.592  0.00  0.00    -0.479 OA
BRANCH  19  20
ATOM     20  C   UNL     1      35.482 -18.558 -21.376  0.00  0.00    +0.166 C 
ATOM     21  C   UNL     1      34.209 -19.327 -21.696  0.00  0.00    +0.047 C 
ATOM     22  C   UNL     1      36.489 -19.416 -20.625  0.00  0.00    +0.047 C 
ENDBRANCH  19  20
ENDBRANCH  13  19
ENDBRANCH  10  14
ENDBRANCH   3  11
BRANCH   4  23
ATOM     23  O   UNL     1      32.352  -8.058 -21.724  0.00  0.00    -0.476 OA
BRANCH  23  24
ATOM     24  C   UNL     1      31.386  -7.217 -22.347  0.00  0.00    +0.182 C 
BRANCH  24  25
ATOM     25  C   UNL     1      31.610  -5.787 -21.881  0.00  0.00    -0.038 C 
BRANCH  25  26
ATOM     26  N   UNL     1      30.362  -5.040 -21.893  0.00  0.00    +0.383 N 
ATOM     27  H   UNL     1      30.557  -4.053 -22.056  0.00  0.00    -0.089 HD
ATOM     28  H   UNL     1      29.890  -5.150 -20.996  0.00  0.00    -0.089 HD
ATOM     29  H   UNL     1      29.761  -5.393 -22.638  0.00  0.00    -0.089 HD
ENDBRANCH  25  26
ENDBRANCH  24  25
ENDBRANCH  23  24
ENDBRANCH   4  23
TORSDOF 8
ENDMDL
MODEL 8
REMARK VINA RESULT:      -8.5      3.607     10.256
REMARK  Name = 23653530
REMARK  8 active torsions:
REMARK  status: ('A' for Active; 'I' for Inactive)
REMARK    1  A    between atoms: C_3  and  C_11
REMARK    2  A    between atoms: C_4  and  O_23
REMARK    3  A    between atoms: N_10  and  C_14
REMARK    4  A    between atoms: C_13  and  O_19
REMARK    5  A    between atoms: O_19  and  C_20
REMARK    6  A    between atoms: O_23  and  C_24
REMARK    7  A    between atoms: C_24  and  C_25
REMARK    8  A    between atoms: C_25  and  N_26
REMARK                            x       y       z     vdW  Elec       q    Type
REMARK                         _______ _______ _______ _____ _____    ______ ____
ROOT
ATOM      1 CL   UNL     1      33.469 -13.849 -27.469  0.00  0.00    -0.079 Cl
ATOM      2 CL   UNL     1      33.435 -15.182 -22.199  0.00  0.00    -0.079 Cl
ATOM      3  C   UNL     1      33.577 -11.681 -24.116  0.00  0.00    +0.056 C 
ATOM      4  C   UNL     1      33.456 -14.383 -24.800  0.00  0.00    +0.159 C 
ATOM      5  C   UNL     1      33.555 -12.061 -25.458  0.00  0.00    +0.019 C 
ATOM      6  C   UNL     1      33.539 -12.652 -23.117  0.00  0.00    +0.019 C 
ATOM      7  C   UNL     1      33.494 -13.411 -25.801  0.00  0.00    +0.093 C 
ATOM      8  C   UNL     1      33.479 -14.004 -23.458  0.00  0.00    +0.093 C 
ENDROOT
BRANCH   3  11
ATOM      9  O   UNL     1      34.715  -9.668 -23.871  0.00  0.00    -0.270 OA
ATOM     10  N   UNL     1      32.432  -9.698 -23.331  0.00  0.00    -0.280 N 
ATOM     11  C   UNL     1      33.638 -10.272 -23.759  0.00  0.00    +0.250 C 
ATOM     12  H   UNL     1      31.659 -10.306 -23.293  0.00  0.00    +0.155 HD
BRANCH  10  14
ATOM     13  C   UNL     1      31.404  -6.157 -23.493  0.00  0.00    +0.140 C 
ATOM     14  C   UNL     1      32.183  -8.357 -22.946  0.00  0.00    +0.054 C 
ATOM     15  C   UNL     1      31.648  -7.478 -23.871  0.00  0.00    +0.052 C 
ATOM     16  C   UNL     1      31.697  -5.737 -22.195  0.00  0.00    +0.037 C 
ATOM     17  C   UNL     1      32.479  -7.959 -21.654  0.00  0.00    +0.015 C 
ATOM     18  C   UNL     1      32.234  -6.639 -21.276  0.00  0.00    +0.004 C 
BRANCH  13  19
ATOM     19  O   UNL     1      30.880  -5.278 -24.390  0.00  0.00    -0.479 OA
BRANCH  19  20
ATOM     20  C   UNL     1      31.734  -4.232 -24.850  0.00  0.00    +0.166 C 
ATOM     21  C   UNL     1      32.579  -4.747 -26.004  0.00  0.00    +0.047 C 
ATOM     22  C   UNL     1      30.886  -3.036 -25.256  0.00  0.00    +0.047 C 
ENDBRANCH  19  20
ENDBRANCH  13  19
ENDBRANCH  10  14
ENDBRANCH   3  11
BRANCH   4  23
ATOM     23  O   UNL     1      33.397 -15.706 -25.136  0.00  0.00    -0.476 OA
BRANCH  23  24
ATOM     24  C   UNL     1      34.639 -16.388 -25.286  0.00  0.00    +0.182 C 
BRANCH  24  25
ATOM     25  C   UNL     1      34.542 -17.736 -24.588  0.00  0.00    -0.038 C 
BRANCH  25  26
ATOM     26  N   UNL     1      35.679 -17.938 -23.703  0.00  0.00    +0.383 N 
ATOM     27  H   UNL     1      35.938 -18.925 -23.702  0.00  0.00    -0.089 HD
ATOM     28  H   UNL     1      35.428 -17.652 -22.757  0.00  0.00    -0.089 HD
ATOM     29  H   UNL     1      36.468 -17.382 -24.029  0.00  0.00    -0.089 HD
ENDBRANCH  25  26
ENDBRANCH  24  25
ENDBRANCH  23  24
ENDBRANCH   4  23
TORSDOF 8
ENDMDL
MODEL 9
REMARK VINA RESULT:      -8.5      2.205      3.175
REMARK  Name = 23653530
REMARK  8 active torsions:
REMARK  status: ('A' for Active; 'I' for Inactive)
REMARK    1  A    between atoms: C_3  and  C_11
REMARK    2  A    between atoms: C_4  and  O_23
REMARK    3  A    between atoms: N_10  and  C_14
REMARK    4  A    between atoms: C_13  and  O_19
REMARK    5  A    between atoms: O_19  and  C_20
REMARK    6  A    between atoms: O_23  and  C_24
REMARK    7  A    between atoms: C_24  and  C_25
REMARK    8  A    between atoms: C_25  and  N_26
REMARK                            x       y       z     vdW  Elec       q    Type
REMARK                         _______ _______ _______ _____ _____    ______ ____
ROOT
ATOM      1 CL   UNL     1      33.521  -7.089 -24.492  0.00  0.00    -0.079 Cl
ATOM      2 CL   UNL     1      31.610  -8.073 -19.498  0.00  0.00    -0.079 Cl
ATOM      3  C   UNL     1      32.505 -10.447 -22.582  0.00  0.00    +0.056 C 
ATOM      4  C   UNL     1      32.564  -7.714 -22.021  0.00  0.00    +0.159 C 
ATOM      5  C   UNL     1      32.944  -9.545 -23.551  0.00  0.00    +0.019 C 
ATOM      6  C   UNL     1      32.096  -9.982 -21.333  0.00  0.00    +0.019 C 
ATOM      7  C   UNL     1      32.974  -8.179 -23.271  0.00  0.00    +0.093 C 
ATOM      8  C   UNL     1      32.125  -8.616 -21.052  0.00  0.00    +0.093 C 
ENDROOT
BRANCH   3  11
ATOM      9  O   UNL     1      31.640 -12.587 -22.301  0.00  0.00    -0.270 OA
ATOM     10  N   UNL     1      33.410 -12.322 -23.819  0.00  0.00    -0.280 N 
ATOM     11  C   UNL     1      32.477 -11.872 -22.873  0.00  0.00    +0.250 C 
ATOM     12  H   UNL     1      34.011 -11.634 -24.186  0.00  0.00    +0.155 HD
BRANCH  10  14
ATOM     13  C   UNL     1      34.534 -15.828 -24.065  0.00  0.00    +0.140 C 
ATOM     14  C   UNL     1      33.598 -13.635 -24.315  0.00  0.00    +0.054 C 
ATOM     15  C   UNL     1      34.346 -14.535 -23.576  0.00  0.00    +0.052 C 
ATOM     16  C   UNL     1      33.970 -16.201 -25.285  0.00  0.00    +0.037 C 
ATOM     17  C   UNL     1      33.031 -13.988 -25.527  0.00  0.00    +0.015 C 
ATOM     18  C   UNL     1      33.219 -15.281 -26.016  0.00  0.00    +0.004 C 
BRANCH  13  19
ATOM     19  O   UNL     1      35.268 -16.725 -23.351  0.00  0.00    -0.479 OA
BRANCH  19  20
ATOM     20  C   UNL     1      34.574 -17.505 -22.379  0.00  0.00    +0.166 C 
ATOM     21  C   UNL     1      34.902 -18.975 -22.589  0.00  0.00    +0.047 C 
ATOM     22  C   UNL     1      34.961 -17.031 -20.987  0.00  0.00    +0.047 C 
ENDBRANCH  19  20
ENDBRANCH  13  19
ENDBRANCH  10  14
ENDBRANCH   3  11
BRANCH   4  23
ATOM     23  O   UNL     1      32.592  -6.377 -21.747  0.00  0.00    -0.476 OA
BRANCH  23  24
ATOM     24  C   UNL     1      31.340  -5.698 -21.723  0.00  0.00    +0.182 C 
BRANCH  24  25
ATOM     25  C   UNL     1      31.340  -4.636 -22.811  0.00  0.00    -0.038 C 
BRANCH  25  26
ATOM     26  N   UNL     1      30.444  -3.544 -22.463  0.00  0.00    +0.383 N 
ATOM     27  H   UNL     1      30.120  -3.084 -23.314  0.00  0.00    -0.089 HD
ATOM     28  H   UNL     1      30.939  -2.869 -21.880  0.00  0.00    -0.089 HD
ATOM     29  H   UNL     1      29.642  -3.911 -21.951  0.00  0.00    -0.089 HD
ENDBRANCH  25  26
ENDBRANCH  24  25
ENDBRANCH  23  24
ENDBRANCH   4  23
TORSDOF 8
ENDMDL
