MODEL 1
REMARK VINA RESULT:      -8.2      0.000      0.000
REMARK  Name = 5288476
REMARK  11 active torsions:
REMARK  status: ('A' for Active; 'I' for Inactive)
REMARK    1  A    between atoms: S_1  and  P_2
REMARK    2  A    between atoms: S_1  and  C_13
REMARK    3  A    between atoms: P_2  and  O_4
REMARK    4  A    between atoms: P_2  and  O_6
REMARK    5  A    between atoms: O_6  and  P_7
REMARK    6  A    between atoms: P_7  and  O_9
REMARK    7  A    between atoms: P_7  and  O_11
REMARK    8  A    between atoms: C_13  and  C_15
REMARK    9  A    between atoms: C_14  and  C_17
REMARK   10  A    between atoms: C_17  and  C_18
REMARK   11  A    between atoms: C_18  and  C_19
REMARK                            x       y       z     vdW  Elec       q    Type
REMARK                         _______ _______ _______ _____ _____    ______ ____
ROOT
ATOM      1  S   UNL     1      36.450 -25.413 -13.001  0.00  0.00    -0.026 S 
ENDROOT
BRANCH   1   2
ATOM      2  P   UNL     1      37.346 -26.018 -14.794  0.00  0.00    +0.398 P 
ATOM      3  O   UNL     1      36.431 -26.906 -15.593  0.00  0.00    -0.246 OA
BRANCH   2   4
ATOM      4  O   UNL     1      37.808 -24.702 -15.625  0.00  0.00    -0.316 OA
ATOM      5  H   UNL     1      38.314 -24.114 -15.043  0.00  0.00    +0.221 HD
ENDBRANCH   2   4
BRANCH   2   6
ATOM      6  O   UNL     1      38.772 -26.717 -14.470  0.00  0.00    -0.200 OA
BRANCH   6   7
ATOM      7  P   UNL     1      40.276 -26.130 -14.496  0.00  0.00    +0.480 P 
ATOM      8  O   UNL     1      41.301 -26.966 -13.788  0.00  0.00    -0.227 OA
BRANCH   7   9
ATOM      9  O   UNL     1      40.555 -25.883 -16.069  0.00  0.00    -0.302 OA
ATOM     10  H   UNL     1      41.391 -26.306 -16.319  0.00  0.00    +0.222 HD
ENDBRANCH   7   9
BRANCH   7  11
ATOM     11  O   UNL     1      40.104 -24.632 -13.913  0.00  0.00    -0.302 OA
ATOM     12  H   UNL     1      39.927 -24.674 -12.959  0.00  0.00    +0.222 HD
ENDBRANCH   7  11
ENDBRANCH   6   7
ENDBRANCH   2   6
ENDBRANCH   1   2
BRANCH   1  13
ATOM     13  C   UNL     1      35.864 -23.727 -13.314  0.00  0.00    +0.094 C 
BRANCH  13  15
ATOM     14  C   UNL     1      34.706 -23.138 -15.516  0.00  0.00    -0.047 C 
ATOM     15  C   UNL     1      34.753 -23.752 -14.317  0.00  0.00    -0.022 C 
ATOM     16  C   UNL     1      35.798 -22.266 -16.076  0.00  0.00    +0.026 C 
BRANCH  14  17
ATOM     17  C   UNL     1      33.494 -23.315 -16.411  0.00  0.00    +0.026 C 
BRANCH  17  18
ATOM     18  C   UNL     1      33.831 -23.371 -17.907  0.00  0.00    +0.030 C 
BRANCH  18  19
ATOM     19  C   UNL     1      33.184 -22.257 -18.684  0.00  0.00    -0.034 C 
ATOM     20  C   UNL     1      33.768 -21.376 -19.518  0.00  0.00    -0.048 C 
ATOM     21  C   UNL     1      33.059 -20.282 -20.265  0.00  0.00    +0.026 C 
ATOM     22  C   UNL     1      35.251 -21.442 -19.776  0.00  0.00    +0.026 C 
ENDBRANCH  18  19
ENDBRANCH  17  18
ENDBRANCH  14  17
ENDBRANCH  13  15
ENDBRANCH   1  13
TORSDOF 11
ENDMDL
MODEL 2
REMARK VINA RESULT:      -8.1      1.401      2.583
REMARK  Name = 5288476
REMARK  11 active torsions:
REMARK  status: ('A' for Active; 'I' for Inactive)
REMARK    1  A    between atoms: S_1  and  P_2
REMARK    2  A    between atoms: S_1  and  C_13
REMARK    3  A    between atoms: P_2  and  O_4
REMARK    4  A    between atoms: P_2  and  O_6
REMARK    5  A    between atoms: O_6  and  P_7
REMARK    6  A    between atoms: P_7  and  O_9
REMARK    7  A    between atoms: P_7  and  O_11
REMARK    8  A    between atoms: C_13  and  C_15
REMARK    9  A    between atoms: C_14  and  C_17
REMARK   10  A    between atoms: C_17  and  C_18
REMARK   11  A    between atoms: C_18  and  C_19
REMARK                            x       y       z     vdW  Elec       q    Type
REMARK                         _______ _______ _______ _____ _____    ______ ____
ROOT
ATOM      1  S   UNL     1      36.221 -25.179 -14.997  0.00  0.00    -0.026 S 
ENDROOT
BRANCH   1   2
ATOM      2  P   UNL     1      37.590 -25.564 -13.462  0.00  0.00    +0.398 P 
ATOM      3  O   UNL     1      37.975 -24.302 -12.740  0.00  0.00    -0.246 OA
BRANCH   2   4
ATOM      4  O   UNL     1      36.965 -26.680 -12.463  0.00  0.00    -0.316 OA
ATOM      5  H   UNL     1      36.072 -26.915 -12.759  0.00  0.00    +0.221 HD
ENDBRANCH   2   4
BRANCH   2   6
ATOM      6  O   UNL     1      38.869 -26.352 -14.072  0.00  0.00    -0.200 OA
BRANCH   6   7
ATOM      7  P   UNL     1      40.340 -25.833 -14.490  0.00  0.00    +0.480 P 
ATOM      8  O   UNL     1      40.729 -24.497 -13.928  0.00  0.00    -0.227 OA
BRANCH   7   9
ATOM      9  O   UNL     1      41.303 -27.062 -14.076  0.00  0.00    -0.302 OA
ATOM     10  H   UNL     1      40.964 -27.884 -14.465  0.00  0.00    +0.222 HD
ENDBRANCH   7   9
BRANCH   7  11
ATOM     11  O   UNL     1      40.318 -25.908 -16.105  0.00  0.00    -0.302 OA
ATOM     12  H   UNL     1      40.945 -25.262 -16.467  0.00  0.00    +0.222 HD
ENDBRANCH   7  11
ENDBRANCH   6   7
ENDBRANCH   2   6
ENDBRANCH   1   2
BRANCH   1  13
ATOM     13  C   UNL     1      35.850 -23.409 -14.864  0.00  0.00    +0.094 C 
BRANCH  13  15
ATOM     14  C   UNL     1      35.701 -22.424 -17.218  0.00  0.00    -0.047 C 
ATOM     15  C   UNL     1      36.361 -22.690 -16.073  0.00  0.00    -0.022 C 
ATOM     16  C   UNL     1      34.282 -22.833 -17.505  0.00  0.00    +0.026 C 
BRANCH  14  17
ATOM     17  C   UNL     1      36.389 -21.647 -18.325  0.00  0.00    +0.026 C 
BRANCH  17  18
ATOM     18  C   UNL     1      35.724 -21.806 -19.699  0.00  0.00    +0.030 C 
BRANCH  18  19
ATOM     19  C   UNL     1      35.518 -20.487 -20.393  0.00  0.00    -0.034 C 
ATOM     20  C   UNL     1      34.357 -19.852 -20.643  0.00  0.00    -0.048 C 
ATOM     21  C   UNL     1      34.222 -18.531 -21.346  0.00  0.00    +0.026 C 
ATOM     22  C   UNL     1      33.050 -20.454 -20.200  0.00  0.00    +0.026 C 
ENDBRANCH  18  19
ENDBRANCH  17  18
ENDBRANCH  14  17
ENDBRANCH  13  15
ENDBRANCH   1  13
TORSDOF 11
ENDMDL
MODEL 3
REMARK VINA RESULT:      -8.1      1.628      2.180
REMARK  Name = 5288476
REMARK  11 active torsions:
REMARK  status: ('A' for Active; 'I' for Inactive)
REMARK    1  A    between atoms: S_1  and  P_2
REMARK    2  A    between atoms: S_1  and  C_13
REMARK    3  A    between atoms: P_2  and  O_4
REMARK    4  A    between atoms: P_2  and  O_6
REMARK    5  A    between atoms: O_6  and  P_7
REMARK    6  A    between atoms: P_7  and  O_9
REMARK    7  A    between atoms: P_7  and  O_11
REMARK    8  A    between atoms: C_13  and  C_15
REMARK    9  A    between atoms: C_14  and  C_17
REMARK   10  A    between atoms: C_17  and  C_18
REMARK   11  A    between atoms: C_18  and  C_19
REMARK                            x       y       z     vdW  Elec       q    Type
REMARK                         _______ _______ _______ _____ _____    ______ ____
ROOT
ATOM      1  S   UNL     1      36.626 -23.675 -13.979  0.00  0.00    -0.026 S 
ENDROOT
BRANCH   1   2
ATOM      2  P   UNL     1      37.538 -25.030 -12.671  0.00  0.00    +0.398 P 
ATOM      3  O   UNL     1      37.517 -24.524 -11.254  0.00  0.00    -0.246 OA
BRANCH   2   4
ATOM      4  O   UNL     1      36.817 -26.477 -12.820  0.00  0.00    -0.316 OA
ATOM      5  H   UNL     1      36.985 -27.005 -12.024  0.00  0.00    +0.221 HD
ENDBRANCH   2   4
BRANCH   2   6
ATOM      6  O   UNL     1      39.036 -25.356 -13.198  0.00  0.00    -0.200 OA
BRANCH   6   7
ATOM      7  P   UNL     1      39.588 -25.745 -14.664  0.00  0.00    +0.480 P 
ATOM      8  O   UNL     1      40.871 -26.522 -14.679  0.00  0.00    -0.227 OA
BRANCH   7   9
ATOM      9  O   UNL     1      38.327 -26.481 -15.357  0.00  0.00    -0.302 OA
ATOM     10  H   UNL     1      38.462 -26.520 -16.317  0.00  0.00    +0.222 HD
ENDBRANCH   7   9
BRANCH   7  11
ATOM     11  O   UNL     1      39.650 -24.321 -15.430  0.00  0.00    -0.302 OA
ATOM     12  H   UNL     1      39.724 -24.471 -16.386  0.00  0.00    +0.222 HD
ENDBRANCH   7  11
ENDBRANCH   6   7
ENDBRANCH   2   6
ENDBRANCH   1   2
BRANCH   1  13
ATOM     13  C   UNL     1      34.858 -24.068 -13.906  0.00  0.00    +0.094 C 
BRANCH  13  15
ATOM     14  C   UNL     1      32.916 -23.436 -15.444  0.00  0.00    -0.047 C 
ATOM     15  C   UNL     1      34.209 -23.738 -15.214  0.00  0.00    -0.022 C 
ATOM     16  C   UNL     1      31.845 -23.392 -14.389  0.00  0.00    +0.026 C 
BRANCH  14  17
ATOM     17  C   UNL     1      32.456 -23.095 -16.850  0.00  0.00    +0.026 C 
BRANCH  17  18
ATOM     18  C   UNL     1      33.590 -23.075 -17.884  0.00  0.00    +0.030 C 
BRANCH  18  19
ATOM     19  C   UNL     1      33.402 -22.003 -18.922  0.00  0.00    -0.034 C 
ATOM     20  C   UNL     1      34.349 -21.305 -19.578  0.00  0.00    -0.048 C 
ATOM     21  C   UNL     1      34.090 -20.243 -20.608  0.00  0.00    +0.026 C 
ATOM     22  C   UNL     1      35.808 -21.568 -19.313  0.00  0.00    +0.026 C 
ENDBRANCH  18  19
ENDBRANCH  17  18
ENDBRANCH  14  17
ENDBRANCH  13  15
ENDBRANCH   1  13
TORSDOF 11
ENDMDL
MODEL 4
REMARK VINA RESULT:      -8.0      2.708      4.334
REMARK  Name = 5288476
REMARK  11 active torsions:
REMARK  status: ('A' for Active; 'I' for Inactive)
REMARK    1  A    between atoms: S_1  and  P_2
REMARK    2  A    between atoms: S_1  and  C_13
REMARK    3  A    between atoms: P_2  and  O_4
REMARK    4  A    between atoms: P_2  and  O_6
REMARK    5  A    between atoms: O_6  and  P_7
REMARK    6  A    between atoms: P_7  and  O_9
REMARK    7  A    between atoms: P_7  and  O_11
REMARK    8  A    between atoms: C_13  and  C_15
REMARK    9  A    between atoms: C_14  and  C_17
REMARK   10  A    between atoms: C_17  and  C_18
REMARK   11  A    between atoms: C_18  and  C_19
REMARK                            x       y       z     vdW  Elec       q    Type
REMARK                         _______ _______ _______ _____ _____    ______ ____
ROOT
ATOM      1  S   UNL     1      37.395 -22.430 -16.226  0.00  0.00    -0.026 S 
ENDROOT
BRANCH   1   2
ATOM      2  P   UNL     1      36.840 -23.509 -14.521  0.00  0.00    +0.398 P 
ATOM      3  O   UNL     1      37.910 -23.456 -13.465  0.00  0.00    -0.246 OA
BRANCH   2   4
ATOM      4  O   UNL     1      35.414 -22.952 -13.982  0.00  0.00    -0.316 OA
ATOM      5  H   UNL     1      35.411 -22.956 -13.012  0.00  0.00    +0.221 HD
ENDBRANCH   2   4
BRANCH   2   6
ATOM      6  O   UNL     1      36.457 -25.025 -14.949  0.00  0.00    -0.200 OA
BRANCH   6   7
ATOM      7  P   UNL     1      37.322 -26.388 -14.929  0.00  0.00    +0.480 P 
ATOM      8  O   UNL     1      37.264 -27.163 -13.645  0.00  0.00    -0.227 OA
BRANCH   7   9
ATOM      9  O   UNL     1      36.802 -27.182 -16.237  0.00  0.00    -0.302 OA
ATOM     10  H   UNL     1      37.348 -27.972 -16.375  0.00  0.00    +0.222 HD
ENDBRANCH   7   9
BRANCH   7  11
ATOM     11  O   UNL     1      38.802 -25.898 -15.358  0.00  0.00    -0.302 OA
ATOM     12  H   UNL     1      39.437 -26.144 -14.667  0.00  0.00    +0.222 HD
ENDBRANCH   7  11
ENDBRANCH   6   7
ENDBRANCH   2   6
ENDBRANCH   1   2
BRANCH   1  13
ATOM     13  C   UNL     1      35.890 -22.334 -17.232  0.00  0.00    +0.094 C 
BRANCH  13  15
ATOM     14  C   UNL     1      35.305 -21.265 -19.479  0.00  0.00    -0.047 C 
ATOM     15  C   UNL     1      36.168 -21.571 -18.490  0.00  0.00    -0.022 C 
ATOM     16  C   UNL     1      33.855 -21.665 -19.507  0.00  0.00    +0.026 C 
BRANCH  14  17
ATOM     17  C   UNL     1      35.776 -20.448 -20.668  0.00  0.00    +0.026 C 
BRANCH  17  18
ATOM     18  C   UNL     1      34.797 -19.342 -21.087  0.00  0.00    +0.030 C 
BRANCH  18  19
ATOM     19  C   UNL     1      34.578 -19.302 -22.575  0.00  0.00    -0.034 C 
ATOM     20  C   UNL     1      34.792 -18.275 -23.419  0.00  0.00    -0.048 C 
ATOM     21  C   UNL     1      34.550 -18.301 -24.901  0.00  0.00    +0.026 C 
ATOM     22  C   UNL     1      35.325 -16.964 -22.902  0.00  0.00    +0.026 C 
ENDBRANCH  18  19
ENDBRANCH  17  18
ENDBRANCH  14  17
ENDBRANCH  13  15
ENDBRANCH   1  13
TORSDOF 11
ENDMDL
MODEL 5
REMARK VINA RESULT:      -8.0      2.687      3.528
REMARK  Name = 5288476
REMARK  11 active torsions:
REMARK  status: ('A' for Active; 'I' for Inactive)
REMARK    1  A    between atoms: S_1  and  P_2
REMARK    2  A    between atoms: S_1  and  C_13
REMARK    3  A    between atoms: P_2  and  O_4
REMARK    4  A    between atoms: P_2  and  O_6
REMARK    5  A    between atoms: O_6  and  P_7
REMARK    6  A    between atoms: P_7  and  O_9
REMARK    7  A    between atoms: P_7  and  O_11
REMARK    8  A    between atoms: C_13  and  C_15
REMARK    9  A    between atoms: C_14  and  C_17
REMARK   10  A    between atoms: C_17  and  C_18
REMARK   11  A    between atoms: C_18  and  C_19
REMARK                            x       y       z     vdW  Elec       q    Type
REMARK                         _______ _______ _______ _____ _____    ______ ____
ROOT
ATOM      1  S   UNL     1      36.033 -25.230 -15.019  0.00  0.00    -0.026 S 
ENDROOT
BRANCH   1   2
ATOM      2  P   UNL     1      37.332 -25.474 -13.396  0.00  0.00    +0.398 P 
ATOM      3  O   UNL     1      38.142 -26.735 -13.526  0.00  0.00    -0.246 OA
BRANCH   2   4
ATOM      4  O   UNL     1      38.265 -24.153 -13.262  0.00  0.00    -0.316 OA
ATOM      5  H   UNL     1      38.671 -23.955 -14.120  0.00  0.00    +0.221 HD
ENDBRANCH   2   4
BRANCH   2   6
ATOM      6  O   UNL     1      36.482 -25.414 -12.017  0.00  0.00    -0.200 OA
BRANCH   6   7
ATOM      7  P   UNL     1      36.001 -24.164 -11.116  0.00  0.00    +0.480 P 
ATOM      8  O   UNL     1      37.063 -23.148 -10.814  0.00  0.00    -0.227 OA
BRANCH   7   9
ATOM      9  O   UNL     1      34.714 -23.599 -11.914  0.00  0.00    -0.302 OA
ATOM     10  H   UNL     1      34.927 -22.735 -12.301  0.00  0.00    +0.222 HD
ENDBRANCH   7   9
BRANCH   7  11
ATOM     11  O   UNL     1      35.349 -24.869  -9.815  0.00  0.00    -0.302 OA
ATOM     12  H   UNL     1      36.050 -25.093  -9.183  0.00  0.00    +0.222 HD
ENDBRANCH   7  11
ENDBRANCH   6   7
ENDBRANCH   2   6
ENDBRANCH   1   2
BRANCH   1  13
ATOM     13  C   UNL     1      35.794 -23.439 -15.165  0.00  0.00    +0.094 C 
BRANCH  13  15
ATOM     14  C   UNL     1      33.568 -23.164 -16.391  0.00  0.00    -0.047 C 
ATOM     15  C   UNL     1      34.914 -23.137 -16.338  0.00  0.00    -0.022 C 
ATOM     16  C   UNL     1      32.671 -23.533 -15.240  0.00  0.00    +0.026 C 
BRANCH  14  17
ATOM     17  C   UNL     1      32.853 -22.791 -17.677  0.00  0.00    +0.026 C 
BRANCH  17  18
ATOM     18  C   UNL     1      33.789 -22.643 -18.884  0.00  0.00    +0.030 C 
BRANCH  18  19
ATOM     19  C   UNL     1      33.509 -21.397 -19.680  0.00  0.00    -0.034 C 
ATOM     20  C   UNL     1      34.394 -20.553 -20.243  0.00  0.00    -0.048 C 
ATOM     21  C   UNL     1      34.044 -19.321 -21.028  0.00  0.00    +0.026 C 
ATOM     22  C   UNL     1      35.873 -20.812 -20.124  0.00  0.00    +0.026 C 
ENDBRANCH  18  19
ENDBRANCH  17  18
ENDBRANCH  14  17
ENDBRANCH  13  15
ENDBRANCH   1  13
TORSDOF 11
ENDMDL
MODEL 6
REMARK VINA RESULT:      -7.9      2.590      4.100
REMARK  Name = 5288476
REMARK  11 active torsions:
REMARK  status: ('A' for Active; 'I' for Inactive)
REMARK    1  A    between atoms: S_1  and  P_2
REMARK    2  A    between atoms: S_1  and  C_13
REMARK    3  A    between atoms: P_2  and  O_4
REMARK    4  A    between atoms: P_2  and  O_6
REMARK    5  A    between atoms: O_6  and  P_7
REMARK    6  A    between atoms: P_7  and  O_9
REMARK    7  A    between atoms: P_7  and  O_11
REMARK    8  A    between atoms: C_13  and  C_15
REMARK    9  A    between atoms: C_14  and  C_17
REMARK   10  A    between atoms: C_17  and  C_18
REMARK   11  A    between atoms: C_18  and  C_19
REMARK                            x       y       z     vdW  Elec       q    Type
REMARK                         _______ _______ _______ _____ _____    ______ ____
ROOT
ATOM      1  S   UNL     1      37.295 -22.046 -16.234  0.00  0.00    -0.026 S 
ENDROOT
BRANCH   1   2
ATOM      2  P   UNL     1      37.387 -23.719 -14.980  0.00  0.00    +0.398 P 
ATOM      3  O   UNL     1      36.897 -23.395 -13.595  0.00  0.00    -0.246 OA
BRANCH   2   4
ATOM      4  O   UNL     1      36.555 -24.936 -15.658  0.00  0.00    -0.316 OA
ATOM      5  H   UNL     1      37.140 -25.699 -15.781  0.00  0.00    +0.221 HD
ENDBRANCH   2   4
BRANCH   2   6
ATOM      6  O   UNL     1      38.896 -24.312 -14.989  0.00  0.00    -0.200 OA
BRANCH   6   7
ATOM      7  P   UNL     1      39.535 -25.609 -14.271  0.00  0.00    +0.480 P 
ATOM      8  O   UNL     1      41.021 -25.754 -14.418  0.00  0.00    -0.227 OA
BRANCH   7   9
ATOM      9  O   UNL     1      39.001 -25.497 -12.749  0.00  0.00    -0.302 OA
ATOM     10  H   UNL     1      39.753 -25.548 -12.138  0.00  0.00    +0.222 HD
ENDBRANCH   7   9
BRANCH   7  11
ATOM     11  O   UNL     1      38.671 -26.835 -14.875  0.00  0.00    -0.302 OA
ATOM     12  H   UNL     1      38.791 -27.621 -14.319  0.00  0.00    +0.222 HD
ENDBRANCH   7  11
ENDBRANCH   6   7
ENDBRANCH   2   6
ENDBRANCH   1   2
BRANCH   1  13
ATOM     13  C   UNL     1      35.895 -22.364 -17.340  0.00  0.00    +0.094 C 
BRANCH  13  15
ATOM     14  C   UNL     1      35.086 -21.242 -19.490  0.00  0.00    -0.047 C 
ATOM     15  C   UNL     1      36.039 -21.552 -18.589  0.00  0.00    -0.022 C 
ATOM     16  C   UNL     1      33.652 -21.690 -19.409  0.00  0.00    +0.026 C 
BRANCH  14  17
ATOM     17  C   UNL     1      35.427 -20.371 -20.685  0.00  0.00    +0.026 C 
BRANCH  17  18
ATOM     18  C   UNL     1      34.216 -19.652 -21.293  0.00  0.00    +0.030 C 
BRANCH  18  19
ATOM     19  C   UNL     1      34.559 -18.280 -21.805  0.00  0.00    -0.034 C 
ATOM     20  C   UNL     1      34.802 -17.902 -23.075  0.00  0.00    -0.048 C 
ATOM     21  C   UNL     1      35.141 -16.508 -23.519  0.00  0.00    +0.026 C 
ATOM     22  C   UNL     1      34.735 -18.909 -24.193  0.00  0.00    +0.026 C 
ENDBRANCH  18  19
ENDBRANCH  17  18
ENDBRANCH  14  17
ENDBRANCH  13  15
ENDBRANCH   1  13
TORSDOF 11
ENDMDL
MODEL 7
REMARK VINA RESULT:      -7.8      3.008      4.545
REMARK  Name = 5288476
REMARK  11 active torsions:
REMARK  status: ('A' for Active; 'I' for Inactive)
REMARK    1  A    between atoms: S_1  and  P_2
REMARK    2  A    between atoms: S_1  and  C_13
REMARK    3  A    between atoms: P_2  and  O_4
REMARK    4  A    between atoms: P_2  and  O_6
REMARK    5  A    between atoms: O_6  and  P_7
REMARK    6  A    between atoms: P_7  and  O_9
REMARK    7  A    between atoms: P_7  and  O_11
REMARK    8  A    between atoms: C_13  and  C_15
REMARK    9  A    between atoms: C_14  and  C_17
REMARK   10  A    between atoms: C_17  and  C_18
REMARK   11  A    between atoms: C_18  and  C_19
REMARK                            x       y       z     vdW  Elec       q    Type
REMARK                         _______ _______ _______ _____ _____    ______ ____
ROOT
ATOM      1  S   UNL     1      37.067 -22.086 -15.880  0.00  0.00    -0.026 S 
ENDROOT
BRANCH   1   2
ATOM      2  P   UNL     1      37.576 -23.932 -15.035  0.00  0.00    +0.398 P 
ATOM      3  O   UNL     1      36.610 -25.009 -15.447  0.00  0.00    -0.246 OA
BRANCH   2   4
ATOM      4  O   UNL     1      39.107 -24.292 -15.433  0.00  0.00    -0.316 OA
ATOM      5  H   UNL     1      39.415 -25.036 -14.892  0.00  0.00    +0.221 HD
ENDBRANCH   2   4
BRANCH   2   6
ATOM      6  O   UNL     1      37.686 -23.770 -13.426  0.00  0.00    -0.200 OA
BRANCH   6   7
ATOM      7  P   UNL     1      36.673 -24.192 -12.241  0.00  0.00    +0.480 P 
ATOM      8  O   UNL     1      37.199 -23.994 -10.850  0.00  0.00    -0.227 OA
BRANCH   7   9
ATOM      9  O   UNL     1      35.325 -23.372 -12.591  0.00  0.00    -0.302 OA
ATOM     10  H   UNL     1      35.352 -23.085 -13.518  0.00  0.00    +0.222 HD
ENDBRANCH   7   9
BRANCH   7  11
ATOM     11  O   UNL     1      36.283 -25.718 -12.608  0.00  0.00    -0.302 OA
ATOM     12  H   UNL     1      35.317 -25.809 -12.627  0.00  0.00    +0.222 HD
ENDBRANCH   7  11
ENDBRANCH   6   7
ENDBRANCH   2   6
ENDBRANCH   1   2
BRANCH   1  13
ATOM     13  C   UNL     1      35.833 -22.475 -17.151  0.00  0.00    +0.094 C 
BRANCH  13  15
ATOM     14  C   UNL     1      35.282 -21.370 -19.390  0.00  0.00    -0.047 C 
ATOM     15  C   UNL     1      36.135 -21.711 -18.403  0.00  0.00    -0.022 C 
ATOM     16  C   UNL     1      33.821 -21.725 -19.421  0.00  0.00    +0.026 C 
BRANCH  14  17
ATOM     17  C   UNL     1      35.779 -20.558 -20.571  0.00  0.00    +0.026 C 
BRANCH  17  18
ATOM     18  C   UNL     1      34.832 -19.423 -20.984  0.00  0.00    +0.030 C 
BRANCH  18  19
ATOM     19  C   UNL     1      34.566 -19.405 -22.464  0.00  0.00    -0.034 C 
ATOM     20  C   UNL     1      34.784 -18.403 -23.337  0.00  0.00    -0.048 C 
ATOM     21  C   UNL     1      34.493 -18.453 -24.810  0.00  0.00    +0.026 C 
ATOM     22  C   UNL     1      35.377 -17.101 -22.867  0.00  0.00    +0.026 C 
ENDBRANCH  18  19
ENDBRANCH  17  18
ENDBRANCH  14  17
ENDBRANCH  13  15
ENDBRANCH   1  13
TORSDOF 11
ENDMDL
MODEL 8
REMARK VINA RESULT:      -7.5      2.322      3.874
REMARK  Name = 5288476
REMARK  11 active torsions:
REMARK  status: ('A' for Active; 'I' for Inactive)
REMARK    1  A    between atoms: S_1  and  P_2
REMARK    2  A    between atoms: S_1  and  C_13
REMARK    3  A    between atoms: P_2  and  O_4
REMARK    4  A    between atoms: P_2  and  O_6
REMARK    5  A    between atoms: O_6  and  P_7
REMARK    6  A    between atoms: P_7  and  O_9
REMARK    7  A    between atoms: P_7  and  O_11
REMARK    8  A    between atoms: C_13  and  C_15
REMARK    9  A    between atoms: C_14  and  C_17
REMARK   10  A    between atoms: C_17  and  C_18
REMARK   11  A    between atoms: C_18  and  C_19
REMARK                            x       y       z     vdW  Elec       q    Type
REMARK                         _______ _______ _______ _____ _____    ______ ____
ROOT
ATOM      1  S   UNL     1      35.278 -22.712 -15.985  0.00  0.00    -0.026 S 
ENDROOT
BRANCH   1   2
ATOM      2  P   UNL     1      35.685 -24.079 -14.453  0.00  0.00    +0.398 P 
ATOM      3  O   UNL     1      35.823 -23.389 -13.123  0.00  0.00    -0.246 OA
BRANCH   2   4
ATOM      4  O   UNL     1      34.528 -25.218 -14.439  0.00  0.00    -0.316 OA
ATOM      5  H   UNL     1      34.346 -25.482 -13.524  0.00  0.00    +0.221 HD
ENDBRANCH   2   4
BRANCH   2   6
ATOM      6  O   UNL     1      36.994 -24.950 -14.847  0.00  0.00    -0.200 OA
BRANCH   6   7
ATOM      7  P   UNL     1      37.239 -26.545 -14.893  0.00  0.00    +0.480 P 
ATOM      8  O   UNL     1      36.607 -27.255 -16.054  0.00  0.00    -0.227 OA
BRANCH   7   9
ATOM      9  O   UNL     1      38.846 -26.682 -14.794  0.00  0.00    -0.302 OA
ATOM     10  H   UNL     1      39.073 -27.368 -14.147  0.00  0.00    +0.222 HD
ENDBRANCH   7   9
BRANCH   7  11
ATOM     11  O   UNL     1      36.735 -27.043 -13.439  0.00  0.00    -0.302 OA
ATOM     12  H   UNL     1      36.658 -26.279 -12.845  0.00  0.00    +0.222 HD
ENDBRANCH   7  11
ENDBRANCH   6   7
ENDBRANCH   2   6
ENDBRANCH   1   2
BRANCH   1  13
ATOM     13  C   UNL     1      34.145 -23.580 -17.102  0.00  0.00    +0.094 C 
BRANCH  13  15
ATOM     14  C   UNL     1      34.029 -21.893 -19.020  0.00  0.00    -0.047 C 
ATOM     15  C   UNL     1      33.476 -22.598 -18.012  0.00  0.00    -0.022 C 
ATOM     16  C   UNL     1      35.479 -21.958 -19.416  0.00  0.00    +0.026 C 
BRANCH  14  17
ATOM     17  C   UNL     1      33.168 -20.964 -19.855  0.00  0.00    +0.026 C 
BRANCH  17  18
ATOM     18  C   UNL     1      33.928 -20.275 -20.996  0.00  0.00    +0.030 C 
BRANCH  18  19
ATOM     19  C   UNL     1      33.938 -18.777 -20.858  0.00  0.00    -0.034 C 
ATOM     20  C   UNL     1      34.867 -17.908 -21.300  0.00  0.00    -0.048 C 
ATOM     21  C   UNL     1      34.816 -16.417 -21.126  0.00  0.00    +0.026 C 
ATOM     22  C   UNL     1      36.078 -18.403 -22.046  0.00  0.00    +0.026 C 
ENDBRANCH  18  19
ENDBRANCH  17  18
ENDBRANCH  14  17
ENDBRANCH  13  15
ENDBRANCH   1  13
TORSDOF 11
ENDMDL
MODEL 9
REMARK VINA RESULT:      -7.4      2.715      3.972
REMARK  Name = 5288476
REMARK  11 active torsions:
REMARK  status: ('A' for Active; 'I' for Inactive)
REMARK    1  A    between atoms: S_1  and  P_2
REMARK    2  A    between atoms: S_1  and  C_13
REMARK    3  A    between atoms: P_2  and  O_4
REMARK    4  A    between atoms: P_2  and  O_6
REMARK    5  A    between atoms: O_6  and  P_7
REMARK    6  A    between atoms: P_7  and  O_9
REMARK    7  A    between atoms: P_7  and  O_11
REMARK    8  A    between atoms: C_13  and  C_15
REMARK    9  A    between atoms: C_14  and  C_17
REMARK   10  A    between atoms: C_17  and  C_18
REMARK   11  A    between atoms: C_18  and  C_19
REMARK                            x       y       z     vdW  Elec       q    Type
REMARK                         _______ _______ _______ _____ _____    ______ ____
ROOT
ATOM      1  S   UNL     1      35.305 -22.658 -15.751  0.00  0.00    -0.026 S 
ENDROOT
BRANCH   1   2
ATOM      2  P   UNL     1      36.383 -24.095 -14.677  0.00  0.00    +0.398 P 
ATOM      3  O   UNL     1      36.326 -25.440 -15.348  0.00  0.00    -0.246 OA
BRANCH   2   4
ATOM      4  O   UNL     1      37.905 -23.572 -14.473  0.00  0.00    -0.316 OA
ATOM      5  H   UNL     1      37.998 -23.182 -13.590  0.00  0.00    +0.221 HD
ENDBRANCH   2   4
BRANCH   2   6
ATOM      6  O   UNL     1      35.844 -24.134 -13.148  0.00  0.00    -0.200 OA
BRANCH   6   7
ATOM      7  P   UNL     1      36.325 -24.997 -11.871  0.00  0.00    +0.480 P 
ATOM      8  O   UNL     1      35.332 -25.088 -10.750  0.00  0.00    -0.227 OA
BRANCH   7   9
ATOM      9  O   UNL     1      36.766 -26.411 -12.519  0.00  0.00    -0.302 OA
ATOM     10  H   UNL     1      37.711 -26.561 -12.357  0.00  0.00    +0.222 HD
ENDBRANCH   7   9
BRANCH   7  11
ATOM     11  O   UNL     1      37.738 -24.319 -11.471  0.00  0.00    -0.302 OA
ATOM     12  H   UNL     1      37.588 -23.401 -11.195  0.00  0.00    +0.222 HD
ENDBRANCH   7  11
ENDBRANCH   6   7
ENDBRANCH   2   6
ENDBRANCH   1   2
BRANCH   1  13
ATOM     13  C   UNL     1      34.249 -23.609 -16.878  0.00  0.00    +0.094 C 
BRANCH  13  15
ATOM     14  C   UNL     1      34.102 -21.944 -18.813  0.00  0.00    -0.047 C 
ATOM     15  C   UNL     1      33.554 -22.682 -17.826  0.00  0.00    -0.022 C 
ATOM     16  C   UNL     1      35.570 -21.904 -19.140  0.00  0.00    +0.026 C 
BRANCH  14  17
ATOM     17  C   UNL     1      33.216 -21.084 -19.695  0.00  0.00    +0.026 C 
BRANCH  17  18
ATOM     18  C   UNL     1      33.944 -20.487 -20.907  0.00  0.00    +0.030 C 
BRANCH  18  19
ATOM     19  C   UNL     1      33.873 -18.984 -20.937  0.00  0.00    -0.034 C 
ATOM     20  C   UNL     1      34.863 -18.110 -21.199  0.00  0.00    -0.048 C 
ATOM     21  C   UNL     1      34.724 -16.615 -21.212  0.00  0.00    +0.026 C 
ATOM     22  C   UNL     1      36.248 -18.605 -21.525  0.00  0.00    +0.026 C 
ENDBRANCH  18  19
ENDBRANCH  17  18
ENDBRANCH  14  17
ENDBRANCH  13  15
ENDBRANCH   1  13
TORSDOF 11
ENDMDL
