MODEL 1
REMARK VINA RESULT:      -9.1      0.000      0.000
REMARK  Name = 5281087
REMARK  3 active torsions:
REMARK  status: ('A' for Active; 'I' for Inactive)
REMARK    1  A    between atoms: C_1  and  C_8
REMARK    2  A    between atoms: C_2  and  C_10
REMARK    3  A    between atoms: C_13  and  O_16
REMARK                            x       y       z     vdW  Elec       q    Type
REMARK                         _______ _______ _______ _____ _____    ______ ____
ROOT
ATOM      1  C   UNL     1      35.156 -17.922 -22.180  0.00  0.00    +0.034 C 
ATOM      2  C   UNL     1      34.215 -18.596 -21.533  0.00  0.00    +0.003 C 
ENDROOT
BRANCH   1   8
ATOM      3  N   UNL     1      34.356 -16.810 -24.293  0.00  0.00    -0.292 N 
ATOM      4  N   UNL     1      34.738 -15.620 -22.241  0.00  0.00    -0.256 NA
ATOM      5  C   UNL     1      33.892 -15.627 -25.012  0.00  0.00    +0.094 C 
ATOM      6  C   UNL     1      33.334 -14.622 -24.017  0.00  0.00    +0.048 C 
ATOM      7  C   UNL     1      34.357 -14.378 -22.920  0.00  0.00    +0.129 C 
ATOM      8  C   UNL     1      34.729 -16.718 -22.948  0.00  0.00    +0.127 C 
ATOM      9  C   UNL     1      34.485 -18.029 -25.080  0.00  0.00    +0.114 C 
ENDBRANCH   1   8
BRANCH   2  10
ATOM     10  C   UNL     1      34.479 -19.799 -20.723  0.00  0.00    +0.003 C 
ATOM     11  C   UNL     1      33.415 -20.485 -20.161  0.00  0.00    +0.037 C 
ATOM     12  C   UNL     1      35.786 -20.218 -20.539  0.00  0.00    +0.000 C 
ATOM     13  C   UNL     1      33.665 -21.622 -19.393  0.00  0.00    +0.134 C 
ATOM     14  C   UNL     1      36.036 -21.355 -19.771  0.00  0.00    +0.003 C 
ATOM     15  C   UNL     1      34.976 -22.057 -19.198  0.00  0.00    +0.037 C 
BRANCH  13  16
ATOM     16  O   UNL     1      32.630 -22.306 -18.833  0.00  0.00    -0.506 OA
ATOM     17  H   UNL     1      31.828 -21.865 -18.636  0.00  0.00    +0.292 HD
ENDBRANCH  13  16
ENDBRANCH   2  10
TORSDOF 3
ENDMDL
MODEL 2
REMARK VINA RESULT:      -8.7      1.109      1.983
REMARK  Name = 5281087
REMARK  3 active torsions:
REMARK  status: ('A' for Active; 'I' for Inactive)
REMARK    1  A    between atoms: C_1  and  C_8
REMARK    2  A    between atoms: C_2  and  C_10
REMARK    3  A    between atoms: C_13  and  O_16
REMARK                            x       y       z     vdW  Elec       q    Type
REMARK                         _______ _______ _______ _____ _____    ______ ____
ROOT
ATOM      1  C   UNL     1      34.468 -17.357 -21.271  0.00  0.00    +0.034 C 
ATOM      2  C   UNL     1      34.077 -18.590 -21.559  0.00  0.00    +0.003 C 
ENDROOT
BRANCH   1   8
ATOM      3  N   UNL     1      33.273 -15.182 -21.706  0.00  0.00    -0.292 N 
ATOM      4  N   UNL     1      34.397 -16.435 -23.421  0.00  0.00    -0.256 NA
ATOM      5  C   UNL     1      32.889 -14.100 -22.607  0.00  0.00    +0.094 C 
ATOM      6  C   UNL     1      33.865 -14.045 -23.772  0.00  0.00    +0.048 C 
ATOM      7  C   UNL     1      33.979 -15.425 -24.398  0.00  0.00    +0.129 C 
ATOM      8  C   UNL     1      34.019 -16.266 -22.184  0.00  0.00    +0.127 C 
ATOM      9  C   UNL     1      32.762 -15.097 -20.345  0.00  0.00    +0.114 C 
ENDBRANCH   1   8
BRANCH   2  10
ATOM     10  C   UNL     1      34.428 -19.770 -20.749  0.00  0.00    +0.003 C 
ATOM     11  C   UNL     1      33.418 -20.513 -20.158  0.00  0.00    +0.037 C 
ATOM     12  C   UNL     1      35.761 -20.113 -20.594  0.00  0.00    +0.000 C 
ATOM     13  C   UNL     1      33.752 -21.628 -19.390  0.00  0.00    +0.134 C 
ATOM     14  C   UNL     1      36.094 -21.229 -19.827  0.00  0.00    +0.003 C 
ATOM     15  C   UNL     1      35.090 -21.987 -19.224  0.00  0.00    +0.037 C 
BRANCH  13  16
ATOM     16  O   UNL     1      32.771 -22.367 -18.803  0.00  0.00    -0.506 OA
ATOM     17  H   UNL     1      31.912 -22.388 -19.175  0.00  0.00    +0.292 HD
ENDBRANCH  13  16
ENDBRANCH   2  10
TORSDOF 3
ENDMDL
MODEL 3
REMARK VINA RESULT:      -8.2      1.597      2.595
REMARK  Name = 5281087
REMARK  3 active torsions:
REMARK  status: ('A' for Active; 'I' for Inactive)
REMARK    1  A    between atoms: C_1  and  C_8
REMARK    2  A    between atoms: C_2  and  C_10
REMARK    3  A    between atoms: C_13  and  O_16
REMARK                            x       y       z     vdW  Elec       q    Type
REMARK                         _______ _______ _______ _____ _____    ______ ____
ROOT
ATOM      1  C   UNL     1      34.411 -17.361 -21.304  0.00  0.00    +0.034 C 
ATOM      2  C   UNL     1      33.856 -18.546 -21.517  0.00  0.00    +0.003 C 
ENDROOT
BRANCH   1   8
ATOM      3  N   UNL     1      33.280 -15.147 -21.703  0.00  0.00    -0.292 N 
ATOM      4  N   UNL     1      34.382 -16.395 -23.435  0.00  0.00    -0.256 NA
ATOM      5  C   UNL     1      32.931 -14.036 -22.585  0.00  0.00    +0.094 C 
ATOM      6  C   UNL     1      33.917 -13.985 -23.741  0.00  0.00    +0.048 C 
ATOM      7  C   UNL     1      34.000 -15.355 -24.394  0.00  0.00    +0.129 C 
ATOM      8  C   UNL     1      33.999 -16.241 -22.197  0.00  0.00    +0.127 C 
ATOM      9  C   UNL     1      32.760 -15.075 -20.344  0.00  0.00    +0.114 C 
ENDBRANCH   1   8
BRANCH   2  10
ATOM     10  C   UNL     1      34.151 -19.745 -20.714  0.00  0.00    +0.003 C 
ATOM     11  C   UNL     1      35.470 -20.120 -20.515  0.00  0.00    +0.037 C 
ATOM     12  C   UNL     1      33.104 -20.474 -20.175  0.00  0.00    +0.000 C 
ATOM     13  C   UNL     1      35.749 -21.257 -19.757  0.00  0.00    +0.134 C 
ATOM     14  C   UNL     1      33.384 -21.611 -19.416  0.00  0.00    +0.003 C 
ATOM     15  C   UNL     1      34.706 -22.003 -19.207  0.00  0.00    +0.037 C 
BRANCH  13  16
ATOM     16  O   UNL     1      37.040 -21.639 -19.554  0.00  0.00    -0.506 OA
ATOM     17  H   UNL     1      37.422 -21.568 -18.701  0.00  0.00    +0.292 HD
ENDBRANCH  13  16
ENDBRANCH   2  10
TORSDOF 3
ENDMDL
MODEL 4
REMARK VINA RESULT:      -8.0      3.164      6.544
REMARK  Name = 5281087
REMARK  3 active torsions:
REMARK  status: ('A' for Active; 'I' for Inactive)
REMARK    1  A    between atoms: C_1  and  C_8
REMARK    2  A    between atoms: C_2  and  C_10
REMARK    3  A    between atoms: C_13  and  O_16
REMARK                            x       y       z     vdW  Elec       q    Type
REMARK                         _______ _______ _______ _____ _____    ______ ____
ROOT
ATOM      1  C   UNL     1      34.509 -17.976 -21.819  0.00  0.00    +0.034 C 
ATOM      2  C   UNL     1      34.453 -16.774 -21.262  0.00  0.00    +0.003 C 
ENDROOT
BRANCH   1   8
ATOM      3  N   UNL     1      34.158 -20.099 -20.510  0.00  0.00    -0.292 N 
ATOM      4  N   UNL     1      36.300 -19.037 -20.751  0.00  0.00    -0.256 NA
ATOM      5  C   UNL     1      34.686 -21.216 -19.732  0.00  0.00    +0.094 C 
ATOM      6  C   UNL     1      36.157 -21.409 -20.065  0.00  0.00    +0.048 C 
ATOM      7  C   UNL     1      36.887 -20.085 -19.911  0.00  0.00    +0.129 C 
ATOM      8  C   UNL     1      35.016 -19.097 -20.978  0.00  0.00    +0.127 C 
ATOM      9  C   UNL     1      32.712 -20.059 -20.677  0.00  0.00    +0.114 C 
ENDBRANCH   1   8
BRANCH   2  10
ATOM     10  C   UNL     1      33.966 -15.570 -21.958  0.00  0.00    +0.003 C 
ATOM     11  C   UNL     1      32.993 -14.787 -21.357  0.00  0.00    +0.037 C 
ATOM     12  C   UNL     1      34.489 -15.247 -23.199  0.00  0.00    +0.000 C 
ATOM     13  C   UNL     1      32.530 -13.648 -22.018  0.00  0.00    +0.134 C 
ATOM     14  C   UNL     1      34.026 -14.108 -23.858  0.00  0.00    +0.003 C 
ATOM     15  C   UNL     1      33.046 -13.309 -23.268  0.00  0.00    +0.037 C 
BRANCH  13  16
ATOM     16  O   UNL     1      31.575 -12.869 -21.441  0.00  0.00    -0.506 OA
ATOM     17  H   UNL     1      31.822 -12.157 -20.886  0.00  0.00    +0.292 HD
ENDBRANCH  13  16
ENDBRANCH   2  10
TORSDOF 3
ENDMDL
MODEL 5
REMARK VINA RESULT:      -8.0      3.107      6.622
REMARK  Name = 5281087
REMARK  3 active torsions:
REMARK  status: ('A' for Active; 'I' for Inactive)
REMARK    1  A    between atoms: C_1  and  C_8
REMARK    2  A    between atoms: C_2  and  C_10
REMARK    3  A    between atoms: C_13  and  O_16
REMARK                            x       y       z     vdW  Elec       q    Type
REMARK                         _______ _______ _______ _____ _____    ______ ____
ROOT
ATOM      1  C   UNL     1      34.649 -18.394 -22.123  0.00  0.00    +0.034 C 
ATOM      2  C   UNL     1      34.863 -17.105 -21.901  0.00  0.00    +0.003 C 
ENDROOT
BRANCH   1   8
ATOM      3  N   UNL     1      34.252 -20.267 -20.487  0.00  0.00    -0.292 N 
ATOM      4  N   UNL     1      36.403 -19.254 -20.836  0.00  0.00    -0.256 NA
ATOM      5  C   UNL     1      34.753 -21.235 -19.516  0.00  0.00    +0.094 C 
ATOM      6  C   UNL     1      36.233 -21.478 -19.764  0.00  0.00    +0.048 C 
ATOM      7  C   UNL     1      36.960 -20.144 -19.813  0.00  0.00    +0.129 C 
ATOM      8  C   UNL     1      35.127 -19.356 -21.090  0.00  0.00    +0.127 C 
ATOM      9  C   UNL     1      32.812 -20.261 -20.704  0.00  0.00    +0.114 C 
ENDBRANCH   1   8
BRANCH   2  10
ATOM     10  C   UNL     1      34.442 -16.033 -22.820  0.00  0.00    +0.003 C 
ATOM     11  C   UNL     1      34.207 -16.336 -24.152  0.00  0.00    +0.037 C 
ATOM     12  C   UNL     1      34.289 -14.745 -22.335  0.00  0.00    +0.000 C 
ATOM     13  C   UNL     1      33.810 -15.321 -25.022  0.00  0.00    +0.134 C 
ATOM     14  C   UNL     1      33.892 -13.730 -23.206  0.00  0.00    +0.003 C 
ATOM     15  C   UNL     1      33.653 -14.018 -24.550  0.00  0.00    +0.037 C 
BRANCH  13  16
ATOM     16  O   UNL     1      33.577 -15.602 -26.334  0.00  0.00    -0.506 OA
ATOM     17  H   UNL     1      34.032 -15.130 -27.003  0.00  0.00    +0.292 HD
ENDBRANCH  13  16
ENDBRANCH   2  10
TORSDOF 3
ENDMDL
MODEL 6
REMARK VINA RESULT:      -8.0      5.601      8.233
REMARK  Name = 5281087
REMARK  3 active torsions:
REMARK  status: ('A' for Active; 'I' for Inactive)
REMARK    1  A    between atoms: C_1  and  C_8
REMARK    2  A    between atoms: C_2  and  C_10
REMARK    3  A    between atoms: C_13  and  O_16
REMARK                            x       y       z     vdW  Elec       q    Type
REMARK                         _______ _______ _______ _____ _____    ______ ____
ROOT
ATOM      1  C   UNL     1      33.205 -23.165 -17.195  0.00  0.00    +0.034 C 
ATOM      2  C   UNL     1      32.530 -23.135 -16.054  0.00  0.00    +0.003 C 
ENDROOT
BRANCH   1   8
ATOM      3  N   UNL     1      35.298 -22.136 -18.146  0.00  0.00    -0.292 N 
ATOM      4  N   UNL     1      35.249 -23.340 -16.068  0.00  0.00    -0.256 NA
ATOM      5  C   UNL     1      36.717 -21.811 -18.041  0.00  0.00    +0.094 C 
ATOM      6  C   UNL     1      37.126 -21.811 -16.577  0.00  0.00    +0.048 C 
ATOM      7  C   UNL     1      36.691 -23.117 -15.933  0.00  0.00    +0.129 C 
ATOM      8  C   UNL     1      34.665 -22.866 -17.134  0.00  0.00    +0.127 C 
ATOM      9  C   UNL     1      34.638 -21.737 -19.382  0.00  0.00    +0.114 C 
ENDBRANCH   1   8
BRANCH   2  10
ATOM     10  C   UNL     1      31.088 -23.417 -15.948  0.00  0.00    +0.003 C 
ATOM     11  C   UNL     1      30.181 -22.529 -16.504  0.00  0.00    +0.037 C 
ATOM     12  C   UNL     1      30.668 -24.563 -15.293  0.00  0.00    +0.000 C 
ATOM     13  C   UNL     1      28.815 -22.796 -16.402  0.00  0.00    +0.134 C 
ATOM     14  C   UNL     1      29.302 -24.829 -15.192  0.00  0.00    +0.003 C 
ATOM     15  C   UNL     1      28.376 -23.946 -15.745  0.00  0.00    +0.037 C 
BRANCH  13  16
ATOM     16  O   UNL     1      27.912 -21.933 -16.942  0.00  0.00    -0.506 OA
ATOM     17  H   UNL     1      27.959 -21.019 -16.745  0.00  0.00    +0.292 HD
ENDBRANCH  13  16
ENDBRANCH   2  10
TORSDOF 3
ENDMDL
MODEL 7
REMARK VINA RESULT:      -7.9      9.039     10.809
REMARK  Name = 5281087
REMARK  3 active torsions:
REMARK  status: ('A' for Active; 'I' for Inactive)
REMARK    1  A    between atoms: C_1  and  C_8
REMARK    2  A    between atoms: C_2  and  C_10
REMARK    3  A    between atoms: C_13  and  O_16
REMARK                            x       y       z     vdW  Elec       q    Type
REMARK                         _______ _______ _______ _____ _____    ______ ____
ROOT
ATOM      1  C   UNL     1      33.547 -24.553 -13.989  0.00  0.00    +0.034 C 
ATOM      2  C   UNL     1      32.565 -23.665 -13.918  0.00  0.00    +0.003 C 
ENDROOT
BRANCH   1   8
ATOM      3  N   UNL     1      35.920 -23.710 -13.953  0.00  0.00    -0.292 N 
ATOM      4  N   UNL     1      34.763 -24.472 -11.991  0.00  0.00    -0.256 NA
ATOM      5  C   UNL     1      37.133 -23.352 -13.223  0.00  0.00    +0.094 C 
ATOM      6  C   UNL     1      36.778 -23.054 -11.776  0.00  0.00    +0.048 C 
ATOM      7  C   UNL     1      35.972 -24.210 -11.206  0.00  0.00    +0.129 C 
ATOM      8  C   UNL     1      34.814 -24.230 -13.272  0.00  0.00    +0.127 C 
ATOM      9  C   UNL     1      35.980 -23.576 -15.403  0.00  0.00    +0.114 C 
ENDBRANCH   1   8
BRANCH   2  10
ATOM     10  C   UNL     1      31.252 -23.844 -14.563  0.00  0.00    +0.003 C 
ATOM     11  C   UNL     1      30.841 -22.939 -15.528  0.00  0.00    +0.037 C 
ATOM     12  C   UNL     1      30.453 -24.912 -14.189  0.00  0.00    +0.000 C 
ATOM     13  C   UNL     1      29.597 -23.107 -16.136  0.00  0.00    +0.134 C 
ATOM     14  C   UNL     1      29.210 -25.080 -14.797  0.00  0.00    +0.003 C 
ATOM     15  C   UNL     1      28.781 -24.178 -15.771  0.00  0.00    +0.037 C 
BRANCH  13  16
ATOM     16  O   UNL     1      29.180 -22.226 -17.086  0.00  0.00    -0.506 OA
ATOM     17  H   UNL     1      28.264 -22.104 -17.243  0.00  0.00    +0.292 HD
ENDBRANCH  13  16
ENDBRANCH   2  10
TORSDOF 3
ENDMDL
MODEL 8
REMARK VINA RESULT:      -7.9      2.935      4.702
REMARK  Name = 5281087
REMARK  3 active torsions:
REMARK  status: ('A' for Active; 'I' for Inactive)
REMARK    1  A    between atoms: C_1  and  C_8
REMARK    2  A    between atoms: C_2  and  C_10
REMARK    3  A    between atoms: C_13  and  O_16
REMARK                            x       y       z     vdW  Elec       q    Type
REMARK                         _______ _______ _______ _____ _____    ______ ____
ROOT
ATOM      1  C   UNL     1      33.370 -14.494 -23.571  0.00  0.00    +0.034 C 
ATOM      2  C   UNL     1      34.552 -15.093 -23.550  0.00  0.00    +0.003 C 
ENDROOT
BRANCH   1   8
ATOM      3  N   UNL     1      32.725 -12.142 -22.942  0.00  0.00    -0.292 N 
ATOM      4  N   UNL     1      33.968 -12.681 -24.925  0.00  0.00    -0.256 NA
ATOM      5  C   UNL     1      32.764 -10.703 -23.186  0.00  0.00    +0.094 C 
ATOM      6  C   UNL     1      33.976 -10.371 -24.041  0.00  0.00    +0.048 C 
ATOM      7  C   UNL     1      33.980 -11.258 -25.275  0.00  0.00    +0.129 C 
ATOM      8  C   UNL     1      33.351 -13.025 -23.828  0.00  0.00    +0.127 C 
ATOM      9  C   UNL     1      31.936 -12.578 -21.797  0.00  0.00    +0.114 C 
ENDBRANCH   1   8
BRANCH   2  10
ATOM     10  C   UNL     1      34.735 -16.537 -23.319  0.00  0.00    +0.003 C 
ATOM     11  C   UNL     1      35.044 -16.986 -22.046  0.00  0.00    +0.037 C 
ATOM     12  C   UNL     1      34.594 -17.415 -24.381  0.00  0.00    +0.000 C 
ATOM     13  C   UNL     1      35.219 -18.353 -21.829  0.00  0.00    +0.134 C 
ATOM     14  C   UNL     1      34.769 -18.782 -24.163  0.00  0.00    +0.003 C 
ATOM     15  C   UNL     1      35.082 -19.251 -22.888  0.00  0.00    +0.037 C 
BRANCH  13  16
ATOM     16  O   UNL     1      35.525 -18.811 -20.584  0.00  0.00    -0.506 OA
ATOM     17  H   UNL     1      35.213 -19.648 -20.302  0.00  0.00    +0.292 HD
ENDBRANCH  13  16
ENDBRANCH   2  10
TORSDOF 3
ENDMDL
MODEL 9
REMARK VINA RESULT:      -7.9      6.171      9.853
REMARK  Name = 5281087
REMARK  3 active torsions:
REMARK  status: ('A' for Active; 'I' for Inactive)
REMARK    1  A    between atoms: C_1  and  C_8
REMARK    2  A    between atoms: C_2  and  C_10
REMARK    3  A    between atoms: C_13  and  O_16
REMARK                            x       y       z     vdW  Elec       q    Type
REMARK                         _______ _______ _______ _____ _____    ______ ____
ROOT
ATOM      1  C   UNL     1      35.769 -23.785 -15.513  0.00  0.00    +0.034 C 
ATOM      2  C   UNL     1      36.334 -22.763 -16.141  0.00  0.00    +0.003 C 
ENDROOT
BRANCH   1   8
ATOM      3  N   UNL     1      36.891 -25.447 -13.989  0.00  0.00    -0.292 N 
ATOM      4  N   UNL     1      36.271 -23.232 -13.296  0.00  0.00    -0.256 NA
ATOM      5  C   UNL     1      37.490 -25.792 -12.703  0.00  0.00    +0.094 C 
ATOM      6  C   UNL     1      37.940 -24.521 -12.002  0.00  0.00    +0.048 C 
ATOM      7  C   UNL     1      36.784 -23.535 -11.956  0.00  0.00    +0.129 C 
ATOM      8  C   UNL     1      36.339 -24.177 -14.193  0.00  0.00    +0.127 C 
ATOM      9  C   UNL     1      36.830 -26.517 -14.977  0.00  0.00    +0.114 C 
ENDBRANCH   1   8
BRANCH   2  10
ATOM     10  C   UNL     1      35.880 -22.251 -17.445  0.00  0.00    +0.003 C 
ATOM     11  C   UNL     1      34.587 -22.518 -17.866  0.00  0.00    +0.037 C 
ATOM     12  C   UNL     1      36.755 -21.513 -18.225  0.00  0.00    +0.000 C 
ATOM     13  C   UNL     1      34.159 -22.034 -19.102  0.00  0.00    +0.134 C 
ATOM     14  C   UNL     1      36.326 -21.029 -19.461  0.00  0.00    +0.003 C 
ATOM     15  C   UNL     1      35.028 -21.290 -19.900  0.00  0.00    +0.037 C 
BRANCH  13  16
ATOM     16  O   UNL     1      32.892 -22.289 -19.530  0.00  0.00    -0.506 OA
ATOM     17  H   UNL     1      32.240 -21.617 -19.493  0.00  0.00    +0.292 HD
ENDBRANCH  13  16
ENDBRANCH   2  10
TORSDOF 3
ENDMDL
