MODEL 1
REMARK VINA RESULT:     -10.0      0.000      0.000
REMARK  Name = 9934347
REMARK  5 active torsions:
REMARK  status: ('A' for Active; 'I' for Inactive)
REMARK    1  A    between atoms: N_2  and  C_16
REMARK    2  A    between atoms: N_3  and  C_26
REMARK    3  A    between atoms: C_12  and  N_19
REMARK    4  A    between atoms: C_15  and  O_24
REMARK    5  A    between atoms: C_27  and  C_34
REMARK                            x       y       z     vdW  Elec       q    Type
REMARK                         _______ _______ _______ _____ _____    ______ ____
ROOT
ATOM      1 CL   UNL     1      34.032 -17.146 -21.930  0.00  0.00    -0.076 Cl
ATOM      2  N   UNL     1      31.764 -12.043 -20.320  0.00  0.00    -0.244 N 
ATOM      3  N   UNL     1      34.075 -14.585 -23.542  0.00  0.00    -0.286 N 
ATOM      4  N   UNL     1      32.916 -13.303 -21.930  0.00  0.00    -0.321 NA
ATOM      5  N   UNL     1      32.195 -14.303 -19.858  0.00  0.00    -0.169 NA
ATOM      6  C   UNL     1      32.317 -13.273 -20.721  0.00  0.00    +0.150 C 
ATOM      7  C   UNL     1      33.435 -14.497 -22.283  0.00  0.00    +0.209 C 
ATOM      8  C   UNL     1      33.375 -15.624 -21.489  0.00  0.00    +0.122 C 
ATOM      9  C   UNL     1      32.736 -15.466 -20.275  0.00  0.00    +0.127 C 
ATOM     10  H   UNL     1      31.340 -12.071 -19.431  0.00  0.00    +0.165 HD
ATOM     11  H   UNL     1      34.801 -15.249 -23.575  0.00  0.00    +0.155 HD
ENDROOT
BRANCH   2  16
ATOM     12  C   UNL     1      31.559  -8.263 -22.207  0.00  0.00    +0.051 C 
ATOM     13  C   UNL     1      31.927  -8.373 -20.851  0.00  0.00    +0.053 C 
ATOM     14  C   UNL     1      31.263  -9.447 -22.910  0.00  0.00    +0.016 C 
ATOM     15  C   UNL     1      31.996  -9.617 -20.224  0.00  0.00    +0.154 C 
ATOM     16  C   UNL     1      31.698 -10.777 -20.941  0.00  0.00    +0.092 C 
ATOM     17  C   UNL     1      31.333 -10.691 -22.285  0.00  0.00    +0.020 C 
BRANCH  12  19
ATOM     18  O   UNL     1      31.095  -4.580 -24.182  0.00  0.00    -0.350 OA
ATOM     19  N   UNL     1      31.490  -7.015 -22.836  0.00  0.00    -0.303 N 
ATOM     20  C   UNL     1      30.850  -5.886 -22.153  0.00  0.00    +0.123 C 
ATOM     21  C   UNL     1      31.415  -6.981 -24.303  0.00  0.00    +0.123 C 
ATOM     22  C   UNL     1      31.320  -4.575 -22.774  0.00  0.00    +0.164 C 
ATOM     23  C   UNL     1      31.857  -5.613 -24.809  0.00  0.00    +0.164 C 
ENDBRANCH  12  19
BRANCH  15  24
ATOM     24  O   UNL     1      32.355  -9.680 -18.911  0.00  0.00    -0.470 OA
ATOM     25  C   UNL     1      31.520 -10.447 -18.048  0.00  0.00    +0.253 C 
ENDBRANCH  15  24
ENDBRANCH   2  16
BRANCH   3  26
ATOM     26  C   UNL     1      33.876 -13.906 -24.756  0.00  0.00    +0.054 C 
ATOM     27  C   UNL     1      33.565 -14.599 -25.932  0.00  0.00    +0.067 C 
ATOM     28  C   UNL     1      33.991 -12.513 -24.790  0.00  0.00    +0.015 C 
ATOM     29  C   UNL     1      33.370 -13.905 -27.126  0.00  0.00    +0.006 C 
ATOM     30  C   UNL     1      33.798 -11.819 -25.986  0.00  0.00    +0.001 C 
ATOM     31  C   UNL     1      33.486 -12.516 -27.153  0.00  0.00    +0.000 C 
BRANCH  27  34
ATOM     32  O   UNL     1      32.475 -16.593 -26.509  0.00  0.00    -0.270 OA
ATOM     33  N   UNL     1      34.443 -16.778 -25.296  0.00  0.00    -0.299 N 
ATOM     34  C   UNL     1      33.436 -16.051 -25.937  0.00  0.00    +0.247 C 
ATOM     35  C   UNL     1      34.468 -18.221 -25.237  0.00  0.00    +0.111 C 
ATOM     36  H   UNL     1      35.174 -16.280 -24.863  0.00  0.00    +0.150 HD
ENDBRANCH  27  34
ENDBRANCH   3  26
TORSDOF 5
ENDMDL
MODEL 2
REMARK VINA RESULT:      -9.4      1.142      1.471
REMARK  Name = 9934347
REMARK  5 active torsions:
REMARK  status: ('A' for Active; 'I' for Inactive)
REMARK    1  A    between atoms: N_2  and  C_16
REMARK    2  A    between atoms: N_3  and  C_26
REMARK    3  A    between atoms: C_12  and  N_19
REMARK    4  A    between atoms: C_15  and  O_24
REMARK    5  A    between atoms: C_27  and  C_34
REMARK                            x       y       z     vdW  Elec       q    Type
REMARK                         _______ _______ _______ _____ _____    ______ ____
ROOT
ATOM      1 CL   UNL     1      33.541 -16.510 -21.512  0.00  0.00    -0.076 Cl
ATOM      2  N   UNL     1      31.818 -11.006 -20.789  0.00  0.00    -0.244 N 
ATOM      3  N   UNL     1      33.850 -14.265 -23.518  0.00  0.00    -0.286 N 
ATOM      4  N   UNL     1      32.831 -12.625 -22.155  0.00  0.00    -0.321 NA
ATOM      5  N   UNL     1      32.012 -13.194 -19.960  0.00  0.00    -0.169 NA
ATOM      6  C   UNL     1      32.239 -12.336 -20.977  0.00  0.00    +0.150 C 
ATOM      7  C   UNL     1      33.223 -13.908 -22.300  0.00  0.00    +0.209 C 
ATOM      8  C   UNL     1      33.046 -14.877 -21.335  0.00  0.00    +0.122 C 
ATOM      9  C   UNL     1      32.428 -14.459 -20.173  0.00  0.00    +0.127 C 
ATOM     10  H   UNL     1      31.394 -10.846 -19.915  0.00  0.00    +0.165 HD
ATOM     11  H   UNL     1      34.502 -14.997 -23.430  0.00  0.00    +0.155 HD
ENDROOT
BRANCH   2  16
ATOM     12  C   UNL     1      32.011  -7.586 -23.269  0.00  0.00    +0.051 C 
ATOM     13  C   UNL     1      32.209  -7.480 -21.878  0.00  0.00    +0.053 C 
ATOM     14  C   UNL     1      31.748  -8.862 -23.805  0.00  0.00    +0.016 C 
ATOM     15  C   UNL     1      32.147  -8.605 -21.056  0.00  0.00    +0.154 C 
ATOM     16  C   UNL     1      31.884  -9.859 -21.609  0.00  0.00    +0.092 C 
ATOM     17  C   UNL     1      31.686  -9.987 -22.984  0.00  0.00    +0.020 C 
BRANCH  12  19
ATOM     18  O   UNL     1      32.316  -4.057 -25.535  0.00  0.00    -0.350 OA
ATOM     19  N   UNL     1      32.074  -6.457 -24.094  0.00  0.00    -0.303 N 
ATOM     20  C   UNL     1      33.312  -6.150 -24.820  0.00  0.00    +0.123 C 
ATOM     21  C   UNL     1      31.252  -5.292 -23.740  0.00  0.00    +0.123 C 
ATOM     22  C   UNL     1      33.005  -5.220 -25.989  0.00  0.00    +0.164 C 
ATOM     23  C   UNL     1      31.054  -4.410 -24.967  0.00  0.00    +0.164 C 
ENDBRANCH  12  19
BRANCH  15  24
ATOM     24  O   UNL     1      32.344  -8.460 -19.716  0.00  0.00    -0.470 OA
ATOM     25  C   UNL     1      32.508  -7.130 -19.226  0.00  0.00    +0.253 C 
ENDBRANCH  15  24
ENDBRANCH   2  16
BRANCH   3  26
ATOM     26  C   UNL     1      33.722 -13.777 -24.829  0.00  0.00    +0.054 C 
ATOM     27  C   UNL     1      33.590 -14.646 -25.917  0.00  0.00    +0.067 C 
ATOM     28  C   UNL     1      33.726 -12.395 -25.050  0.00  0.00    +0.015 C 
ATOM     29  C   UNL     1      33.464 -14.141 -27.211  0.00  0.00    +0.006 C 
ATOM     30  C   UNL     1      33.600 -11.889 -26.345  0.00  0.00    +0.001 C 
ATOM     31  C   UNL     1      33.468 -12.762 -27.425  0.00  0.00    +0.000 C 
BRANCH  27  34
ATOM     32  O   UNL     1      32.714 -16.791 -26.278  0.00  0.00    -0.270 OA
ATOM     33  N   UNL     1      34.594 -16.631 -24.929  0.00  0.00    -0.299 N 
ATOM     34  C   UNL     1      33.581 -16.092 -25.728  0.00  0.00    +0.247 C 
ATOM     35  C   UNL     1      34.732 -18.045 -24.667  0.00  0.00    +0.111 C 
ATOM     36  H   UNL     1      35.247 -16.016 -24.525  0.00  0.00    +0.150 HD
ENDBRANCH  27  34
ENDBRANCH   3  26
TORSDOF 5
ENDMDL
MODEL 3
REMARK VINA RESULT:      -8.9      2.362      3.635
REMARK  Name = 9934347
REMARK  5 active torsions:
REMARK  status: ('A' for Active; 'I' for Inactive)
REMARK    1  A    between atoms: N_2  and  C_16
REMARK    2  A    between atoms: N_3  and  C_26
REMARK    3  A    between atoms: C_12  and  N_19
REMARK    4  A    between atoms: C_15  and  O_24
REMARK    5  A    between atoms: C_27  and  C_34
REMARK                            x       y       z     vdW  Elec       q    Type
REMARK                         _______ _______ _______ _____ _____    ______ ____
ROOT
ATOM      1 CL   UNL     1      32.228 -14.158 -20.347  0.00  0.00    -0.076 Cl
ATOM      2  N   UNL     1      31.977  -8.484 -21.582  0.00  0.00    -0.244 N 
ATOM      3  N   UNL     1      33.329 -12.821 -22.829  0.00  0.00    -0.286 N 
ATOM      4  N   UNL     1      32.653 -10.642 -22.210  0.00  0.00    -0.321 NA
ATOM      5  N   UNL     1      31.493 -10.264 -20.131  0.00  0.00    -0.169 NA
ATOM      6  C   UNL     1      32.044  -9.860 -21.295  0.00  0.00    +0.150 C 
ATOM      7  C   UNL     1      32.700 -11.955 -21.903  0.00  0.00    +0.209 C 
ATOM      8  C   UNL     1      32.173 -12.490 -20.745  0.00  0.00    +0.122 C 
ATOM      9  C   UNL     1      31.575 -11.588 -19.888  0.00  0.00    +0.127 C 
ATOM     10  H   UNL     1      31.525  -7.956 -20.884  0.00  0.00    +0.165 HD
ATOM     11  H   UNL     1      33.749 -13.609 -22.415  0.00  0.00    +0.155 HD
ENDROOT
BRANCH   2  16
ATOM     12  C   UNL     1      33.363  -6.191 -24.855  0.00  0.00    +0.051 C 
ATOM     13  C   UNL     1      32.107  -5.930 -24.271  0.00  0.00    +0.053 C 
ATOM     14  C   UNL     1      34.139  -7.236 -24.315  0.00  0.00    +0.016 C 
ATOM     15  C   UNL     1      31.646  -6.683 -23.192  0.00  0.00    +0.154 C 
ATOM     16  C   UNL     1      32.432  -7.713 -22.674  0.00  0.00    +0.092 C 
ATOM     17  C   UNL     1      33.679  -7.988 -23.236  0.00  0.00    +0.020 C 
BRANCH  12  19
ATOM     18  O   UNL     1      34.720  -4.145 -28.269  0.00  0.00    -0.350 OA
ATOM     19  N   UNL     1      33.826  -5.435 -25.937  0.00  0.00    -0.303 N 
ATOM     20  C   UNL     1      32.868  -4.783 -26.837  0.00  0.00    +0.123 C 
ATOM     21  C   UNL     1      35.102  -5.819 -26.556  0.00  0.00    +0.123 C 
ATOM     22  C   UNL     1      33.561  -3.656 -27.596  0.00  0.00    +0.164 C 
ATOM     23  C   UNL     1      35.675  -4.637 -27.329  0.00  0.00    +0.164 C 
ENDBRANCH  12  19
BRANCH  15  24
ATOM     24  O   UNL     1      30.425  -6.398 -22.657  0.00  0.00    -0.470 OA
ATOM     25  C   UNL     1      30.332  -5.230 -21.845  0.00  0.00    +0.253 C 
ENDBRANCH  15  24
ENDBRANCH   2  16
BRANCH   3  26
ATOM     26  C   UNL     1      33.470 -12.773 -24.226  0.00  0.00    +0.054 C 
ATOM     27  C   UNL     1      33.625 -13.942 -24.980  0.00  0.00    +0.067 C 
ATOM     28  C   UNL     1      33.455 -11.534 -24.876  0.00  0.00    +0.015 C 
ATOM     29  C   UNL     1      33.763 -13.872 -26.366  0.00  0.00    +0.006 C 
ATOM     30  C   UNL     1      33.593 -11.465 -26.263  0.00  0.00    +0.001 C 
ATOM     31  C   UNL     1      33.746 -12.634 -27.008  0.00  0.00    +0.000 C 
BRANCH  27  34
ATOM     32  O   UNL     1      33.076 -15.426 -23.250  0.00  0.00    -0.270 OA
ATOM     33  N   UNL     1      34.308 -16.278 -25.021  0.00  0.00    -0.299 N 
ATOM     34  C   UNL     1      33.646 -15.252 -24.340  0.00  0.00    +0.247 C 
ATOM     35  C   UNL     1      34.394 -17.633 -24.528  0.00  0.00    +0.111 C 
ATOM     36  H   UNL     1      34.737 -16.066 -25.881  0.00  0.00    +0.150 HD
ENDBRANCH  27  34
ENDBRANCH   3  26
TORSDOF 5
ENDMDL
MODEL 4
REMARK VINA RESULT:      -8.4      2.916      4.946
REMARK  Name = 9934347
REMARK  5 active torsions:
REMARK  status: ('A' for Active; 'I' for Inactive)
REMARK    1  A    between atoms: N_2  and  C_16
REMARK    2  A    between atoms: N_3  and  C_26
REMARK    3  A    between atoms: C_12  and  N_19
REMARK    4  A    between atoms: C_15  and  O_24
REMARK    5  A    between atoms: C_27  and  C_34
REMARK                            x       y       z     vdW  Elec       q    Type
REMARK                         _______ _______ _______ _____ _____    ______ ____
ROOT
ATOM      1 CL   UNL     1      31.930 -12.227 -19.649  0.00  0.00    -0.076 Cl
ATOM      2  N   UNL     1      32.143  -6.987 -22.155  0.00  0.00    -0.244 N 
ATOM      3  N   UNL     1      33.175 -11.580 -22.331  0.00  0.00    -0.286 N 
ATOM      4  N   UNL     1      32.661  -9.275 -22.250  0.00  0.00    -0.321 NA
ATOM      5  N   UNL     1      31.496  -8.346 -20.354  0.00  0.00    -0.169 NA
ATOM      6  C   UNL     1      32.098  -8.261 -21.559  0.00  0.00    +0.150 C 
ATOM      7  C   UNL     1      32.600 -10.481 -21.649  0.00  0.00    +0.209 C 
ATOM      8  C   UNL     1      32.012 -10.696 -20.419  0.00  0.00    +0.122 C 
ATOM      9  C   UNL     1      31.471  -9.581 -19.812  0.00  0.00    +0.127 C 
ATOM     10  H   UNL     1      31.721  -6.282 -21.613  0.00  0.00    +0.165 HD
ATOM     11  H   UNL     1      33.526 -12.280 -21.733  0.00  0.00    +0.155 HD
ENDROOT
BRANCH   2  16
ATOM     12  C   UNL     1      33.760  -5.616 -25.815  0.00  0.00    +0.051 C 
ATOM     13  C   UNL     1      32.535  -5.113 -25.335  0.00  0.00    +0.053 C 
ATOM     14  C   UNL     1      34.427  -6.585 -25.040  0.00  0.00    +0.016 C 
ATOM     15  C   UNL     1      31.997  -5.562 -24.129  0.00  0.00    +0.154 C 
ATOM     16  C   UNL     1      32.675  -6.523 -23.378  0.00  0.00    +0.092 C 
ATOM     17  C   UNL     1      33.891  -7.034 -23.834  0.00  0.00    +0.020 C 
BRANCH  12  19
ATOM     18  O   UNL     1      35.365  -4.003 -29.351  0.00  0.00    -0.350 OA
ATOM     19  N   UNL     1      34.300  -5.166 -27.025  0.00  0.00    -0.303 N 
ATOM     20  C   UNL     1      35.742  -4.919 -27.136  0.00  0.00    +0.123 C 
ATOM     21  C   UNL     1      33.455  -4.336 -27.895  0.00  0.00    +0.123 C 
ATOM     22  C   UNL     1      36.154  -4.929 -28.605  0.00  0.00    +0.164 C 
ATOM     23  C   UNL     1      33.988  -4.379 -29.322  0.00  0.00    +0.164 C 
ENDBRANCH  12  19
BRANCH  15  24
ATOM     24  O   UNL     1      30.809  -5.050 -23.700  0.00  0.00    -0.470 OA
ATOM     25  C   UNL     1      30.843  -3.765 -23.085  0.00  0.00    +0.253 C 
ENDBRANCH  15  24
ENDBRANCH   2  16
BRANCH   3  26
ATOM     26  C   UNL     1      33.345 -11.866 -23.696  0.00  0.00    +0.054 C 
ATOM     27  C   UNL     1      33.363 -13.184 -24.164  0.00  0.00    +0.067 C 
ATOM     28  C   UNL     1      33.497 -10.812 -24.604  0.00  0.00    +0.015 C 
ATOM     29  C   UNL     1      33.532 -13.446 -25.523  0.00  0.00    +0.006 C 
ATOM     30  C   UNL     1      33.666 -11.074 -25.964  0.00  0.00    +0.001 C 
ATOM     31  C   UNL     1      33.683 -12.391 -26.424  0.00  0.00    +0.000 C 
BRANCH  27  34
ATOM     32  O   UNL     1      32.177 -14.422 -22.564  0.00  0.00    -0.270 OA
ATOM     33  N   UNL     1      34.249 -15.240 -23.209  0.00  0.00    -0.299 N 
ATOM     34  C   UNL     1      33.207 -14.309 -23.250  0.00  0.00    +0.247 C 
ATOM     35  C   UNL     1      34.231 -16.419 -22.373  0.00  0.00    +0.111 C 
ATOM     36  H   UNL     1      35.035 -15.086 -23.781  0.00  0.00    +0.150 HD
ENDBRANCH  27  34
ENDBRANCH   3  26
TORSDOF 5
ENDMDL
MODEL 5
REMARK VINA RESULT:      -8.3      2.053      3.094
REMARK  Name = 9934347
REMARK  5 active torsions:
REMARK  status: ('A' for Active; 'I' for Inactive)
REMARK    1  A    between atoms: N_2  and  C_16
REMARK    2  A    between atoms: N_3  and  C_26
REMARK    3  A    between atoms: C_12  and  N_19
REMARK    4  A    between atoms: C_15  and  O_24
REMARK    5  A    between atoms: C_27  and  C_34
REMARK                            x       y       z     vdW  Elec       q    Type
REMARK                         _______ _______ _______ _____ _____    ______ ____
ROOT
ATOM      1 CL   UNL     1      32.835 -14.577 -21.431  0.00  0.00    -0.076 Cl
ATOM      2  N   UNL     1      30.986  -9.092 -21.959  0.00  0.00    -0.244 N 
ATOM      3  N   UNL     1      33.859 -12.531 -23.413  0.00  0.00    -0.286 N 
ATOM      4  N   UNL     1      32.420 -10.801 -22.689  0.00  0.00    -0.321 NA
ATOM      5  N   UNL     1      30.858 -11.178 -20.892  0.00  0.00    -0.169 NA
ATOM      6  C   UNL     1      31.442 -10.418 -21.842  0.00  0.00    +0.150 C 
ATOM      7  C   UNL     1      32.834 -12.077 -22.548  0.00  0.00    +0.209 C 
ATOM      8  C   UNL     1      32.315 -12.953 -21.616  0.00  0.00    +0.122 C 
ATOM      9  C   UNL     1      31.319 -12.443 -20.807  0.00  0.00    +0.127 C 
ATOM     10  H   UNL     1      30.274  -8.860 -21.320  0.00  0.00    +0.165 HD
ATOM     11  H   UNL     1      34.432 -13.228 -23.018  0.00  0.00    +0.155 HD
ENDROOT
BRANCH   2  16
ATOM     12  C   UNL     1      32.053  -5.916 -24.541  0.00  0.00    +0.051 C 
ATOM     13  C   UNL     1      32.787  -6.166 -23.364  0.00  0.00    +0.053 C 
ATOM     14  C   UNL     1      30.958  -6.754 -24.828  0.00  0.00    +0.016 C 
ATOM     15  C   UNL     1      32.439  -7.212 -22.509  0.00  0.00    +0.154 C 
ATOM     16  C   UNL     1      31.350  -8.029 -22.815  0.00  0.00    +0.092 C 
ATOM     17  C   UNL     1      30.610  -7.800 -23.975  0.00  0.00    +0.020 C 
BRANCH  12  19
ATOM     18  O   UNL     1      33.280  -2.675 -26.923  0.00  0.00    -0.350 OA
ATOM     19  N   UNL     1      32.402  -4.867 -25.398  0.00  0.00    -0.303 N 
ATOM     20  C   UNL     1      33.579  -4.991 -26.265  0.00  0.00    +0.123 C 
ATOM     21  C   UNL     1      32.072  -3.495 -24.987  0.00  0.00    +0.123 C 
ATOM     22  C   UNL     1      33.476  -3.998 -27.418  0.00  0.00    +0.164 C 
ATOM     23  C   UNL     1      32.047  -2.584 -26.208  0.00  0.00    +0.164 C 
ENDBRANCH  12  19
BRANCH  15  24
ATOM     24  O   UNL     1      33.174  -7.420 -21.381  0.00  0.00    -0.470 OA
ATOM     25  C   UNL     1      32.646  -6.907 -20.161  0.00  0.00    +0.253 C 
ENDBRANCH  15  24
ENDBRANCH   2  16
BRANCH   3  26
ATOM     26  C   UNL     1      34.217 -12.180 -24.725  0.00  0.00    +0.054 C 
ATOM     27  C   UNL     1      33.961 -13.037 -25.801  0.00  0.00    +0.067 C 
ATOM     28  C   UNL     1      34.842 -10.950 -24.959  0.00  0.00    +0.015 C 
ATOM     29  C   UNL     1      34.325 -12.668 -27.095  0.00  0.00    +0.006 C 
ATOM     30  C   UNL     1      35.206 -10.581 -26.255  0.00  0.00    +0.001 C 
ATOM     31  C   UNL     1      34.947 -11.440 -27.323  0.00  0.00    +0.000 C 
BRANCH  27  34
ATOM     32  O   UNL     1      32.130 -14.380 -25.218  0.00  0.00    -0.270 OA
ATOM     33  N   UNL     1      34.073 -15.467 -25.869  0.00  0.00    -0.299 N 
ATOM     34  C   UNL     1      33.312 -14.326 -25.597  0.00  0.00    +0.247 C 
ATOM     35  C   UNL     1      33.563 -16.813 -25.738  0.00  0.00    +0.111 C 
ATOM     36  H   UNL     1      35.003 -15.347 -26.165  0.00  0.00    +0.150 HD
ENDBRANCH  27  34
ENDBRANCH   3  26
TORSDOF 5
ENDMDL
MODEL 6
REMARK VINA RESULT:      -7.9      3.561      9.873
REMARK  Name = 9934347
REMARK  5 active torsions:
REMARK  status: ('A' for Active; 'I' for Inactive)
REMARK    1  A    between atoms: N_2  and  C_16
REMARK    2  A    between atoms: N_3  and  C_26
REMARK    3  A    between atoms: C_12  and  N_19
REMARK    4  A    between atoms: C_15  and  O_24
REMARK    5  A    between atoms: C_27  and  C_34
REMARK                            x       y       z     vdW  Elec       q    Type
REMARK                         _______ _______ _______ _____ _____    ______ ____
ROOT
ATOM      1 CL   UNL     1      32.837 -11.063 -26.064  0.00  0.00    -0.076 Cl
ATOM      2  N   UNL     1      34.348 -16.650 -25.525  0.00  0.00    -0.244 N 
ATOM      3  N   UNL     1      33.293 -12.546 -23.465  0.00  0.00    -0.286 N 
ATOM      4  N   UNL     1      33.823 -14.608 -24.492  0.00  0.00    -0.321 NA
ATOM      5  N   UNL     1      33.825 -14.816 -26.894  0.00  0.00    -0.169 NA
ATOM      6  C   UNL     1      33.981 -15.295 -25.642  0.00  0.00    +0.150 C 
ATOM      7  C   UNL     1      33.473 -13.314 -24.641  0.00  0.00    +0.209 C 
ATOM      8  C   UNL     1      33.283 -12.708 -25.866  0.00  0.00    +0.122 C 
ATOM      9  C   UNL     1      33.474 -13.516 -26.969  0.00  0.00    +0.127 C 
ATOM     10  H   UNL     1      34.452 -17.107 -26.390  0.00  0.00    +0.165 HD
ATOM     11  H   UNL     1      33.500 -11.590 -23.579  0.00  0.00    +0.155 HD
ENDROOT
BRANCH   2  16
ATOM     12  C   UNL     1      35.095 -19.111 -22.167  0.00  0.00    +0.051 C 
ATOM     13  C   UNL     1      34.638 -19.664 -23.380  0.00  0.00    +0.053 C 
ATOM     14  C   UNL     1      35.294 -17.717 -22.110  0.00  0.00    +0.016 C 
ATOM     15  C   UNL     1      34.390 -18.857 -24.490  0.00  0.00    +0.154 C 
ATOM     16  C   UNL     1      34.595 -17.479 -24.410  0.00  0.00    +0.092 C 
ATOM     17  C   UNL     1      35.048 -16.910 -23.219  0.00  0.00    +0.020 C 
BRANCH  12  19
ATOM     18  O   UNL     1      35.835 -21.315 -18.664  0.00  0.00    -0.350 OA
ATOM     19  N   UNL     1      35.343 -19.920 -21.054  0.00  0.00    -0.303 N 
ATOM     20  C   UNL     1      34.227 -20.388 -20.225  0.00  0.00    +0.123 C 
ATOM     21  C   UNL     1      36.619 -19.752 -20.345  0.00  0.00    +0.123 C 
ATOM     22  C   UNL     1      34.660 -21.607 -19.417  0.00  0.00    +0.164 C 
ATOM     23  C   UNL     1      36.925 -21.005 -19.533  0.00  0.00    +0.164 C 
ENDBRANCH  12  19
BRANCH  15  24
ATOM     24  O   UNL     1      33.949 -19.432 -25.644  0.00  0.00    -0.470 OA
ATOM     25  C   UNL     1      32.537 -19.526 -25.821  0.00  0.00    +0.253 C 
ENDBRANCH  15  24
ENDBRANCH   2  16
BRANCH   3  26
ATOM     26  C   UNL     1      32.878 -12.884 -22.166  0.00  0.00    +0.054 C 
ATOM     27  C   UNL     1      32.158 -11.981 -21.378  0.00  0.00    +0.067 C 
ATOM     28  C   UNL     1      33.190 -14.147 -21.653  0.00  0.00    +0.015 C 
ATOM     29  C   UNL     1      31.754 -12.336 -20.091  0.00  0.00    +0.006 C 
ATOM     30  C   UNL     1      32.787 -14.503 -20.365  0.00  0.00    +0.001 C 
ATOM     31  C   UNL     1      32.068 -13.598 -19.585  0.00  0.00    +0.000 C 
BRANCH  27  34
ATOM     32  O   UNL     1      31.170 -10.531 -22.934  0.00  0.00    -0.270 OA
ATOM     33  N   UNL     1      32.216  -9.563 -21.104  0.00  0.00    -0.299 N 
ATOM     34  C   UNL     1      31.812 -10.655 -21.877  0.00  0.00    +0.247 C 
ATOM     35  C   UNL     1      31.929  -8.191 -21.454  0.00  0.00    +0.111 C 
ATOM     36  H   UNL     1      32.722  -9.738 -20.279  0.00  0.00    +0.150 HD
ENDBRANCH  27  34
ENDBRANCH   3  26
TORSDOF 5
ENDMDL
