MODEL 1
REMARK VINA RESULT:     -10.8      0.000      0.000
REMARK  Name = 60651
REMARK  3 active torsions:
REMARK  status: ('A' for Active; 'I' for Inactive)
REMARK    1  A    between atoms: C_6  and  N_17
REMARK    2  A    between atoms: C_15  and  C_26
REMARK    3  A    between atoms: C_26  and  O_27
REMARK                            x       y       z     vdW  Elec       q    Type
REMARK                         _______ _______ _______ _____ _____    ______ ____
ROOT
ATOM      1  F   UNL     1      34.801 -19.689 -24.286  0.00  0.00    -0.203 F 
ATOM      2  O   UNL     1      34.472 -16.324 -20.955  0.00  0.00    -0.454 OA
ATOM      3  O   UNL     1      33.779 -15.436 -26.849  0.00  0.00    -0.286 OA
ATOM      4  N   UNL     1      33.838 -14.392 -22.916  0.00  0.00    -0.222 N 
ATOM      5  N   UNL     1      33.765 -14.037 -21.553  0.00  0.00    -0.159 NA
ATOM      6  C   UNL     1      34.624 -18.016 -22.610  0.00  0.00    +0.111 C 
ATOM      7  C   UNL     1      34.407 -16.681 -22.278  0.00  0.00    +0.171 C 
ATOM      8  C   UNL     1      34.112 -15.737 -23.267  0.00  0.00    +0.105 C 
ATOM      9  C   UNL     1      34.089 -16.139 -24.611  0.00  0.00    +0.059 C 
ATOM     10  C   UNL     1      34.584 -18.409 -23.949  0.00  0.00    +0.156 C 
ATOM     11  C   UNL     1      34.673 -14.906 -20.790  0.00  0.00    +0.302 C 
ATOM     12  C   UNL     1      34.323 -17.474 -24.954  0.00  0.00    +0.036 C 
ATOM     13  C   UNL     1      33.606 -13.459 -23.904  0.00  0.00    +0.092 C 
ATOM     14  C   UNL     1      33.812 -15.126 -25.665  0.00  0.00    +0.205 C 
ATOM     15  C   UNL     1      33.581 -13.723 -25.218  0.00  0.00    +0.130 C 
ATOM     16  C   UNL     1      32.381 -14.166 -21.088  0.00  0.00    +0.115 C 
ENDROOT
BRANCH   6  17
ATOM     17  N   UNL     1      34.896 -18.968 -21.621  0.00  0.00    -0.308 N 
ATOM     18  N   UNL     1      35.465 -20.714 -19.433  0.00  0.00    +0.388 N 
ATOM     19  C   UNL     1      33.802 -19.498 -20.801  0.00  0.00    +0.068 C 
ATOM     20  C   UNL     1      36.216 -18.935 -20.976  0.00  0.00    +0.068 C 
ATOM     21  C   UNL     1      34.202 -20.835 -20.172  0.00  0.00    -0.056 C 
ATOM     22  C   UNL     1      36.536 -20.291 -20.342  0.00  0.00    -0.056 C 
ATOM     23  C   UNL     1      35.808 -21.983 -18.792  0.00  0.00    -0.101 C 
ATOM     24  H   UNL     1      35.354 -20.009 -18.704  0.00  0.00    -0.080 HD
ENDBRANCH   6  17
BRANCH  15  26
ATOM     25  O   UNL     1      33.724 -11.480 -25.993  0.00  0.00    -0.245 OA
ATOM     26  C   UNL     1      33.315 -12.619 -26.141  0.00  0.00    +0.342 C 
BRANCH  26  27
ATOM     27  O   UNL     1      32.556 -13.057 -27.167  0.00  0.00    -0.477 OA
ATOM     28  H   UNL     1      31.801 -12.571 -27.432  0.00  0.00    +0.295 HD
ENDBRANCH  26  27
ENDBRANCH  15  26
TORSDOF 3
ENDMDL
MODEL 2
REMARK VINA RESULT:      -9.4      4.632      8.921
REMARK  Name = 60651
REMARK  3 active torsions:
REMARK  status: ('A' for Active; 'I' for Inactive)
REMARK    1  A    between atoms: C_6  and  N_17
REMARK    2  A    between atoms: C_15  and  C_26
REMARK    3  A    between atoms: C_26  and  O_27
REMARK                            x       y       z     vdW  Elec       q    Type
REMARK                         _______ _______ _______ _____ _____    ______ ____
ROOT
ATOM      1  F   UNL     1      30.651 -10.445 -20.400  0.00  0.00    -0.203 F 
ATOM      2  O   UNL     1      33.438 -10.093 -24.226  0.00  0.00    -0.454 OA
ATOM      3  O   UNL     1      32.319 -15.163 -21.215  0.00  0.00    -0.286 OA
ATOM      4  N   UNL     1      33.909 -12.879 -24.184  0.00  0.00    -0.222 N 
ATOM      5  N   UNL     1      34.390 -12.117 -25.269  0.00  0.00    -0.159 NA
ATOM      6  C   UNL     1      32.031 -10.261 -22.323  0.00  0.00    +0.111 C 
ATOM      7  C   UNL     1      32.868 -10.875 -23.252  0.00  0.00    +0.171 C 
ATOM      8  C   UNL     1      33.102 -12.253 -23.203  0.00  0.00    +0.105 C 
ATOM      9  C   UNL     1      32.525 -13.008 -22.170  0.00  0.00    +0.059 C 
ATOM     10  C   UNL     1      31.451 -11.024 -21.308  0.00  0.00    +0.156 C 
ATOM     11  C   UNL     1      34.586 -10.730 -24.821  0.00  0.00    +0.302 C 
ATOM     12  C   UNL     1      31.699 -12.396 -21.223  0.00  0.00    +0.036 C 
ATOM     13  C   UNL     1      34.180 -14.228 -24.091  0.00  0.00    +0.092 C 
ATOM     14  C   UNL     1      32.805 -14.467 -22.097  0.00  0.00    +0.205 C 
ATOM     15  C   UNL     1      33.703 -15.042 -23.139  0.00  0.00    +0.130 C 
ATOM     16  C   UNL     1      33.437 -12.192 -26.380  0.00  0.00    +0.115 C 
ENDROOT
BRANCH   6  17
ATOM     17  N   UNL     1      31.776  -8.886 -22.383  0.00  0.00    -0.308 N 
ATOM     18  N   UNL     1      31.025  -6.130 -22.399  0.00  0.00    +0.388 N 
ATOM     19  C   UNL     1      32.056  -8.042 -21.217  0.00  0.00    +0.068 C 
ATOM     20  C   UNL     1      30.689  -8.424 -23.256  0.00  0.00    +0.068 C 
ATOM     21  C   UNL     1      32.198  -6.577 -21.637  0.00  0.00    -0.056 C 
ATOM     22  C   UNL     1      30.876  -6.947 -23.610  0.00  0.00    -0.056 C 
ATOM     23  C   UNL     1      31.147  -4.715 -22.748  0.00  0.00    -0.101 C 
ATOM     24  H   UNL     1      30.193  -6.244 -21.821  0.00  0.00    -0.080 HD
ENDBRANCH   6  17
BRANCH  15  26
ATOM     25  O   UNL     1      34.224 -17.102 -24.207  0.00  0.00    -0.245 OA
ATOM     26  C   UNL     1      34.082 -16.455 -23.184  0.00  0.00    +0.342 C 
BRANCH  26  27
ATOM     27  O   UNL     1      34.246 -16.920 -21.927  0.00  0.00    -0.477 OA
ATOM     28  H   UNL     1      34.904 -16.549 -21.373  0.00  0.00    +0.295 HD
ENDBRANCH  26  27
ENDBRANCH  15  26
TORSDOF 3
ENDMDL
MODEL 3
REMARK VINA RESULT:      -8.9      3.632      5.767
REMARK  Name = 60651
REMARK  3 active torsions:
REMARK  status: ('A' for Active; 'I' for Inactive)
REMARK    1  A    between atoms: C_6  and  N_17
REMARK    2  A    between atoms: C_15  and  C_26
REMARK    3  A    between atoms: C_26  and  O_27
REMARK                            x       y       z     vdW  Elec       q    Type
REMARK                         _______ _______ _______ _____ _____    ______ ____
ROOT
ATOM      1  F   UNL     1      32.361 -15.034 -20.989  0.00  0.00    -0.203 F 
ATOM      2  O   UNL     1      34.096 -12.979 -24.899  0.00  0.00    -0.454 OA
ATOM      3  O   UNL     1      31.093 -10.145 -20.545  0.00  0.00    -0.286 OA
ATOM      4  N   UNL     1      33.192 -10.452 -24.018  0.00  0.00    -0.222 N 
ATOM      5  N   UNL     1      33.995 -10.528 -25.174  0.00  0.00    -0.159 NA
ATOM      6  C   UNL     1      33.246 -14.013 -22.942  0.00  0.00    +0.111 C 
ATOM      7  C   UNL     1      33.427 -12.864 -23.707  0.00  0.00    +0.171 C 
ATOM      8  C   UNL     1      32.955 -11.625 -23.261  0.00  0.00    +0.105 C 
ATOM      9  C   UNL     1      32.246 -11.559 -22.051  0.00  0.00    +0.059 C 
ATOM     10  C   UNL     1      32.552 -13.934 -21.732  0.00  0.00    +0.156 C 
ATOM     11  C   UNL     1      33.834 -11.863 -25.773  0.00  0.00    +0.302 C 
ATOM     12  C   UNL     1      32.045 -12.712 -21.285  0.00  0.00    +0.036 C 
ATOM     13  C   UNL     1      32.672  -9.247 -23.596  0.00  0.00    +0.092 C 
ATOM     14  C   UNL     1      31.713 -10.248 -21.595  0.00  0.00    +0.205 C 
ATOM     15  C   UNL     1      31.963  -9.068 -22.473  0.00  0.00    +0.130 C 
ATOM     16  C   UNL     1      35.392 -10.266 -24.818  0.00  0.00    +0.115 C 
ENDROOT
BRANCH   6  17
ATOM     17  N   UNL     1      33.737 -15.250 -23.374  0.00  0.00    -0.308 N 
ATOM     18  N   UNL     1      34.928 -17.644 -24.379  0.00  0.00    +0.388 N 
ATOM     19  C   UNL     1      34.796 -15.919 -22.612  0.00  0.00    +0.068 C 
ATOM     20  C   UNL     1      33.712 -15.536 -24.815  0.00  0.00    +0.068 C 
ATOM     21  C   UNL     1      34.824 -17.416 -22.932  0.00  0.00    -0.056 C 
ATOM     22  C   UNL     1      33.775 -17.045 -25.063  0.00  0.00    -0.056 C 
ATOM     23  C   UNL     1      35.008 -19.076 -24.668  0.00  0.00    -0.101 C 
ATOM     24  H   UNL     1      35.780 -17.202 -24.722  0.00  0.00    -0.080 HD
ENDBRANCH   6  17
BRANCH  15  26
ATOM     25  O   UNL     1      30.813  -7.035 -22.915  0.00  0.00    -0.245 OA
ATOM     26  C   UNL     1      31.484  -7.720 -22.163  0.00  0.00    +0.342 C 
BRANCH  26  27
ATOM     27  O   UNL     1      31.899  -7.363 -20.929  0.00  0.00    -0.477 OA
ATOM     28  H   UNL     1      32.782  -7.082 -20.795  0.00  0.00    +0.295 HD
ENDBRANCH  26  27
ENDBRANCH  15  26
TORSDOF 3
ENDMDL
MODEL 4
REMARK VINA RESULT:      -8.7      4.284      6.537
REMARK  Name = 60651
REMARK  3 active torsions:
REMARK  status: ('A' for Active; 'I' for Inactive)
REMARK    1  A    between atoms: C_6  and  N_17
REMARK    2  A    between atoms: C_15  and  C_26
REMARK    3  A    between atoms: C_26  and  O_27
REMARK                            x       y       z     vdW  Elec       q    Type
REMARK                         _______ _______ _______ _____ _____    ______ ____
ROOT
ATOM      1  F   UNL     1      34.791 -11.768 -26.024  0.00  0.00    -0.203 F 
ATOM      2  O   UNL     1      32.474 -12.875 -22.032  0.00  0.00    -0.454 OA
ATOM      3  O   UNL     1      33.596  -7.300 -23.949  0.00  0.00    -0.286 OA
ATOM      4  N   UNL     1      32.046 -10.137 -21.478  0.00  0.00    -0.222 N 
ATOM      5  N   UNL     1      31.426 -11.108 -20.664  0.00  0.00    -0.159 NA
ATOM      6  C   UNL     1      33.621 -12.333 -24.037  0.00  0.00    +0.111 C 
ATOM      7  C   UNL     1      32.956 -11.915 -22.886  0.00  0.00    +0.171 C 
ATOM      8  C   UNL     1      32.771 -10.554 -22.621  0.00  0.00    +0.105 C 
ATOM      9  C   UNL     1      33.311  -9.606 -23.505  0.00  0.00    +0.059 C 
ATOM     10  C   UNL     1      34.140 -11.382 -24.917  0.00  0.00    +0.156 C 
ATOM     11  C   UNL     1      32.222 -12.344 -20.716  0.00  0.00    +0.302 C 
ATOM     12  C   UNL     1      33.994 -10.018 -24.653  0.00  0.00    +0.036 C 
ATOM     13  C   UNL     1      31.921  -8.794 -21.197  0.00  0.00    +0.092 C 
ATOM     14  C   UNL     1      33.145  -8.159 -23.203  0.00  0.00    +0.205 C 
ATOM     15  C   UNL     1      32.411  -7.803 -21.955  0.00  0.00    +0.130 C 
ATOM     16  C   UNL     1      30.054 -11.332 -21.130  0.00  0.00    +0.115 C 
ENDROOT
BRANCH   6  17
ATOM     17  N   UNL     1      33.787 -13.693 -24.316  0.00  0.00    -0.308 N 
ATOM     18  N   UNL     1      33.949 -16.519 -24.706  0.00  0.00    +0.388 N 
ATOM     19  C   UNL     1      32.887 -14.357 -25.265  0.00  0.00    +0.068 C 
ATOM     20  C   UNL     1      34.344 -14.552 -23.262  0.00  0.00    +0.068 C 
ATOM     21  C   UNL     1      33.524 -15.641 -25.803  0.00  0.00    -0.056 C 
ATOM     22  C   UNL     1      34.935 -15.828 -23.866  0.00  0.00    -0.056 C 
ATOM     23  C   UNL     1      34.507 -17.765 -25.232  0.00  0.00    -0.101 C 
ATOM     24  H   UNL     1      33.135 -16.751 -24.135  0.00  0.00    -0.080 HD
ENDBRANCH   6  17
BRANCH  15  26
ATOM     25  O   UNL     1      32.266  -6.040 -20.365  0.00  0.00    -0.245 OA
ATOM     26  C   UNL     1      32.187  -6.423 -21.520  0.00  0.00    +0.342 C 
BRANCH  26  27
ATOM     27  O   UNL     1      31.884  -5.654 -22.587  0.00  0.00    -0.477 OA
ATOM     28  H   UNL     1      31.211  -5.007 -22.521  0.00  0.00    +0.295 HD
ENDBRANCH  26  27
ENDBRANCH  15  26
TORSDOF 3
ENDMDL
MODEL 5
REMARK VINA RESULT:      -8.6      8.646     11.194
REMARK  Name = 60651
REMARK  3 active torsions:
REMARK  status: ('A' for Active; 'I' for Inactive)
REMARK    1  A    between atoms: C_6  and  N_17
REMARK    2  A    between atoms: C_15  and  C_26
REMARK    3  A    between atoms: C_26  and  O_27
REMARK                            x       y       z     vdW  Elec       q    Type
REMARK                         _______ _______ _______ _____ _____    ______ ____
ROOT
ATOM      1  F   UNL     1      34.709 -24.501 -12.543  0.00  0.00    -0.203 F 
ATOM      2  O   UNL     1      34.727 -23.775 -17.233  0.00  0.00    -0.454 OA
ATOM      3  O   UNL     1      29.930 -23.237 -13.668  0.00  0.00    -0.286 OA
ATOM      4  N   UNL     1      31.994 -23.062 -17.171  0.00  0.00    -0.222 N 
ATOM      5  N   UNL     1      32.717 -22.908 -18.372  0.00  0.00    -0.159 NA
ATOM      6  C   UNL     1      34.732 -24.126 -14.887  0.00  0.00    +0.111 C 
ATOM      7  C   UNL     1      34.038 -23.789 -16.047  0.00  0.00    +0.171 C 
ATOM      8  C   UNL     1      32.680 -23.457 -15.996  0.00  0.00    +0.105 C 
ATOM      9  C   UNL     1      32.006 -23.518 -14.766  0.00  0.00    +0.059 C 
ATOM     10  C   UNL     1      34.056 -24.169 -13.667  0.00  0.00    +0.156 C 
ATOM     11  C   UNL     1      33.843 -23.855 -18.369  0.00  0.00    +0.302 C 
ATOM     12  C   UNL     1      32.693 -23.872 -13.601  0.00  0.00    +0.036 C 
ATOM     13  C   UNL     1      30.643 -22.793 -17.119  0.00  0.00    +0.092 C 
ATOM     14  C   UNL     1      30.554 -23.200 -14.721  0.00  0.00    +0.205 C 
ATOM     15  C   UNL     1      29.894 -22.839 -16.008  0.00  0.00    +0.130 C 
ATOM     16  C   UNL     1      33.180 -21.523 -18.490  0.00  0.00    +0.115 C 
ENDROOT
BRANCH   6  17
ATOM     17  N   UNL     1      36.096 -24.436 -14.931  0.00  0.00    -0.308 N 
ATOM     18  N   UNL     1      38.845 -25.138 -15.267  0.00  0.00    +0.388 N 
ATOM     19  C   UNL     1      37.053 -23.441 -15.424  0.00  0.00    +0.068 C 
ATOM     20  C   UNL     1      36.478 -25.840 -15.133  0.00  0.00    +0.068 C 
ATOM     21  C   UNL     1      38.465 -23.762 -14.927  0.00  0.00    -0.056 C 
ATOM     22  C   UNL     1      37.908 -26.082 -14.645  0.00  0.00    -0.056 C 
ATOM     23  C   UNL     1      40.214 -25.415 -14.835  0.00  0.00    -0.101 C 
ATOM     24  H   UNL     1      38.801 -25.252 -16.279  0.00  0.00    -0.080 HD
ENDBRANCH   6  17
BRANCH  15  26
ATOM     25  O   UNL     1      28.015 -21.609 -16.789  0.00  0.00    -0.245 OA
ATOM     26  C   UNL     1      28.470 -22.521 -16.120  0.00  0.00    +0.342 C 
BRANCH  26  27
ATOM     27  O   UNL     1      27.751 -23.386 -15.373  0.00  0.00    -0.477 OA
ATOM     28  H   UNL     1      27.269 -23.077 -14.632  0.00  0.00    +0.295 HD
ENDBRANCH  26  27
ENDBRANCH  15  26
TORSDOF 3
ENDMDL
MODEL 6
REMARK VINA RESULT:      -8.3      3.250      7.583
REMARK  Name = 60651
REMARK  3 active torsions:
REMARK  status: ('A' for Active; 'I' for Inactive)
REMARK    1  A    between atoms: C_6  and  N_17
REMARK    2  A    between atoms: C_15  and  C_26
REMARK    3  A    between atoms: C_26  and  O_27
REMARK                            x       y       z     vdW  Elec       q    Type
REMARK                         _______ _______ _______ _____ _____    ______ ____
ROOT
ATOM      1  F   UNL     1      32.624 -12.964 -20.403  0.00  0.00    -0.203 F 
ATOM      2  O   UNL     1      33.175 -13.158 -25.114  0.00  0.00    -0.454 OA
ATOM      3  O   UNL     1      34.285 -17.667 -21.313  0.00  0.00    -0.286 OA
ATOM      4  N   UNL     1      33.958 -15.867 -24.948  0.00  0.00    -0.222 N 
ATOM      5  N   UNL     1      33.762 -15.286 -26.218  0.00  0.00    -0.159 NA
ATOM      6  C   UNL     1      32.882 -13.055 -22.762  0.00  0.00    +0.111 C 
ATOM      7  C   UNL     1      33.243 -13.782 -23.894  0.00  0.00    +0.171 C 
ATOM      8  C   UNL     1      33.646 -15.118 -23.788  0.00  0.00    +0.105 C 
ATOM      9  C   UNL     1      33.734 -15.706 -22.516  0.00  0.00    +0.059 C 
ATOM     10  C   UNL     1      32.959 -13.655 -21.504  0.00  0.00    +0.156 C 
ATOM     11  C   UNL     1      33.970 -13.834 -26.108  0.00  0.00    +0.302 C 
ATOM     12  C   UNL     1      33.389 -14.977 -21.374  0.00  0.00    +0.036 C 
ATOM     13  C   UNL     1      34.410 -17.164 -24.826  0.00  0.00    +0.092 C 
ATOM     14  C   UNL     1      34.197 -17.115 -22.402  0.00  0.00    +0.205 C 
ATOM     15  C   UNL     1      34.553 -17.821 -23.666  0.00  0.00    +0.130 C 
ATOM     16  C   UNL     1      32.413 -15.600 -26.696  0.00  0.00    +0.115 C 
ENDROOT
BRANCH   6  17
ATOM     17  N   UNL     1      32.457 -11.726 -22.867  0.00  0.00    -0.308 N 
ATOM     18  N   UNL     1      31.677  -8.978 -22.841  0.00  0.00    +0.388 N 
ATOM     19  C   UNL     1      33.406 -10.689 -23.286  0.00  0.00    +0.068 C 
ATOM     20  C   UNL     1      31.373 -11.277 -21.984  0.00  0.00    +0.068 C 
ATOM     21  C   UNL     1      32.660  -9.463 -23.818  0.00  0.00    -0.056 C 
ATOM     22  C   UNL     1      30.694 -10.031 -22.558  0.00  0.00    -0.056 C 
ATOM     23  C   UNL     1      31.009  -7.775 -23.338  0.00  0.00    -0.101 C 
ATOM     24  H   UNL     1      32.161  -8.739 -21.976  0.00  0.00    -0.080 HD
ENDBRANCH   6  17
BRANCH  15  26
ATOM     25  O   UNL     1      34.933 -19.944 -24.667  0.00  0.00    -0.245 OA
ATOM     26  C   UNL     1      35.041 -19.200 -23.707  0.00  0.00    +0.342 C 
BRANCH  26  27
ATOM     27  O   UNL     1      35.621 -19.512 -22.529  0.00  0.00    -0.477 OA
ATOM     28  H   UNL     1      35.495 -18.958 -21.784  0.00  0.00    +0.295 HD
ENDBRANCH  26  27
ENDBRANCH  15  26
TORSDOF 3
ENDMDL
MODEL 7
REMARK VINA RESULT:      -8.3      3.215      7.182
REMARK  Name = 60651
REMARK  3 active torsions:
REMARK  status: ('A' for Active; 'I' for Inactive)
REMARK    1  A    between atoms: C_6  and  N_17
REMARK    2  A    between atoms: C_15  and  C_26
REMARK    3  A    between atoms: C_26  and  O_27
REMARK                            x       y       z     vdW  Elec       q    Type
REMARK                         _______ _______ _______ _____ _____    ______ ____
ROOT
ATOM      1  F   UNL     1      33.376 -12.222 -26.042  0.00  0.00    -0.203 F 
ATOM      2  O   UNL     1      32.958 -13.447 -21.475  0.00  0.00    -0.454 OA
ATOM      3  O   UNL     1      34.607 -17.138 -25.910  0.00  0.00    -0.286 OA
ATOM      4  N   UNL     1      33.821 -16.072 -22.062  0.00  0.00    -0.222 N 
ATOM      5  N   UNL     1      33.641 -15.693 -20.716  0.00  0.00    -0.159 NA
ATOM      6  C   UNL     1      33.178 -12.820 -23.753  0.00  0.00    +0.111 C 
ATOM      7  C   UNL     1      33.267 -13.799 -22.765  0.00  0.00    +0.171 C 
ATOM      8  C   UNL     1      33.679 -15.097 -23.080  0.00  0.00    +0.105 C 
ATOM      9  C   UNL     1      33.953 -15.422 -24.418  0.00  0.00    +0.059 C 
ATOM     10  C   UNL     1      33.467 -13.150 -25.078  0.00  0.00    +0.156 C 
ATOM     11  C   UNL     1      32.660 -14.598 -20.661  0.00  0.00    +0.302 C 
ATOM     12  C   UNL     1      33.849 -14.450 -25.417  0.00  0.00    +0.036 C 
ATOM     13  C   UNL     1      34.171 -17.364 -22.393  0.00  0.00    +0.092 C 
ATOM     14  C   UNL     1      34.355 -16.814 -24.757  0.00  0.00    +0.205 C 
ATOM     15  C   UNL     1      34.435 -17.793 -23.635  0.00  0.00    +0.130 C 
ATOM     16  C   UNL     1      34.929 -15.289 -20.145  0.00  0.00    +0.115 C 
ENDROOT
BRANCH   6  17
ATOM     17  N   UNL     1      32.788 -11.514 -23.437  0.00  0.00    -0.308 N 
ATOM     18  N   UNL     1      32.098  -8.885 -22.559  0.00  0.00    +0.388 N 
ATOM     19  C   UNL     1      33.742 -10.412 -23.598  0.00  0.00    +0.068 C 
ATOM     20  C   UNL     1      31.774 -11.330 -22.390  0.00  0.00    +0.068 C 
ATOM     21  C   UNL     1      33.005  -9.074 -23.697  0.00  0.00    -0.056 C 
ATOM     22  C   UNL     1      31.101  -9.963 -22.530  0.00  0.00    -0.056 C 
ATOM     23  C   UNL     1      31.440  -7.581 -22.637  0.00  0.00    -0.101 C 
ATOM     24  H   UNL     1      32.641  -8.916 -21.696  0.00  0.00    -0.080 HD
ENDBRANCH   6  17
BRANCH  15  26
ATOM     25  O   UNL     1      34.917 -19.746 -24.901  0.00  0.00    -0.245 OA
ATOM     26  C   UNL     1      34.799 -19.198 -23.819  0.00  0.00    +0.342 C 
BRANCH  26  27
ATOM     27  O   UNL     1      34.980 -19.782 -22.615  0.00  0.00    -0.477 OA
ATOM     28  H   UNL     1      34.410 -19.572 -21.903  0.00  0.00    +0.295 HD
ENDBRANCH  26  27
ENDBRANCH  15  26
TORSDOF 3
ENDMDL
MODEL 8
REMARK VINA RESULT:      -8.0      6.345     11.558
REMARK  Name = 60651
REMARK  3 active torsions:
REMARK  status: ('A' for Active; 'I' for Inactive)
REMARK    1  A    between atoms: C_6  and  N_17
REMARK    2  A    between atoms: C_15  and  C_26
REMARK    3  A    between atoms: C_26  and  O_27
REMARK                            x       y       z     vdW  Elec       q    Type
REMARK                         _______ _______ _______ _____ _____    ______ ____
ROOT
ATOM      1  F   UNL     1      37.845 -21.209 -17.661  0.00  0.00    -0.203 F 
ATOM      2  O   UNL     1      33.412 -22.826 -17.155  0.00  0.00    -0.454 OA
ATOM      3  O   UNL     1      37.874 -23.679 -13.234  0.00  0.00    -0.286 OA
ATOM      4  N   UNL     1      34.061 -23.927 -14.635  0.00  0.00    -0.222 N 
ATOM      5  N   UNL     1      32.718 -23.940 -15.065  0.00  0.00    -0.159 NA
ATOM      6  C   UNL     1      35.621 -22.001 -17.411  0.00  0.00    +0.111 C 
ATOM      7  C   UNL     1      34.685 -22.706 -16.657  0.00  0.00    +0.171 C 
ATOM      8  C   UNL     1      35.032 -23.259 -15.421  0.00  0.00    +0.105 C 
ATOM      9  C   UNL     1      36.355 -23.141 -14.966  0.00  0.00    +0.059 C 
ATOM     10  C   UNL     1      36.930 -21.876 -16.943  0.00  0.00    +0.156 C 
ATOM     11  C   UNL     1      32.694 -23.911 -16.535  0.00  0.00    +0.302 C 
ATOM     12  C   UNL     1      37.304 -22.450 -15.725  0.00  0.00    +0.036 C 
ATOM     13  C   UNL     1      34.430 -24.518 -13.445  0.00  0.00    +0.092 C 
ATOM     14  C   UNL     1      36.732 -23.762 -13.668  0.00  0.00    +0.205 C 
ATOM     15  C   UNL     1      35.664 -24.488 -12.924  0.00  0.00    +0.130 C 
ATOM     16  C   UNL     1      32.010 -22.791 -14.493  0.00  0.00    +0.115 C 
ENDROOT
BRANCH   6  17
ATOM     17  N   UNL     1      35.270 -21.426 -18.637  0.00  0.00    -0.308 N 
ATOM     18  N   UNL     1      34.633 -20.473 -21.254  0.00  0.00    +0.388 N 
ATOM     19  C   UNL     1      33.949 -21.692 -19.214  0.00  0.00    +0.068 C 
ATOM     20  C   UNL     1      36.343 -21.155 -19.604  0.00  0.00    +0.068 C 
ATOM     21  C   UNL     1      33.583 -20.614 -20.238  0.00  0.00    -0.056 C 
ATOM     22  C   UNL     1      35.899 -20.095 -20.614  0.00  0.00    -0.056 C 
ATOM     23  C   UNL     1      34.249 -19.480 -22.256  0.00  0.00    -0.101 C 
ATOM     24  H   UNL     1      34.758 -21.369 -21.726  0.00  0.00    -0.080 HD
ENDBRANCH   6  17
BRANCH  15  26
ATOM     25  O   UNL     1      35.268 -24.936 -10.623  0.00  0.00    -0.245 OA
ATOM     26  C   UNL     1      35.892 -25.162 -11.645  0.00  0.00    +0.342 C 
BRANCH  26  27
ATOM     27  O   UNL     1      36.889 -26.062 -11.777  0.00  0.00    -0.477 OA
ATOM     28  H   UNL     1      37.260 -26.465 -11.018  0.00  0.00    +0.295 HD
ENDBRANCH  26  27
ENDBRANCH  15  26
TORSDOF 3
ENDMDL
