MODEL 1
REMARK VINA RESULT:      -7.3      0.000      0.000
REMARK  Name = 5143
REMARK  0 active torsions:
REMARK  status: ('A' for Active; 'I' for Inactive)
REMARK                            x       y       z     vdW  Elec       q    Type
REMARK                         _______ _______ _______ _____ _____    ______ ____
ROOT
ATOM      1  S   UNL     1      35.292 -18.481 -22.349  0.00  0.00    +0.076 S 
ATOM      2  O   UNL     1      34.195 -19.292 -21.869  0.00  0.00    -0.150 OA
ATOM      3  O   UNL     1      36.656 -18.631 -21.895  0.00  0.00    -0.150 OA
ATOM      4  O   UNL     1      34.793 -16.779 -25.749  0.00  0.00    -0.269 OA
ATOM      5  N   UNL     1      35.243 -18.368 -24.059  0.00  0.00    -0.181 N 
ATOM      6  C   UNL     1      34.844 -16.805 -22.187  0.00  0.00    +0.130 C 
ATOM      7  C   UNL     1      34.666 -16.188 -23.426  0.00  0.00    +0.074 C 
ATOM      8  C   UNL     1      34.892 -17.085 -24.576  0.00  0.00    +0.266 C 
ATOM      9  C   UNL     1      34.679 -16.137 -20.991  0.00  0.00    +0.020 C 
ATOM     10  C   UNL     1      34.307 -14.853 -23.499  0.00  0.00    +0.006 C 
ATOM     11  C   UNL     1      34.318 -14.791 -21.058  0.00  0.00    +0.001 C 
ATOM     12  C   UNL     1      34.133 -14.154 -22.299  0.00  0.00    +0.000 C 
ATOM     13  H   UNL     1      35.445 -19.135 -24.643  0.00  0.00    +0.177 HD
ENDROOT
TORSDOF 0
ENDMDL
MODEL 2
REMARK VINA RESULT:      -7.2      4.691      5.695
REMARK  Name = 5143
REMARK  0 active torsions:
REMARK  status: ('A' for Active; 'I' for Inactive)
REMARK                            x       y       z     vdW  Elec       q    Type
REMARK                         _______ _______ _______ _____ _____    ______ ____
ROOT
ATOM      1  S   UNL     1      34.159 -22.556 -19.047  0.00  0.00    +0.076 S 
ATOM      2  O   UNL     1      34.305 -22.516 -17.609  0.00  0.00    -0.150 OA
ATOM      3  O   UNL     1      34.332 -23.756 -19.836  0.00  0.00    -0.150 OA
ATOM      4  O   UNL     1      32.082 -19.747 -20.629  0.00  0.00    -0.269 OA
ATOM      5  N   UNL     1      32.734 -21.732 -19.523  0.00  0.00    -0.181 N 
ATOM      6  C   UNL     1      35.159 -21.304 -19.733  0.00  0.00    +0.130 C 
ATOM      7  C   UNL     1      34.400 -20.285 -20.310  0.00  0.00    +0.074 C 
ATOM      8  C   UNL     1      32.943 -20.496 -20.207  0.00  0.00    +0.266 C 
ATOM      9  C   UNL     1      36.538 -21.293 -19.725  0.00  0.00    +0.020 C 
ATOM     10  C   UNL     1      35.021 -19.201 -20.906  0.00  0.00    +0.006 C 
ATOM     11  C   UNL     1      37.170 -20.203 -20.324  0.00  0.00    +0.001 C 
ATOM     12  C   UNL     1      36.419 -19.166 -20.910  0.00  0.00    +0.000 C 
ATOM     13  H   UNL     1      31.835 -22.086 -19.338  0.00  0.00    +0.177 HD
ENDROOT
TORSDOF 0
ENDMDL
MODEL 3
REMARK VINA RESULT:      -7.2      2.932      3.698
REMARK  Name = 5143
REMARK  0 active torsions:
REMARK  status: ('A' for Active; 'I' for Inactive)
REMARK                            x       y       z     vdW  Elec       q    Type
REMARK                         _______ _______ _______ _____ _____    ______ ____
ROOT
ATOM      1  S   UNL     1      33.679 -14.946 -22.757  0.00  0.00    +0.076 S 
ATOM      2  O   UNL     1      34.815 -14.202 -22.259  0.00  0.00    -0.150 OA
ATOM      3  O   UNL     1      32.424 -15.061 -22.048  0.00  0.00    -0.150 OA
ATOM      4  O   UNL     1      33.574 -15.568 -26.540  0.00  0.00    -0.269 OA
ATOM      5  N   UNL     1      33.398 -14.569 -24.405  0.00  0.00    -0.181 N 
ATOM      6  C   UNL     1      34.218 -16.550 -23.176  0.00  0.00    +0.130 C 
ATOM      7  C   UNL     1      34.176 -16.773 -24.553  0.00  0.00    +0.074 C 
ATOM      8  C   UNL     1      33.694 -15.616 -25.330  0.00  0.00    +0.266 C 
ATOM      9  C   UNL     1      34.640 -17.508 -22.277  0.00  0.00    +0.020 C 
ATOM     10  C   UNL     1      34.567 -17.994 -25.076  0.00  0.00    +0.006 C 
ATOM     11  C   UNL     1      35.035 -18.740 -22.799  0.00  0.00    +0.001 C 
ATOM     12  C   UNL     1      35.000 -18.981 -24.185  0.00  0.00    +0.000 C 
ATOM     13  H   UNL     1      33.056 -13.692 -24.693  0.00  0.00    +0.177 HD
ENDROOT
TORSDOF 0
ENDMDL
MODEL 4
REMARK VINA RESULT:      -7.2      2.057      3.241
REMARK  Name = 5143
REMARK  0 active torsions:
REMARK  status: ('A' for Active; 'I' for Inactive)
REMARK                            x       y       z     vdW  Elec       q    Type
REMARK                         _______ _______ _______ _____ _____    ______ ____
ROOT
ATOM      1  S   UNL     1      35.337 -18.478 -21.251  0.00  0.00    +0.076 S 
ATOM      2  O   UNL     1      36.740 -18.830 -21.247  0.00  0.00    -0.150 OA
ATOM      3  O   UNL     1      34.288 -19.369 -20.805  0.00  0.00    -0.150 OA
ATOM      4  O   UNL     1      34.516 -14.733 -21.265  0.00  0.00    -0.269 OA
ATOM      5  N   UNL     1      35.114 -16.916 -20.584  0.00  0.00    -0.181 N 
ATOM      6  C   UNL     1      34.922 -17.901 -22.842  0.00  0.00    +0.130 C 
ATOM      7  C   UNL     1      34.622 -16.539 -22.843  0.00  0.00    +0.074 C 
ATOM      8  C   UNL     1      34.724 -15.905 -21.515  0.00  0.00    +0.266 C 
ATOM      9  C   UNL     1      34.884 -18.674 -23.984  0.00  0.00    +0.020 C 
ATOM     10  C   UNL     1      34.269 -15.900 -24.020  0.00  0.00    +0.006 C 
ATOM     11  C   UNL     1      34.529 -18.036 -25.173  0.00  0.00    +0.001 C 
ATOM     12  C   UNL     1      34.224 -16.662 -25.191  0.00  0.00    +0.000 C 
ATOM     13  H   UNL     1      35.243 -16.729 -19.626  0.00  0.00    +0.177 HD
ENDROOT
TORSDOF 0
ENDMDL
MODEL 5
REMARK VINA RESULT:      -7.0      8.043      9.165
REMARK  Name = 5143
REMARK  0 active torsions:
REMARK  status: ('A' for Active; 'I' for Inactive)
REMARK                            x       y       z     vdW  Elec       q    Type
REMARK                         _______ _______ _______ _____ _____    ______ ____
ROOT
ATOM      1  S   UNL     1      32.283  -8.383 -22.936  0.00  0.00    +0.076 S 
ATOM      2  O   UNL     1      31.050  -7.958 -23.563  0.00  0.00    -0.150 OA
ATOM      3  O   UNL     1      33.427  -8.873 -23.673  0.00  0.00    -0.150 OA
ATOM      4  O   UNL     1      32.963  -7.024 -19.415  0.00  0.00    -0.269 OA
ATOM      5  N   UNL     1      32.778  -7.237 -21.762  0.00  0.00    -0.181 N 
ATOM      6  C   UNL     1      31.893  -9.543 -21.696  0.00  0.00    +0.130 C 
ATOM      7  C   UNL     1      32.144  -9.047 -20.417  0.00  0.00    +0.074 C 
ATOM      8  C   UNL     1      32.673  -7.670 -20.405  0.00  0.00    +0.266 C 
ATOM      9  C   UNL     1      31.396 -10.811 -21.920  0.00  0.00    +0.020 C 
ATOM     10  C   UNL     1      31.896  -9.828 -19.301  0.00  0.00    +0.006 C 
ATOM     11  C   UNL     1      31.144 -11.603 -20.799  0.00  0.00    +0.001 C 
ATOM     12  C   UNL     1      31.391 -11.117 -19.502  0.00  0.00    +0.000 C 
ATOM     13  H   UNL     1      33.113  -6.344 -22.006  0.00  0.00    +0.177 HD
ENDROOT
TORSDOF 0
ENDMDL
MODEL 6
REMARK VINA RESULT:      -6.9      3.352      4.691
REMARK  Name = 5143
REMARK  0 active torsions:
REMARK  status: ('A' for Active; 'I' for Inactive)
REMARK                            x       y       z     vdW  Elec       q    Type
REMARK                         _______ _______ _______ _____ _____    ______ ____
ROOT
ATOM      1  S   UNL     1      34.594 -17.925 -22.500  0.00  0.00    +0.076 S 
ATOM      2  O   UNL     1      34.066 -16.725 -21.889  0.00  0.00    -0.150 OA
ATOM      3  O   UNL     1      34.208 -18.389 -23.814  0.00  0.00    -0.150 OA
ATOM      4  O   UNL     1      37.953 -19.191 -21.150  0.00  0.00    -0.269 OA
ATOM      5  N   UNL     1      36.298 -17.980 -22.326  0.00  0.00    -0.181 N 
ATOM      6  C   UNL     1      34.397 -19.242 -21.376  0.00  0.00    +0.130 C 
ATOM      7  C   UNL     1      35.621 -19.702 -20.889  0.00  0.00    +0.074 C 
ATOM      8  C   UNL     1      36.787 -18.976 -21.428  0.00  0.00    +0.266 C 
ATOM      9  C   UNL     1      33.190 -19.789 -20.994  0.00  0.00    +0.020 C 
ATOM     10  C   UNL     1      35.667 -20.747 -19.982  0.00  0.00    +0.006 C 
ATOM     11  C   UNL     1      33.229 -20.843 -20.081  0.00  0.00    +0.001 C 
ATOM     12  C   UNL     1      34.455 -21.318 -19.579  0.00  0.00    +0.000 C 
ATOM     13  H   UNL     1      36.897 -17.369 -22.813  0.00  0.00    +0.177 HD
ENDROOT
TORSDOF 0
ENDMDL
MODEL 7
REMARK VINA RESULT:      -6.9     13.283     13.740
REMARK  Name = 5143
REMARK  0 active torsions:
REMARK  status: ('A' for Active; 'I' for Inactive)
REMARK                            x       y       z     vdW  Elec       q    Type
REMARK                         _______ _______ _______ _____ _____    ______ ____
ROOT
ATOM      1  S   UNL     1      35.664 -24.397 -11.662  0.00  0.00    +0.076 S 
ATOM      2  O   UNL     1      35.354 -25.337 -10.607  0.00  0.00    -0.150 OA
ATOM      3  O   UNL     1      34.658 -23.699 -12.432  0.00  0.00    -0.150 OA
ATOM      4  O   UNL     1      39.156 -22.817 -11.567  0.00  0.00    -0.269 OA
ATOM      5  N   UNL     1      36.883 -23.307 -11.148  0.00  0.00    -0.181 N 
ATOM      6  C   UNL     1      36.765 -25.167 -12.772  0.00  0.00    +0.130 C 
ATOM      7  C   UNL     1      38.034 -24.587 -12.737  0.00  0.00    +0.074 C 
ATOM      8  C   UNL     1      38.153 -23.472 -11.779  0.00  0.00    +0.266 C 
ATOM      9  C   UNL     1      36.450 -26.223 -13.602  0.00  0.00    +0.020 C 
ATOM     10  C   UNL     1      39.045 -25.066 -13.553  0.00  0.00    +0.006 C 
ATOM     11  C   UNL     1      37.465 -26.709 -14.427  0.00  0.00    +0.001 C 
ATOM     12  C   UNL     1      38.750 -26.137 -14.403  0.00  0.00    +0.000 C 
ATOM     13  H   UNL     1      36.717 -22.616 -10.467  0.00  0.00    +0.177 HD
ENDROOT
TORSDOF 0
ENDMDL
MODEL 8
REMARK VINA RESULT:      -6.8     12.155     13.107
REMARK  Name = 5143
REMARK  0 active torsions:
REMARK  status: ('A' for Active; 'I' for Inactive)
REMARK                            x       y       z     vdW  Elec       q    Type
REMARK                         _______ _______ _______ _____ _____    ______ ____
ROOT
ATOM      1  S   UNL     1      36.545 -23.577 -11.512  0.00  0.00    +0.076 S 
ATOM      2  O   UNL     1      37.268 -22.327 -11.599  0.00  0.00    -0.150 OA
ATOM      3  O   UNL     1      36.414 -24.341 -10.291  0.00  0.00    -0.150 OA
ATOM      4  O   UNL     1      33.920 -24.221 -14.232  0.00  0.00    -0.269 OA
ATOM      5  N   UNL     1      35.027 -23.440 -12.295  0.00  0.00    -0.181 N 
ATOM      6  C   UNL     1      37.138 -24.639 -12.760  0.00  0.00    +0.130 C 
ATOM      7  C   UNL     1      36.179 -24.873 -13.747  0.00  0.00    +0.074 C 
ATOM      8  C   UNL     1      34.900 -24.176 -13.512  0.00  0.00    +0.266 C 
ATOM      9  C   UNL     1      38.398 -25.199 -12.797  0.00  0.00    +0.020 C 
ATOM     10  C   UNL     1      36.468 -25.695 -14.823  0.00  0.00    +0.006 C 
ATOM     11  C   UNL     1      38.695 -26.029 -13.879  0.00  0.00    +0.001 C 
ATOM     12  C   UNL     1      37.739 -26.274 -14.883  0.00  0.00    +0.000 C 
ATOM     13  H   UNL     1      34.294 -22.895 -11.930  0.00  0.00    +0.177 HD
ENDROOT
TORSDOF 0
ENDMDL
MODEL 9
REMARK VINA RESULT:      -6.8     11.317     12.544
REMARK  Name = 5143
REMARK  0 active torsions:
REMARK  status: ('A' for Active; 'I' for Inactive)
REMARK                            x       y       z     vdW  Elec       q    Type
REMARK                         _______ _______ _______ _____ _____    ______ ____
ROOT
ATOM      1  S   UNL     1      39.233 -25.506 -14.045  0.00  0.00    +0.076 S 
ATOM      2  O   UNL     1      40.383 -24.706 -13.687  0.00  0.00    -0.150 OA
ATOM      3  O   UNL     1      39.276 -26.584 -15.008  0.00  0.00    -0.150 OA
ATOM      4  O   UNL     1      36.355 -25.584 -11.511  0.00  0.00    -0.269 OA
ATOM      5  N   UNL     1      38.392 -26.001 -12.636  0.00  0.00    -0.181 N 
ATOM      6  C   UNL     1      37.936 -24.430 -14.488  0.00  0.00    +0.130 C 
ATOM      7  C   UNL     1      36.890 -24.463 -13.566  0.00  0.00    +0.074 C 
ATOM      8  C   UNL     1      37.118 -25.388 -12.439  0.00  0.00    +0.266 C 
ATOM      9  C   UNL     1      37.914 -23.630 -15.612  0.00  0.00    +0.020 C 
ATOM     10  C   UNL     1      35.768 -23.673 -13.750  0.00  0.00    +0.006 C 
ATOM     11  C   UNL     1      36.787 -22.831 -15.803  0.00  0.00    +0.001 C 
ATOM     12  C   UNL     1      35.723 -22.852 -14.882  0.00  0.00    +0.000 C 
ATOM     13  H   UNL     1      38.761 -26.663 -12.008  0.00  0.00    +0.177 HD
ENDROOT
TORSDOF 0
ENDMDL
