MODEL 1
REMARK VINA RESULT:      -9.5      0.000      0.000
REMARK  Name = 54325748
REMARK  14 active torsions:
REMARK  status: ('A' for Active; 'I' for Inactive)
REMARK    1  A    between atoms: C_2  and  O_18
REMARK    2  A    between atoms: C_3  and  O_20
REMARK    3  A    between atoms: C_4  and  C_22
REMARK    4  A    between atoms: C_5  and  N_6
REMARK    5  A    between atoms: C_22  and  S_23
REMARK    6  A    between atoms: S_23  and  C_24
REMARK    7  A    between atoms: C_24  and  C_26
REMARK    8  A    between atoms: C_25  and  C_35
REMARK    9  A    between atoms: C_26  and  C_27
REMARK   10  A    between atoms: C_27  and  C_28
REMARK   11  A    between atoms: C_28  and  C_29
REMARK   12  A    between atoms: C_29  and  C_30
REMARK   13  A    between atoms: C_30  and  N_31
REMARK   14  A    between atoms: C_35  and  N_36
REMARK                            x       y       z     vdW  Elec       q    Type
REMARK                         _______ _______ _______ _____ _____    ______ ____
ROOT
ATOM      1  O   UNL     1      34.670 -17.100 -20.944  0.00  0.00    -0.335 OA
ATOM      2  C   UNL     1      34.601 -16.677 -23.282  0.00  0.00    +0.169 C 
ATOM      3  C   UNL     1      34.328 -18.148 -23.039  0.00  0.00    +0.187 C 
ATOM      4  C   UNL     1      34.346 -16.072 -21.907  0.00  0.00    +0.157 C 
ATOM      5  C   UNL     1      34.893 -18.346 -21.635  0.00  0.00    +0.225 C 
ENDROOT
BRANCH   5   6
ATOM      6  N   UNL     1      34.259 -19.506 -20.903  0.00  0.00    -0.247 N 
ATOM      7  N   UNL     1      32.679 -20.910 -20.197  0.00  0.00    -0.242 NA
ATOM      8  N   UNL     1      36.191 -20.445 -19.769  0.00  0.00    -0.228 NA
ATOM      9  N   UNL     1      35.575 -22.395 -18.437  0.00  0.00    -0.229 NA
ATOM     10  C   UNL     1      34.889 -20.402 -20.089  0.00  0.00    +0.152 C 
ATOM     11  C   UNL     1      32.934 -19.851 -20.937  0.00  0.00    +0.223 C 
ATOM     12  C   UNL     1      33.893 -21.265 -19.660  0.00  0.00    +0.140 C 
ATOM     13  C   UNL     1      34.275 -22.292 -18.803  0.00  0.00    +0.143 C 
ATOM     14  C   UNL     1      36.439 -21.479 -18.937  0.00  0.00    +0.253 C 
ATOM     15  N   UNL     1      33.329 -23.214 -18.320  0.00  0.00    -0.342 N 
ATOM     16  H   UNL     1      33.612 -23.937 -17.714  0.00  0.00    +0.144 HD
ATOM     17  H   UNL     1      32.385 -23.136 -18.588  0.00  0.00    +0.144 HD
ENDBRANCH   5   6
BRANCH   2  18
ATOM     18  O   UNL     1      35.975 -16.472 -23.605  0.00  0.00    -0.379 OA
ATOM     19  H   UNL     1      36.367 -15.850 -22.974  0.00  0.00    +0.211 HD
ENDBRANCH   2  18
BRANCH   3  20
ATOM     20  O   UNL     1      34.934 -18.988 -24.001  0.00  0.00    -0.378 OA
ATOM     21  H   UNL     1      34.872 -19.910 -23.709  0.00  0.00    +0.211 HD
ENDBRANCH   3  20
BRANCH   4  22
ATOM     22  C   UNL     1      32.896 -15.660 -21.695  0.00  0.00    +0.094 C 
BRANCH  22  23
ATOM     23  S   UNL     1      32.804 -14.125 -20.758  0.00  0.00    -0.116 S 
BRANCH  23  24
ATOM     24  C   UNL     1      32.646 -12.997 -22.095  0.00  0.00    -0.003 C 
ATOM     25  C   UNL     1      33.470 -13.120 -23.155  0.00  0.00    -0.048 C 
BRANCH  24  26
ATOM     26  C   UNL     1      31.602 -11.914 -21.928  0.00  0.00    +0.032 C 
BRANCH  26  27
ATOM     27  C   UNL     1      31.309 -11.531 -20.471  0.00  0.00    +0.005 C 
BRANCH  27  28
ATOM     28  C   UNL     1      31.612 -10.064 -20.153  0.00  0.00    -0.002 C 
BRANCH  28  29
ATOM     29  C   UNL     1      32.064  -9.308 -21.407  0.00  0.00    -0.024 C 
BRANCH  29  30
ATOM     30  C   UNL     1      32.466  -7.860 -21.123  0.00  0.00    -0.086 C 
BRANCH  30  31
ATOM     31  N   UNL     1      33.019  -7.700 -19.784  0.00  0.00    +0.380 N 
ATOM     32  H   UNL     1      33.927  -8.162 -19.734  0.00  0.00    -0.089 HD
ATOM     33  H   UNL     1      32.386  -8.119 -19.103  0.00  0.00    -0.089 HD
ATOM     34  H   UNL     1      33.132  -6.708 -19.579  0.00  0.00    -0.089 HD
ENDBRANCH  30  31
ENDBRANCH  29  30
ENDBRANCH  28  29
ENDBRANCH  27  28
ENDBRANCH  26  27
ENDBRANCH  24  26
BRANCH  25  35
ATOM     35  C   UNL     1      33.540 -12.241 -24.371  0.00  0.00    -0.059 C 
BRANCH  35  36
ATOM     36  N   UNL     1      34.495 -11.151 -24.188  0.00  0.00    +0.383 N 
ATOM     37  H   UNL     1      34.162 -10.322 -24.681  0.00  0.00    -0.089 HD
ATOM     38  H   UNL     1      35.402 -11.427 -24.564  0.00  0.00    -0.089 HD
ATOM     39  H   UNL     1      34.586 -10.942 -23.195  0.00  0.00    -0.089 HD
ENDBRANCH  35  36
ENDBRANCH  25  35
ENDBRANCH  23  24
ENDBRANCH  22  23
ENDBRANCH   4  22
TORSDOF 14
ENDMDL
MODEL 2
REMARK VINA RESULT:      -9.3      1.139      2.452
REMARK  Name = 54325748
REMARK  14 active torsions:
REMARK  status: ('A' for Active; 'I' for Inactive)
REMARK    1  A    between atoms: C_2  and  O_18
REMARK    2  A    between atoms: C_3  and  O_20
REMARK    3  A    between atoms: C_4  and  C_22
REMARK    4  A    between atoms: C_5  and  N_6
REMARK    5  A    between atoms: C_22  and  S_23
REMARK    6  A    between atoms: S_23  and  C_24
REMARK    7  A    between atoms: C_24  and  C_26
REMARK    8  A    between atoms: C_25  and  C_35
REMARK    9  A    between atoms: C_26  and  C_27
REMARK   10  A    between atoms: C_27  and  C_28
REMARK   11  A    between atoms: C_28  and  C_29
REMARK   12  A    between atoms: C_29  and  C_30
REMARK   13  A    between atoms: C_30  and  N_31
REMARK   14  A    between atoms: C_35  and  N_36
REMARK                            x       y       z     vdW  Elec       q    Type
REMARK                         _______ _______ _______ _____ _____    ______ ____
ROOT
ATOM      1  O   UNL     1      34.753 -17.202 -20.936  0.00  0.00    -0.335 OA
ATOM      2  C   UNL     1      34.643 -16.787 -23.273  0.00  0.00    +0.169 C 
ATOM      3  C   UNL     1      34.343 -18.250 -23.018  0.00  0.00    +0.187 C 
ATOM      4  C   UNL     1      34.432 -16.172 -21.897  0.00  0.00    +0.157 C 
ATOM      5  C   UNL     1      34.933 -18.456 -21.626  0.00  0.00    +0.225 C 
ENDROOT
BRANCH   5   6
ATOM      6  N   UNL     1      34.290 -19.598 -20.875  0.00  0.00    -0.247 N 
ATOM      7  N   UNL     1      32.700 -20.984 -20.155  0.00  0.00    -0.242 NA
ATOM      8  N   UNL     1      36.208 -20.515 -19.701  0.00  0.00    -0.228 NA
ATOM      9  N   UNL     1      35.575 -22.435 -18.333  0.00  0.00    -0.229 NA
ATOM     10  C   UNL     1      34.909 -20.478 -20.035  0.00  0.00    +0.152 C 
ATOM     11  C   UNL     1      32.964 -19.942 -20.915  0.00  0.00    +0.223 C 
ATOM     12  C   UNL     1      33.907 -21.329 -19.598  0.00  0.00    +0.140 C 
ATOM     13  C   UNL     1      34.279 -22.338 -18.714  0.00  0.00    +0.143 C 
ATOM     14  C   UNL     1      36.445 -21.531 -18.843  0.00  0.00    +0.253 C 
ATOM     15  N   UNL     1      33.326 -23.247 -18.221  0.00  0.00    -0.342 N 
ATOM     16  H   UNL     1      33.601 -23.957 -17.596  0.00  0.00    +0.144 HD
ATOM     17  H   UNL     1      32.385 -23.174 -18.500  0.00  0.00    +0.144 HD
ENDBRANCH   5   6
BRANCH   2  18
ATOM     18  O   UNL     1      36.014 -16.615 -23.628  0.00  0.00    -0.379 OA
ATOM     19  H   UNL     1      36.357 -15.808 -23.212  0.00  0.00    +0.211 HD
ENDBRANCH   2  18
BRANCH   3  20
ATOM     20  O   UNL     1      34.908 -19.108 -23.989  0.00  0.00    -0.378 OA
ATOM     21  H   UNL     1      34.344 -19.120 -24.777  0.00  0.00    +0.211 HD
ENDBRANCH   3  20
BRANCH   4  22
ATOM     22  C   UNL     1      32.996 -15.726 -21.655  0.00  0.00    +0.094 C 
BRANCH  22  23
ATOM     23  S   UNL     1      32.951 -14.313 -20.540  0.00  0.00    -0.116 S 
BRANCH  23  24
ATOM     24  C   UNL     1      32.283 -13.117 -21.641  0.00  0.00    -0.003 C 
ATOM     25  C   UNL     1      31.617 -12.061 -21.133  0.00  0.00    -0.048 C 
BRANCH  24  26
ATOM     26  C   UNL     1      32.469 -13.399 -23.117  0.00  0.00    +0.032 C 
BRANCH  26  27
ATOM     27  C   UNL     1      33.845 -13.005 -23.672  0.00  0.00    +0.005 C 
BRANCH  27  28
ATOM     28  C   UNL     1      33.788 -11.849 -24.676  0.00  0.00    -0.002 C 
BRANCH  28  29
ATOM     29  C   UNL     1      33.925 -10.496 -23.970  0.00  0.00    -0.024 C 
BRANCH  29  30
ATOM     30  C   UNL     1      35.020  -9.614 -24.571  0.00  0.00    -0.086 C 
BRANCH  30  31
ATOM     31  N   UNL     1      35.792 -10.318 -25.587  0.00  0.00    +0.380 N 
ATOM     32  H   UNL     1      35.166 -10.897 -26.148  0.00  0.00    -0.089 HD
ATOM     33  H   UNL     1      36.489 -10.910 -25.134  0.00  0.00    -0.089 HD
ATOM     34  H   UNL     1      36.260  -9.641 -26.189  0.00  0.00    -0.089 HD
ENDBRANCH  30  31
ENDBRANCH  29  30
ENDBRANCH  28  29
ENDBRANCH  27  28
ENDBRANCH  26  27
ENDBRANCH  24  26
BRANCH  25  35
ATOM     35  C   UNL     1      30.930 -10.959 -21.889  0.00  0.00    -0.059 C 
BRANCH  35  36
ATOM     36  N   UNL     1      31.529  -9.659 -21.599  0.00  0.00    +0.383 N 
ATOM     37  H   UNL     1      32.121  -9.734 -20.771  0.00  0.00    -0.089 HD
ATOM     38  H   UNL     1      30.792  -8.975 -21.429  0.00  0.00    -0.089 HD
ATOM     39  H   UNL     1      32.094  -9.361 -22.394  0.00  0.00    -0.089 HD
ENDBRANCH  35  36
ENDBRANCH  25  35
ENDBRANCH  23  24
ENDBRANCH  22  23
ENDBRANCH   4  22
TORSDOF 14
ENDMDL
MODEL 3
REMARK VINA RESULT:      -9.2      1.275      3.228
REMARK  Name = 54325748
REMARK  14 active torsions:
REMARK  status: ('A' for Active; 'I' for Inactive)
REMARK    1  A    between atoms: C_2  and  O_18
REMARK    2  A    between atoms: C_3  and  O_20
REMARK    3  A    between atoms: C_4  and  C_22
REMARK    4  A    between atoms: C_5  and  N_6
REMARK    5  A    between atoms: C_22  and  S_23
REMARK    6  A    between atoms: S_23  and  C_24
REMARK    7  A    between atoms: C_24  and  C_26
REMARK    8  A    between atoms: C_25  and  C_35
REMARK    9  A    between atoms: C_26  and  C_27
REMARK   10  A    between atoms: C_27  and  C_28
REMARK   11  A    between atoms: C_28  and  C_29
REMARK   12  A    between atoms: C_29  and  C_30
REMARK   13  A    between atoms: C_30  and  N_31
REMARK   14  A    between atoms: C_35  and  N_36
REMARK                            x       y       z     vdW  Elec       q    Type
REMARK                         _______ _______ _______ _____ _____    ______ ____
ROOT
ATOM      1  O   UNL     1      34.770 -17.134 -20.973  0.00  0.00    -0.335 OA
ATOM      2  C   UNL     1      34.649 -16.708 -23.308  0.00  0.00    +0.169 C 
ATOM      3  C   UNL     1      34.336 -18.169 -23.057  0.00  0.00    +0.187 C 
ATOM      4  C   UNL     1      34.453 -16.096 -21.928  0.00  0.00    +0.157 C 
ATOM      5  C   UNL     1      34.933 -18.387 -21.670  0.00  0.00    +0.225 C 
ENDROOT
BRANCH   5   6
ATOM      6  N   UNL     1      34.283 -19.526 -20.920  0.00  0.00    -0.247 N 
ATOM      7  N   UNL     1      32.683 -20.898 -20.195  0.00  0.00    -0.242 NA
ATOM      8  N   UNL     1      36.199 -20.467 -19.762  0.00  0.00    -0.228 NA
ATOM      9  N   UNL     1      35.555 -22.386 -18.398  0.00  0.00    -0.229 NA
ATOM     10  C   UNL     1      34.898 -20.415 -20.088  0.00  0.00    +0.152 C 
ATOM     11  C   UNL     1      32.954 -19.856 -20.953  0.00  0.00    +0.223 C 
ATOM     12  C   UNL     1      33.890 -21.258 -19.648  0.00  0.00    +0.140 C 
ATOM     13  C   UNL     1      34.257 -22.274 -18.771  0.00  0.00    +0.143 C 
ATOM     14  C   UNL     1      36.431 -21.489 -18.910  0.00  0.00    +0.253 C 
ATOM     15  N   UNL     1      33.299 -23.176 -18.276  0.00  0.00    -0.342 N 
ATOM     16  H   UNL     1      33.570 -23.891 -17.655  0.00  0.00    +0.144 HD
ATOM     17  H   UNL     1      32.357 -23.092 -18.548  0.00  0.00    +0.144 HD
ENDBRANCH   5   6
BRANCH   2  18
ATOM     18  O   UNL     1      36.020 -16.548 -23.671  0.00  0.00    -0.379 OA
ATOM     19  H   UNL     1      36.114 -16.642 -24.632  0.00  0.00    +0.211 HD
ENDBRANCH   2  18
BRANCH   3  20
ATOM     20  O   UNL     1      34.886 -19.028 -24.036  0.00  0.00    -0.378 OA
ATOM     21  H   UNL     1      35.853 -18.963 -24.016  0.00  0.00    +0.211 HD
ENDBRANCH   3  20
BRANCH   4  22
ATOM     22  C   UNL     1      33.024 -15.637 -21.675  0.00  0.00    +0.094 C 
BRANCH  22  23
ATOM     23  S   UNL     1      32.973 -14.431 -20.339  0.00  0.00    -0.116 S 
BRANCH  23  24
ATOM     24  C   UNL     1      32.202 -13.105 -21.197  0.00  0.00    -0.003 C 
ATOM     25  C   UNL     1      31.630 -12.112 -20.487  0.00  0.00    -0.048 C 
BRANCH  24  26
ATOM     26  C   UNL     1      32.196 -13.209 -22.707  0.00  0.00    +0.032 C 
BRANCH  26  27
ATOM     27  C   UNL     1      33.243 -12.333 -23.410  0.00  0.00    +0.005 C 
BRANCH  27  28
ATOM     28  C   UNL     1      33.778 -12.945 -24.708  0.00  0.00    -0.002 C 
BRANCH  28  29
ATOM     29  C   UNL     1      32.938 -14.153 -25.137  0.00  0.00    -0.024 C 
BRANCH  29  30
ATOM     30  C   UNL     1      33.060 -14.468 -26.628  0.00  0.00    -0.086 C 
BRANCH  30  31
ATOM     31  N   UNL     1      33.484 -13.306 -27.399  0.00  0.00    +0.380 N 
ATOM     32  H   UNL     1      34.431 -13.044 -27.124  0.00  0.00    -0.089 HD
ATOM     33  H   UNL     1      32.850 -12.529 -27.218  0.00  0.00    -0.089 HD
ATOM     34  H   UNL     1      33.470 -13.534 -28.393  0.00  0.00    -0.089 HD
ENDBRANCH  30  31
ENDBRANCH  29  30
ENDBRANCH  28  29
ENDBRANCH  27  28
ENDBRANCH  26  27
ENDBRANCH  24  26
BRANCH  25  35
ATOM     35  C   UNL     1      30.880 -10.922 -21.013  0.00  0.00    -0.059 C 
BRANCH  35  36
ATOM     36  N   UNL     1      31.777  -9.799 -21.274  0.00  0.00    +0.383 N 
ATOM     37  H   UNL     1      31.993  -9.326 -20.396  0.00  0.00    -0.089 HD
ATOM     38  H   UNL     1      31.324  -9.143 -21.910  0.00  0.00    -0.089 HD
ATOM     39  H   UNL     1      32.639 -10.143 -21.696  0.00  0.00    -0.089 HD
ENDBRANCH  35  36
ENDBRANCH  25  35
ENDBRANCH  23  24
ENDBRANCH  22  23
ENDBRANCH   4  22
TORSDOF 14
ENDMDL
MODEL 4
REMARK VINA RESULT:      -8.8      1.257      1.300
REMARK  Name = 54325748
REMARK  14 active torsions:
REMARK  status: ('A' for Active; 'I' for Inactive)
REMARK    1  A    between atoms: C_2  and  O_18
REMARK    2  A    between atoms: C_3  and  O_20
REMARK    3  A    between atoms: C_4  and  C_22
REMARK    4  A    between atoms: C_5  and  N_6
REMARK    5  A    between atoms: C_22  and  S_23
REMARK    6  A    between atoms: S_23  and  C_24
REMARK    7  A    between atoms: C_24  and  C_26
REMARK    8  A    between atoms: C_25  and  C_35
REMARK    9  A    between atoms: C_26  and  C_27
REMARK   10  A    between atoms: C_27  and  C_28
REMARK   11  A    between atoms: C_28  and  C_29
REMARK   12  A    between atoms: C_29  and  C_30
REMARK   13  A    between atoms: C_30  and  N_31
REMARK   14  A    between atoms: C_35  and  N_36
REMARK                            x       y       z     vdW  Elec       q    Type
REMARK                         _______ _______ _______ _____ _____    ______ ____
ROOT
ATOM      1  O   UNL     1      35.169 -17.804 -20.691  0.00  0.00    -0.335 OA
ATOM      2  C   UNL     1      34.879 -17.338 -23.003  0.00  0.00    +0.169 C 
ATOM      3  C   UNL     1      34.428 -18.758 -22.727  0.00  0.00    +0.187 C 
ATOM      4  C   UNL     1      34.883 -16.725 -21.609  0.00  0.00    +0.157 C 
ATOM      5  C   UNL     1      35.124 -19.059 -21.403  0.00  0.00    +0.225 C 
ENDROOT
BRANCH   5   6
ATOM      6  N   UNL     1      34.423 -20.127 -20.598  0.00  0.00    -0.247 N 
ATOM      7  N   UNL     1      32.782 -21.453 -19.878  0.00  0.00    -0.242 NA
ATOM      8  N   UNL     1      36.236 -20.896 -19.176  0.00  0.00    -0.228 NA
ATOM      9  N   UNL     1      35.495 -22.675 -17.679  0.00  0.00    -0.229 NA
ATOM     10  C   UNL     1      34.971 -20.909 -19.622  0.00  0.00    +0.152 C 
ATOM     11  C   UNL     1      33.107 -20.490 -20.715  0.00  0.00    +0.223 C 
ATOM     12  C   UNL     1      33.938 -21.724 -19.188  0.00  0.00    +0.140 C 
ATOM     13  C   UNL     1      34.236 -22.633 -18.177  0.00  0.00    +0.143 C 
ATOM     14  C   UNL     1      36.402 -21.817 -18.202  0.00  0.00    +0.253 C 
ATOM     15  N   UNL     1      33.248 -23.500 -17.678  0.00  0.00    -0.342 N 
ATOM     16  H   UNL     1      33.471 -24.140 -16.962  0.00  0.00    +0.144 HD
ATOM     17  H   UNL     1      32.334 -23.468 -18.042  0.00  0.00    +0.144 HD
ENDBRANCH   5   6
BRANCH   2  18
ATOM     18  O   UNL     1      36.219 -17.327 -23.493  0.00  0.00    -0.379 OA
ATOM     19  H   UNL     1      36.611 -16.453 -23.346  0.00  0.00    +0.211 HD
ENDBRANCH   2  18
BRANCH   3  20
ATOM     20  O   UNL     1      34.785 -19.660 -23.755  0.00  0.00    -0.378 OA
ATOM     21  H   UNL     1      35.388 -20.331 -23.401  0.00  0.00    +0.211 HD
ENDBRANCH   3  20
BRANCH   4  22
ATOM     22  C   UNL     1      33.545 -16.113 -21.221  0.00  0.00    +0.094 C 
BRANCH  22  23
ATOM     23  S   UNL     1      33.698 -14.330 -21.019  0.00  0.00    -0.116 S 
BRANCH  23  24
ATOM     24  C   UNL     1      32.908 -13.817 -22.501  0.00  0.00    -0.003 C 
ATOM     25  C   UNL     1      33.294 -14.363 -23.671  0.00  0.00    -0.048 C 
BRANCH  24  26
ATOM     26  C   UNL     1      31.859 -12.735 -22.352  0.00  0.00    +0.032 C 
BRANCH  26  27
ATOM     27  C   UNL     1      32.388 -11.306 -22.534  0.00  0.00    +0.005 C 
BRANCH  27  28
ATOM     28  C   UNL     1      31.715 -10.284 -21.613  0.00  0.00    -0.002 C 
BRANCH  28  29
ATOM     29  C   UNL     1      32.204  -8.863 -21.912  0.00  0.00    -0.024 C 
BRANCH  29  30
ATOM     30  C   UNL     1      32.377  -8.011 -20.653  0.00  0.00    -0.086 C 
BRANCH  30  31
ATOM     31  N   UNL     1      32.589  -8.829 -19.465  0.00  0.00    +0.380 N 
ATOM     32  H   UNL     1      32.530  -8.241 -18.634  0.00  0.00    -0.089 HD
ATOM     33  H   UNL     1      33.512  -9.262 -19.512  0.00  0.00    -0.089 HD
ATOM     34  H   UNL     1      31.875  -9.555 -19.420  0.00  0.00    -0.089 HD
ENDBRANCH  30  31
ENDBRANCH  29  30
ENDBRANCH  28  29
ENDBRANCH  27  28
ENDBRANCH  26  27
ENDBRANCH  24  26
BRANCH  25  35
ATOM     35  C   UNL     1      32.792 -14.035 -25.048  0.00  0.00    -0.059 C 
BRANCH  35  36
ATOM     36  N   UNL     1      33.291 -14.985 -26.039  0.00  0.00    +0.383 N 
ATOM     37  H   UNL     1      32.983 -14.700 -26.969  0.00  0.00    -0.089 HD
ATOM     38  H   UNL     1      32.928 -15.916 -25.831  0.00  0.00    -0.089 HD
ATOM     39  H   UNL     1      34.310 -15.003 -26.010  0.00  0.00    -0.089 HD
ENDBRANCH  35  36
ENDBRANCH  25  35
ENDBRANCH  23  24
ENDBRANCH  22  23
ENDBRANCH   4  22
TORSDOF 14
ENDMDL
MODEL 5
REMARK VINA RESULT:      -8.4      1.334      2.992
REMARK  Name = 54325748
REMARK  14 active torsions:
REMARK  status: ('A' for Active; 'I' for Inactive)
REMARK    1  A    between atoms: C_2  and  O_18
REMARK    2  A    between atoms: C_3  and  O_20
REMARK    3  A    between atoms: C_4  and  C_22
REMARK    4  A    between atoms: C_5  and  N_6
REMARK    5  A    between atoms: C_22  and  S_23
REMARK    6  A    between atoms: S_23  and  C_24
REMARK    7  A    between atoms: C_24  and  C_26
REMARK    8  A    between atoms: C_25  and  C_35
REMARK    9  A    between atoms: C_26  and  C_27
REMARK   10  A    between atoms: C_27  and  C_28
REMARK   11  A    between atoms: C_28  and  C_29
REMARK   12  A    between atoms: C_29  and  C_30
REMARK   13  A    between atoms: C_30  and  N_31
REMARK   14  A    between atoms: C_35  and  N_36
REMARK                            x       y       z     vdW  Elec       q    Type
REMARK                         _______ _______ _______ _____ _____    ______ ____
ROOT
ATOM      1  O   UNL     1      35.398 -16.724 -21.348  0.00  0.00    -0.335 OA
ATOM      2  C   UNL     1      34.569 -16.631 -23.573  0.00  0.00    +0.169 C 
ATOM      3  C   UNL     1      34.807 -18.079 -23.197  0.00  0.00    +0.187 C 
ATOM      4  C   UNL     1      34.541 -15.946 -22.213  0.00  0.00    +0.157 C 
ATOM      5  C   UNL     1      35.769 -17.946 -22.020  0.00  0.00    +0.225 C 
ENDROOT
BRANCH   5   6
ATOM      6  N   UNL     1      35.721 -19.129 -21.082  0.00  0.00    -0.247 N 
ATOM      7  N   UNL     1      36.440 -20.715 -19.691  0.00  0.00    -0.242 NA
ATOM      8  N   UNL     1      33.344 -19.629 -21.094  0.00  0.00    -0.228 NA
ATOM      9  N   UNL     1      32.833 -21.536 -19.660  0.00  0.00    -0.229 NA
ATOM     10  C   UNL     1      34.613 -19.835 -20.711  0.00  0.00    +0.152 C 
ATOM     11  C   UNL     1      36.793 -19.695 -20.445  0.00  0.00    +0.223 C 
ATOM     12  C   UNL     1      35.079 -20.814 -19.848  0.00  0.00    +0.140 C 
ATOM     13  C   UNL     1      34.134 -21.686 -19.315  0.00  0.00    +0.143 C 
ATOM     14  C   UNL     1      32.524 -20.532 -20.515  0.00  0.00    +0.253 C 
ATOM     15  N   UNL     1      34.519 -22.708 -18.430  0.00  0.00    -0.342 N 
ATOM     16  H   UNL     1      33.841 -23.319 -18.060  0.00  0.00    +0.144 HD
ATOM     17  H   UNL     1      35.466 -22.814 -18.182  0.00  0.00    +0.144 HD
ENDBRANCH   5   6
BRANCH   2  18
ATOM     18  O   UNL     1      35.682 -16.116 -24.303  0.00  0.00    -0.379 OA
ATOM     19  H   UNL     1      35.368 -15.495 -24.978  0.00  0.00    +0.211 HD
ENDBRANCH   2  18
BRANCH   3  20
ATOM     20  O   UNL     1      35.338 -18.846 -24.259  0.00  0.00    -0.378 OA
ATOM     21  H   UNL     1      36.193 -18.477 -24.527  0.00  0.00    +0.211 HD
ENDBRANCH   3  20
BRANCH   4  22
ATOM     22  C   UNL     1      33.151 -15.903 -21.594  0.00  0.00    +0.094 C 
BRANCH  22  23
ATOM     23  S   UNL     1      33.029 -14.560 -20.402  0.00  0.00    -0.116 S 
BRANCH  23  24
ATOM     24  C   UNL     1      32.322 -13.334 -21.442  0.00  0.00    -0.003 C 
ATOM     25  C   UNL     1      31.667 -12.298 -20.881  0.00  0.00    -0.048 C 
BRANCH  24  26
ATOM     26  C   UNL     1      32.464 -13.567 -22.932  0.00  0.00    +0.032 C 
BRANCH  26  27
ATOM     27  C   UNL     1      33.719 -12.942 -23.558  0.00  0.00    +0.005 C 
BRANCH  27  28
ATOM     28  C   UNL     1      33.445 -11.623 -24.286  0.00  0.00    -0.002 C 
BRANCH  28  29
ATOM     29  C   UNL     1      34.175 -11.573 -25.632  0.00  0.00    -0.024 C 
BRANCH  29  30
ATOM     30  C   UNL     1      35.218 -10.457 -25.708  0.00  0.00    -0.086 C 
BRANCH  30  31
ATOM     31  N   UNL     1      35.371  -9.766 -24.433  0.00  0.00    +0.380 N 
ATOM     32  H   UNL     1      35.672 -10.431 -23.720  0.00  0.00    -0.089 HD
ATOM     33  H   UNL     1      34.478  -9.355 -24.160  0.00  0.00    -0.089 HD
ATOM     34  H   UNL     1      36.071  -9.030 -24.527  0.00  0.00    -0.089 HD
ENDBRANCH  30  31
ENDBRANCH  29  30
ENDBRANCH  28  29
ENDBRANCH  27  28
ENDBRANCH  26  27
ENDBRANCH  24  26
BRANCH  25  35
ATOM     35  C   UNL     1      30.951 -11.177 -21.579  0.00  0.00    -0.059 C 
BRANCH  35  36
ATOM     36  N   UNL     1      31.749  -9.954 -21.580  0.00  0.00    +0.383 N 
ATOM     37  H   UNL     1      31.449  -9.351 -20.814  0.00  0.00    -0.089 HD
ATOM     38  H   UNL     1      31.621  -9.465 -22.467  0.00  0.00    -0.089 HD
ATOM     39  H   UNL     1      32.734 -10.189 -21.461  0.00  0.00    -0.089 HD
ENDBRANCH  35  36
ENDBRANCH  25  35
ENDBRANCH  23  24
ENDBRANCH  22  23
ENDBRANCH   4  22
TORSDOF 14
ENDMDL
MODEL 6
REMARK VINA RESULT:      -8.4      2.903      8.864
REMARK  Name = 54325748
REMARK  14 active torsions:
REMARK  status: ('A' for Active; 'I' for Inactive)
REMARK    1  A    between atoms: C_2  and  O_18
REMARK    2  A    between atoms: C_3  and  O_20
REMARK    3  A    between atoms: C_4  and  C_22
REMARK    4  A    between atoms: C_5  and  N_6
REMARK    5  A    between atoms: C_22  and  S_23
REMARK    6  A    between atoms: S_23  and  C_24
REMARK    7  A    between atoms: C_24  and  C_26
REMARK    8  A    between atoms: C_25  and  C_35
REMARK    9  A    between atoms: C_26  and  C_27
REMARK   10  A    between atoms: C_27  and  C_28
REMARK   11  A    between atoms: C_28  and  C_29
REMARK   12  A    between atoms: C_29  and  C_30
REMARK   13  A    between atoms: C_30  and  N_31
REMARK   14  A    between atoms: C_35  and  N_36
REMARK                            x       y       z     vdW  Elec       q    Type
REMARK                         _______ _______ _______ _____ _____    ______ ____
ROOT
ATOM      1  O   UNL     1      33.022 -13.625 -24.217  0.00  0.00    -0.335 OA
ATOM      2  C   UNL     1      33.335 -14.963 -26.155  0.00  0.00    +0.169 C 
ATOM      3  C   UNL     1      33.817 -13.556 -26.445  0.00  0.00    +0.187 C 
ATOM      4  C   UNL     1      33.295 -14.981 -24.633  0.00  0.00    +0.157 C 
ATOM      5  C   UNL     1      33.109 -12.750 -25.361  0.00  0.00    +0.225 C 
ENDROOT
BRANCH   5   6
ATOM      6  N   UNL     1      33.824 -11.463 -25.020  0.00  0.00    -0.247 N 
ATOM      7  N   UNL     1      35.377  -9.866 -25.076  0.00  0.00    -0.242 NA
ATOM      8  N   UNL     1      32.336 -10.541 -23.336  0.00  0.00    -0.228 NA
ATOM      9  N   UNL     1      33.159  -8.400 -22.504  0.00  0.00    -0.229 NA
ATOM     10  C   UNL     1      33.430 -10.523 -24.112  0.00  0.00    +0.152 C 
ATOM     11  C   UNL     1      34.998 -11.025 -25.573  0.00  0.00    +0.223 C 
ATOM     12  C   UNL     1      34.406  -9.541 -24.161  0.00  0.00    +0.140 C 
ATOM     13  C   UNL     1      34.242  -8.448 -23.316  0.00  0.00    +0.143 C 
ATOM     14  C   UNL     1      32.286  -9.434 -22.565  0.00  0.00    +0.253 C 
ATOM     15  N   UNL     1      35.184  -7.404 -23.301  0.00  0.00    -0.342 N 
ATOM     16  H   UNL     1      35.057  -6.635 -22.698  0.00  0.00    +0.144 HD
ATOM     17  H   UNL     1      35.970  -7.442 -23.891  0.00  0.00    +0.144 HD
ENDBRANCH   5   6
BRANCH   2  18
ATOM     18  O   UNL     1      32.002 -15.141 -26.634  0.00  0.00    -0.379 OA
ATOM     19  H   UNL     1      31.856 -16.077 -26.841  0.00  0.00    +0.211 HD
ENDBRANCH   2  18
BRANCH   3  20
ATOM     20  O   UNL     1      33.498 -13.121 -27.752  0.00  0.00    -0.378 OA
ATOM     21  H   UNL     1      32.784 -12.467 -27.710  0.00  0.00    +0.211 HD
ENDBRANCH   3  20
BRANCH   4  22
ATOM     22  C   UNL     1      34.612 -15.416 -24.006  0.00  0.00    +0.094 C 
BRANCH  22  23
ATOM     23  S   UNL     1      34.956 -17.142 -24.386  0.00  0.00    -0.116 S 
BRANCH  23  24
ATOM     24  C   UNL     1      34.797 -17.815 -22.771  0.00  0.00    -0.003 C 
ATOM     25  C   UNL     1      35.342 -19.020 -22.508  0.00  0.00    -0.048 C 
BRANCH  24  26
ATOM     26  C   UNL     1      33.996 -16.991 -21.786  0.00  0.00    +0.032 C 
BRANCH  26  27
ATOM     27  C   UNL     1      34.842 -16.238 -20.749  0.00  0.00    +0.005 C 
BRANCH  27  28
ATOM     28  C   UNL     1      34.366 -14.804 -20.499  0.00  0.00    -0.002 C 
BRANCH  28  29
ATOM     29  C   UNL     1      32.842 -14.698 -20.619  0.00  0.00    -0.024 C 
BRANCH  29  30
ATOM     30  C   UNL     1      32.341 -13.254 -20.647  0.00  0.00    -0.086 C 
BRANCH  30  31
ATOM     31  N   UNL     1      31.628 -12.947 -21.881  0.00  0.00    +0.380 N 
ATOM     32  H   UNL     1      30.627 -13.085 -21.737  0.00  0.00    -0.089 HD
ATOM     33  H   UNL     1      31.953 -13.566 -22.624  0.00  0.00    -0.089 HD
ATOM     34  H   UNL     1      31.803 -11.978 -22.143  0.00  0.00    -0.089 HD
ENDBRANCH  30  31
ENDBRANCH  29  30
ENDBRANCH  28  29
ENDBRANCH  27  28
ENDBRANCH  26  27
ENDBRANCH  24  26
BRANCH  25  35
ATOM     35  C   UNL     1      35.282 -19.794 -21.223  0.00  0.00    -0.059 C 
BRANCH  35  36
ATOM     36  N   UNL     1      36.412 -19.476 -20.354  0.00  0.00    +0.383 N 
ATOM     37  H   UNL     1      37.262 -19.893 -20.736  0.00  0.00    -0.089 HD
ATOM     38  H   UNL     1      36.240 -19.850 -19.421  0.00  0.00    -0.089 HD
ATOM     39  H   UNL     1      36.525 -18.464 -20.300  0.00  0.00    -0.089 HD
ENDBRANCH  35  36
ENDBRANCH  25  35
ENDBRANCH  23  24
ENDBRANCH  22  23
ENDBRANCH   4  22
TORSDOF 14
ENDMDL
MODEL 7
REMARK VINA RESULT:      -8.4      6.281      9.514
REMARK  Name = 54325748
REMARK  14 active torsions:
REMARK  status: ('A' for Active; 'I' for Inactive)
REMARK    1  A    between atoms: C_2  and  O_18
REMARK    2  A    between atoms: C_3  and  O_20
REMARK    3  A    between atoms: C_4  and  C_22
REMARK    4  A    between atoms: C_5  and  N_6
REMARK    5  A    between atoms: C_22  and  S_23
REMARK    6  A    between atoms: S_23  and  C_24
REMARK    7  A    between atoms: C_24  and  C_26
REMARK    8  A    between atoms: C_25  and  C_35
REMARK    9  A    between atoms: C_26  and  C_27
REMARK   10  A    between atoms: C_27  and  C_28
REMARK   11  A    between atoms: C_28  and  C_29
REMARK   12  A    between atoms: C_29  and  C_30
REMARK   13  A    between atoms: C_30  and  N_31
REMARK   14  A    between atoms: C_35  and  N_36
REMARK                            x       y       z     vdW  Elec       q    Type
REMARK                         _______ _______ _______ _____ _____    ______ ____
ROOT
ATOM      1  O   UNL     1      33.463 -24.320 -16.504  0.00  0.00    -0.335 OA
ATOM      2  C   UNL     1      31.639 -23.107 -15.583  0.00  0.00    +0.169 C 
ATOM      3  C   UNL     1      32.763 -23.150 -14.569  0.00  0.00    +0.187 C 
ATOM      4  C   UNL     1      32.359 -23.465 -16.876  0.00  0.00    +0.157 C 
ATOM      5  C   UNL     1      33.593 -24.330 -15.067  0.00  0.00    +0.225 C 
ENDROOT
BRANCH   5   6
ATOM      6  N   UNL     1      35.040 -24.254 -14.642  0.00  0.00    -0.247 N 
ATOM      7  N   UNL     1      36.912 -23.424 -13.760  0.00  0.00    -0.242 NA
ATOM      8  N   UNL     1      35.856 -26.412 -15.400  0.00  0.00    -0.228 NA
ATOM      9  N   UNL     1      38.226 -26.693 -14.888  0.00  0.00    -0.229 NA
ATOM     10  C   UNL     1      35.997 -25.212 -14.818  0.00  0.00    +0.152 C 
ATOM     11  C   UNL     1      35.637 -23.199 -14.003  0.00  0.00    +0.223 C 
ATOM     12  C   UNL     1      37.150 -24.678 -14.265  0.00  0.00    +0.140 C 
ATOM     13  C   UNL     1      38.295 -25.468 -14.314  0.00  0.00    +0.143 C 
ATOM     14  C   UNL     1      37.028 -27.083 -15.387  0.00  0.00    +0.253 C 
ATOM     15  N   UNL     1      39.509 -25.006 -13.776  0.00  0.00    -0.342 N 
ATOM     16  H   UNL     1      40.313 -25.575 -13.817  0.00  0.00    +0.144 HD
ATOM     17  H   UNL     1      39.556 -24.116 -13.360  0.00  0.00    +0.144 HD
ENDBRANCH   5   6
BRANCH   2  18
ATOM     18  O   UNL     1      30.683 -24.131 -15.312  0.00  0.00    -0.379 OA
ATOM     19  H   UNL     1      30.675 -24.323 -14.362  0.00  0.00    +0.211 HD
ENDBRANCH   2  18
BRANCH   3  20
ATOM     20  O   UNL     1      32.304 -23.320 -13.242  0.00  0.00    -0.378 OA
ATOM     21  H   UNL     1      31.420 -22.930 -13.154  0.00  0.00    +0.211 HD
ENDBRANCH   3  20
BRANCH   4  22
ATOM     22  C   UNL     1      32.921 -22.252 -17.604  0.00  0.00    +0.094 C 
BRANCH  22  23
ATOM     23  S   UNL     1      33.811 -22.757 -19.085  0.00  0.00    -0.116 S 
BRANCH  23  24
ATOM     24  C   UNL     1      35.345 -21.963 -18.767  0.00  0.00    -0.003 C 
ATOM     25  C   UNL     1      35.940 -22.144 -17.570  0.00  0.00    -0.048 C 
BRANCH  24  26
ATOM     26  C   UNL     1      35.871 -21.070 -19.871  0.00  0.00    +0.032 C 
BRANCH  26  27
ATOM     27  C   UNL     1      34.811 -20.171 -20.523  0.00  0.00    +0.005 C 
BRANCH  27  28
ATOM     28  C   UNL     1      35.397 -19.143 -21.494  0.00  0.00    -0.002 C 
BRANCH  28  29
ATOM     29  C   UNL     1      34.869 -19.361 -22.916  0.00  0.00    -0.024 C 
BRANCH  29  30
ATOM     30  C   UNL     1      34.916 -18.096 -23.774  0.00  0.00    -0.086 C 
BRANCH  30  31
ATOM     31  N   UNL     1      35.744 -17.059 -23.172  0.00  0.00    +0.380 N 
ATOM     32  H   UNL     1      35.160 -16.447 -22.602  0.00  0.00    -0.089 HD
ATOM     33  H   UNL     1      36.192 -16.512 -23.907  0.00  0.00    -0.089 HD
ATOM     34  H   UNL     1      36.457 -17.491 -22.585  0.00  0.00    -0.089 HD
ENDBRANCH  30  31
ENDBRANCH  29  30
ENDBRANCH  28  29
ENDBRANCH  27  28
ENDBRANCH  26  27
ENDBRANCH  24  26
BRANCH  25  35
ATOM     35  C   UNL     1      37.216 -21.525 -17.075  0.00  0.00    -0.059 C 
BRANCH  35  36
ATOM     36  N   UNL     1      38.123 -22.533 -16.534  0.00  0.00    +0.383 N 
ATOM     37  H   UNL     1      37.747 -22.893 -15.657  0.00  0.00    -0.089 HD
ATOM     38  H   UNL     1      39.037 -22.112 -16.364  0.00  0.00    -0.089 HD
ATOM     39  H   UNL     1      38.219 -23.298 -17.201  0.00  0.00    -0.089 HD
ENDBRANCH  35  36
ENDBRANCH  25  35
ENDBRANCH  23  24
ENDBRANCH  22  23
ENDBRANCH   4  22
TORSDOF 14
ENDMDL
MODEL 8
REMARK VINA RESULT:      -8.3      6.287      9.544
REMARK  Name = 54325748
REMARK  14 active torsions:
REMARK  status: ('A' for Active; 'I' for Inactive)
REMARK    1  A    between atoms: C_2  and  O_18
REMARK    2  A    between atoms: C_3  and  O_20
REMARK    3  A    between atoms: C_4  and  C_22
REMARK    4  A    between atoms: C_5  and  N_6
REMARK    5  A    between atoms: C_22  and  S_23
REMARK    6  A    between atoms: S_23  and  C_24
REMARK    7  A    between atoms: C_24  and  C_26
REMARK    8  A    between atoms: C_25  and  C_35
REMARK    9  A    between atoms: C_26  and  C_27
REMARK   10  A    between atoms: C_27  and  C_28
REMARK   11  A    between atoms: C_28  and  C_29
REMARK   12  A    between atoms: C_29  and  C_30
REMARK   13  A    between atoms: C_30  and  N_31
REMARK   14  A    between atoms: C_35  and  N_36
REMARK                            x       y       z     vdW  Elec       q    Type
REMARK                         _______ _______ _______ _____ _____    ______ ____
ROOT
ATOM      1  O   UNL     1      33.474 -24.272 -16.212  0.00  0.00    -0.335 OA
ATOM      2  C   UNL     1      31.510 -23.123 -15.524  0.00  0.00    +0.169 C 
ATOM      3  C   UNL     1      32.561 -22.994 -14.440  0.00  0.00    +0.187 C 
ATOM      4  C   UNL     1      32.342 -23.537 -16.730  0.00  0.00    +0.157 C 
ATOM      5  C   UNL     1      33.503 -24.146 -14.774  0.00  0.00    +0.225 C 
ENDROOT
BRANCH   5   6
ATOM      6  N   UNL     1      34.909 -23.925 -14.267  0.00  0.00    -0.247 N 
ATOM      7  N   UNL     1      37.081 -23.430 -14.300  0.00  0.00    -0.242 NA
ATOM      8  N   UNL     1      34.630 -24.430 -11.907  0.00  0.00    -0.228 NA
ATOM      9  N   UNL     1      36.734 -24.184 -10.695  0.00  0.00    -0.229 NA
ATOM     10  C   UNL     1      35.347 -24.067 -12.982  0.00  0.00    +0.152 C 
ATOM     11  C   UNL     1      35.986 -23.542 -15.021  0.00  0.00    +0.223 C 
ATOM     12  C   UNL     1      36.697 -23.757 -13.023  0.00  0.00    +0.140 C 
ATOM     13  C   UNL     1      37.395 -23.825 -11.821  0.00  0.00    +0.143 C 
ATOM     14  C   UNL     1      35.412 -24.460 -10.807  0.00  0.00    +0.253 C 
ATOM     15  N   UNL     1      38.768 -23.524 -11.770  0.00  0.00    -0.342 N 
ATOM     16  H   UNL     1      39.251 -23.576 -10.914  0.00  0.00    +0.144 HD
ATOM     17  H   UNL     1      39.245 -23.263 -12.590  0.00  0.00    +0.144 HD
ENDBRANCH   5   6
BRANCH   2  18
ATOM     18  O   UNL     1      30.611 -24.189 -15.221  0.00  0.00    -0.379 OA
ATOM     19  H   UNL     1      29.766 -24.038 -15.672  0.00  0.00    +0.211 HD
ENDBRANCH   2  18
BRANCH   3  20
ATOM     20  O   UNL     1      32.023 -23.082 -13.136  0.00  0.00    -0.378 OA
ATOM     21  H   UNL     1      31.981 -22.196 -12.744  0.00  0.00    +0.211 HD
ENDBRANCH   3  20
BRANCH   4  22
ATOM     22  C   UNL     1      32.868 -22.353 -17.529  0.00  0.00    +0.094 C 
BRANCH  22  23
ATOM     23  S   UNL     1      33.599 -22.908 -19.078  0.00  0.00    -0.116 S 
BRANCH  23  24
ATOM     24  C   UNL     1      35.006 -21.857 -19.109  0.00  0.00    -0.003 C 
ATOM     25  C   UNL     1      35.909 -21.942 -18.112  0.00  0.00    -0.048 C 
BRANCH  24  26
ATOM     26  C   UNL     1      35.073 -20.873 -20.258  0.00  0.00    +0.032 C 
BRANCH  26  27
ATOM     27  C   UNL     1      33.738 -20.189 -20.589  0.00  0.00    +0.005 C 
BRANCH  27  28
ATOM     28  C   UNL     1      33.899 -18.753 -21.099  0.00  0.00    -0.002 C 
BRANCH  28  29
ATOM     29  C   UNL     1      35.349 -18.470 -21.505  0.00  0.00    -0.024 C 
BRANCH  29  30
ATOM     30  C   UNL     1      35.530 -18.316 -23.016  0.00  0.00    -0.086 C 
BRANCH  30  31
ATOM     31  N   UNL     1      35.712 -16.923 -23.405  0.00  0.00    +0.380 N 
ATOM     32  H   UNL     1      34.930 -16.629 -23.990  0.00  0.00    -0.089 HD
ATOM     33  H   UNL     1      36.583 -16.828 -23.927  0.00  0.00    -0.089 HD
ATOM     34  H   UNL     1      35.750 -16.339 -22.570  0.00  0.00    -0.089 HD
ENDBRANCH  30  31
ENDBRANCH  29  30
ENDBRANCH  28  29
ENDBRANCH  27  28
ENDBRANCH  26  27
ENDBRANCH  24  26
BRANCH  25  35
ATOM     35  C   UNL     1      37.145 -21.112 -17.918  0.00  0.00    -0.059 C 
BRANCH  35  36
ATOM     36  N   UNL     1      37.526 -21.043 -16.509  0.00  0.00    +0.383 N 
ATOM     37  H   UNL     1      38.077 -20.200 -16.347  0.00  0.00    -0.089 HD
ATOM     38  H   UNL     1      38.081 -21.864 -16.266  0.00  0.00    -0.089 HD
ATOM     39  H   UNL     1      36.687 -21.016 -15.931  0.00  0.00    -0.089 HD
ENDBRANCH  35  36
ENDBRANCH  25  35
ENDBRANCH  23  24
ENDBRANCH  22  23
ENDBRANCH   4  22
TORSDOF 14
ENDMDL
MODEL 9
REMARK VINA RESULT:      -8.3      2.318      9.977
REMARK  Name = 54325748
REMARK  14 active torsions:
REMARK  status: ('A' for Active; 'I' for Inactive)
REMARK    1  A    between atoms: C_2  and  O_18
REMARK    2  A    between atoms: C_3  and  O_20
REMARK    3  A    between atoms: C_4  and  C_22
REMARK    4  A    between atoms: C_5  and  N_6
REMARK    5  A    between atoms: C_22  and  S_23
REMARK    6  A    between atoms: S_23  and  C_24
REMARK    7  A    between atoms: C_24  and  C_26
REMARK    8  A    between atoms: C_25  and  C_35
REMARK    9  A    between atoms: C_26  and  C_27
REMARK   10  A    between atoms: C_27  and  C_28
REMARK   11  A    between atoms: C_28  and  C_29
REMARK   12  A    between atoms: C_29  and  C_30
REMARK   13  A    between atoms: C_30  and  N_31
REMARK   14  A    between atoms: C_35  and  N_36
REMARK                            x       y       z     vdW  Elec       q    Type
REMARK                         _______ _______ _______ _____ _____    ______ ____
ROOT
ATOM      1  O   UNL     1      32.059 -13.275 -22.307  0.00  0.00    -0.335 OA
ATOM      2  C   UNL     1      33.636 -13.648 -24.046  0.00  0.00    +0.169 C 
ATOM      3  C   UNL     1      33.573 -12.164 -23.749  0.00  0.00    +0.187 C 
ATOM      4  C   UNL     1      33.003 -14.252 -22.799  0.00  0.00    +0.157 C 
ATOM      5  C   UNL     1      32.230 -12.041 -23.035  0.00  0.00    +0.225 C 
ENDROOT
BRANCH   5   6
ATOM      6  N   UNL     1      32.157 -10.843 -22.118  0.00  0.00    -0.247 N 
ATOM      7  N   UNL     1      31.916  -9.670 -20.238  0.00  0.00    -0.242 NA
ATOM      8  N   UNL     1      32.555  -9.035 -23.691  0.00  0.00    -0.228 NA
ATOM      9  N   UNL     1      32.516  -6.865 -22.575  0.00  0.00    -0.229 NA
ATOM     10  C   UNL     1      32.310  -9.533 -22.469  0.00  0.00    +0.152 C 
ATOM     11  C   UNL     1      31.922 -10.875 -20.769  0.00  0.00    +0.223 C 
ATOM     12  C   UNL     1      32.156  -8.821 -21.290  0.00  0.00    +0.140 C 
ATOM     13  C   UNL     1      32.268  -7.436 -21.372  0.00  0.00    +0.143 C 
ATOM     14  C   UNL     1      32.642  -7.689 -23.643  0.00  0.00    +0.253 C 
ATOM     15  N   UNL     1      32.129  -6.636 -20.224  0.00  0.00    -0.342 N 
ATOM     16  H   UNL     1      32.210  -5.657 -20.294  0.00  0.00    +0.144 HD
ATOM     17  H   UNL     1      31.949  -7.054 -19.351  0.00  0.00    +0.144 HD
ENDBRANCH   5   6
BRANCH   2  18
ATOM     18  O   UNL     1      32.805 -13.969 -25.161  0.00  0.00    -0.379 OA
ATOM     19  H   UNL     1      32.626 -13.165 -25.673  0.00  0.00    +0.211 HD
ENDBRANCH   2  18
BRANCH   3  20
ATOM     20  O   UNL     1      33.655 -11.364 -24.911  0.00  0.00    -0.378 OA
ATOM     21  H   UNL     1      33.359 -11.878 -25.679  0.00  0.00    +0.211 HD
ENDBRANCH   3  20
BRANCH   4  22
ATOM     22  C   UNL     1      34.012 -14.538 -21.696  0.00  0.00    +0.094 C 
BRANCH  22  23
ATOM     23  S   UNL     1      33.603 -16.071 -20.844  0.00  0.00    -0.116 S 
BRANCH  23  24
ATOM     24  C   UNL     1      34.573 -17.181 -21.799  0.00  0.00    -0.003 C 
ATOM     25  C   UNL     1      34.517 -17.108 -23.144  0.00  0.00    -0.048 C 
BRANCH  24  26
ATOM     26  C   UNL     1      35.381 -18.196 -21.018  0.00  0.00    +0.032 C 
BRANCH  26  27
ATOM     27  C   UNL     1      34.856 -19.636 -21.112  0.00  0.00    +0.005 C 
BRANCH  27  28
ATOM     28  C   UNL     1      33.341 -19.747 -20.914  0.00  0.00    -0.002 C 
BRANCH  28  29
ATOM     29  C   UNL     1      33.001 -20.730 -19.789  0.00  0.00    -0.024 C 
BRANCH  29  30
ATOM     30  C   UNL     1      34.162 -21.657 -19.430  0.00  0.00    -0.086 C 
BRANCH  30  31
ATOM     31  N   UNL     1      33.751 -23.055 -19.384  0.00  0.00    +0.380 N 
ATOM     32  H   UNL     1      32.772 -23.111 -19.104  0.00  0.00    -0.089 HD
ATOM     33  H   UNL     1      34.328 -23.556 -18.709  0.00  0.00    -0.089 HD
ATOM     34  H   UNL     1      33.865 -23.473 -20.307  0.00  0.00    -0.089 HD
ENDBRANCH  30  31
ENDBRANCH  29  30
ENDBRANCH  28  29
ENDBRANCH  27  28
ENDBRANCH  26  27
ENDBRANCH  24  26
BRANCH  25  35
ATOM     35  C   UNL     1      35.218 -17.985 -24.142  0.00  0.00    -0.059 C 
BRANCH  35  36
ATOM     36  N   UNL     1      34.268 -18.781 -24.913  0.00  0.00    +0.383 N 
ATOM     37  H   UNL     1      34.757 -19.248 -25.677  0.00  0.00    -0.089 HD
ATOM     38  H   UNL     1      33.545 -18.172 -25.296  0.00  0.00    -0.089 HD
ATOM     39  H   UNL     1      33.840 -19.481 -24.308  0.00  0.00    -0.089 HD
ENDBRANCH  35  36
ENDBRANCH  25  35
ENDBRANCH  23  24
ENDBRANCH  22  23
ENDBRANCH   4  22
TORSDOF 14
ENDMDL
