MODEL 1
REMARK VINA RESULT:      -8.4      0.000      0.000
REMARK  Name = 9570
REMARK  6 active torsions:
REMARK  status: ('A' for Active; 'I' for Inactive)
REMARK    1  A    between atoms: C2*_2  and  O2*_17
REMARK    2  A    between atoms: C1*_3  and  N_6
REMARK    3  A    between atoms: C3*_4  and  O3*_19
REMARK    4  A    between atoms: C4*_5  and  C5*_21
REMARK    5  A    between atoms: C_13  and  S_15
REMARK    6  A    between atoms: C5*_21  and  O5*_22
REMARK                            x       y       z     vdW  Elec       q    Type
REMARK                         _______ _______ _______ _____ _____    ______ ____
ROOT
ATOM      1  O4* UNL     1      37.912 -23.747 -14.125  0.00  0.00    -0.333 OA
ATOM      2  C2* UNL     1      36.633 -25.544 -14.986  0.00  0.00    +0.187 C 
ATOM      3  C1* UNL     1      36.635 -24.046 -14.721  0.00  0.00    +0.225 C 
ATOM      4  C3* UNL     1      37.442 -26.060 -13.813  0.00  0.00    +0.171 C 
ATOM      5  C4* UNL     1      38.505 -24.978 -13.651  0.00  0.00    +0.175 C 
ENDROOT
BRANCH   3   6
ATOM      6  N   UNL     1      36.446 -23.230 -15.917  0.00  0.00    -0.247 N 
ATOM      7  N   UNL     1      36.918 -21.795 -17.560  0.00  0.00    -0.243 NA
ATOM      8  N   UNL     1      34.152 -23.783 -16.497  0.00  0.00    -0.228 NA
ATOM      9  N   UNL     1      33.431 -22.593 -18.502  0.00  0.00    -0.236 NA
ATOM     10  C   UNL     1      35.316 -23.142 -16.683  0.00  0.00    +0.151 C 
ATOM     11  C   UNL     1      37.379 -22.401 -16.486  0.00  0.00    +0.223 C 
ATOM     12  C   UNL     1      35.630 -22.250 -17.694  0.00  0.00    +0.132 C 
ATOM     13  C   UNL     1      34.633 -21.981 -18.627  0.00  0.00    +0.124 C 
ATOM     14  C   UNL     1      33.268 -23.444 -17.460  0.00  0.00    +0.252 C 
BRANCH  13  15
ATOM     15  S   UNL     1      34.928 -20.860 -19.952  0.00  0.00    -0.093 S 
ATOM     16  C   UNL     1      33.246 -20.331 -20.399  0.00  0.00    +0.076 C 
ENDBRANCH  13  15
ENDBRANCH   3   6
BRANCH   2  17
ATOM     17  O2* UNL     1      35.322 -26.070 -15.028  0.00  0.00    -0.378 OA
ATOM     18  H2* UNL     1      35.180 -26.647 -14.260  0.00  0.00    +0.211 HD
ENDBRANCH   2  17
BRANCH   4  19
ATOM     19  O3* UNL     1      36.624 -26.080 -12.643  0.00  0.00    -0.379 OA
ATOM     20  H3* UNL     1      36.771 -25.268 -12.132  0.00  0.00    +0.211 HD
ENDBRANCH   4  19
BRANCH   5  21
ATOM     21  C5* UNL     1      39.760 -25.253 -14.468  0.00  0.00    +0.169 C 
BRANCH  21  22
ATOM     22  O5* UNL     1      39.954 -26.654 -14.547  0.00  0.00    -0.379 OA
ATOM     23  H5* UNL     1      40.243 -26.989 -13.684  0.00  0.00    +0.211 HD
ENDBRANCH  21  22
ENDBRANCH   5  21
TORSDOF 6
ENDMDL
MODEL 2
REMARK VINA RESULT:      -8.1      2.566      3.860
REMARK  Name = 9570
REMARK  6 active torsions:
REMARK  status: ('A' for Active; 'I' for Inactive)
REMARK    1  A    between atoms: C2*_2  and  O2*_17
REMARK    2  A    between atoms: C1*_3  and  N_6
REMARK    3  A    between atoms: C3*_4  and  O3*_19
REMARK    4  A    between atoms: C4*_5  and  C5*_21
REMARK    5  A    between atoms: C_13  and  S_15
REMARK    6  A    between atoms: C5*_21  and  O5*_22
REMARK                            x       y       z     vdW  Elec       q    Type
REMARK                         _______ _______ _______ _____ _____    ______ ____
ROOT
ATOM      1  O4* UNL     1      36.699 -25.741 -14.454  0.00  0.00    -0.333 OA
ATOM      2  C2* UNL     1      37.312 -23.454 -14.485  0.00  0.00    +0.187 C 
ATOM      3  C1* UNL     1      36.346 -24.481 -15.057  0.00  0.00    +0.225 C 
ATOM      4  C3* UNL     1      38.574 -24.278 -14.329  0.00  0.00    +0.171 C 
ATOM      5  C4* UNL     1      38.025 -25.631 -13.887  0.00  0.00    +0.175 C 
ENDROOT
BRANCH   3   6
ATOM      6  N   UNL     1      34.940 -24.186 -14.795  0.00  0.00    -0.247 N 
ATOM      7  N   UNL     1      33.032 -23.962 -13.660  0.00  0.00    -0.243 NA
ATOM      8  N   UNL     1      34.192 -23.501 -17.003  0.00  0.00    -0.228 NA
ATOM      9  N   UNL     1      31.825 -22.906 -16.994  0.00  0.00    -0.236 NA
ATOM     10  C   UNL     1      34.010 -23.749 -15.697  0.00  0.00    +0.151 C 
ATOM     11  C   UNL     1      34.303 -24.299 -13.586  0.00  0.00    +0.223 C 
ATOM     12  C   UNL     1      32.836 -23.616 -14.974  0.00  0.00    +0.132 C 
ATOM     13  C   UNL     1      31.715 -23.176 -15.671  0.00  0.00    +0.124 C 
ATOM     14  C   UNL     1      33.039 -23.082 -17.569  0.00  0.00    +0.252 C 
BRANCH  13  15
ATOM     15  S   UNL     1      30.173 -22.974 -14.846  0.00  0.00    -0.093 S 
ATOM     16  C   UNL     1      29.417 -24.620 -15.021  0.00  0.00    +0.076 C 
ENDBRANCH  13  15
ENDBRANCH   3   6
BRANCH   2  17
ATOM     17  O2* UNL     1      37.476 -22.347 -15.347  0.00  0.00    -0.378 OA
ATOM     18  H2* UNL     1      38.385 -22.334 -15.687  0.00  0.00    +0.211 HD
ENDBRANCH   2  17
BRANCH   4  19
ATOM     19  O3* UNL     1      39.202 -24.431 -15.602  0.00  0.00    -0.379 OA
ATOM     20  H3* UNL     1      39.179 -23.585 -16.077  0.00  0.00    +0.211 HD
ENDBRANCH   4  19
BRANCH   5  21
ATOM     21  C5* UNL     1      37.912 -25.760 -12.374  0.00  0.00    +0.169 C 
BRANCH  21  22
ATOM     22  O5* UNL     1      36.748 -26.507 -12.068  0.00  0.00    -0.379 OA
ATOM     23  H5* UNL     1      36.455 -26.294 -11.168  0.00  0.00    +0.211 HD
ENDBRANCH  21  22
ENDBRANCH   5  21
TORSDOF 6
ENDMDL
MODEL 3
REMARK VINA RESULT:      -8.1      5.952      9.183
REMARK  Name = 9570
REMARK  6 active torsions:
REMARK  status: ('A' for Active; 'I' for Inactive)
REMARK    1  A    between atoms: C2*_2  and  O2*_17
REMARK    2  A    between atoms: C1*_3  and  N_6
REMARK    3  A    between atoms: C3*_4  and  O3*_19
REMARK    4  A    between atoms: C4*_5  and  C5*_21
REMARK    5  A    between atoms: C_13  and  S_15
REMARK    6  A    between atoms: C5*_21  and  O5*_22
REMARK                            x       y       z     vdW  Elec       q    Type
REMARK                         _______ _______ _______ _____ _____    ______ ____
ROOT
ATOM      1  O4* UNL     1      34.857 -17.067 -20.876  0.00  0.00    -0.333 OA
ATOM      2  C2* UNL     1      34.214 -17.999 -22.956  0.00  0.00    +0.187 C 
ATOM      3  C1* UNL     1      34.941 -18.280 -21.649  0.00  0.00    +0.225 C 
ATOM      4  C3* UNL     1      34.540 -16.536 -23.175  0.00  0.00    +0.171 C 
ATOM      5  C4* UNL     1      34.498 -15.977 -21.757  0.00  0.00    +0.175 C 
ENDROOT
BRANCH   3   6
ATOM      6  N   UNL     1      34.381 -19.391 -20.884  0.00  0.00    -0.247 N 
ATOM      7  N   UNL     1      32.858 -20.794 -20.054  0.00  0.00    -0.243 NA
ATOM      8  N   UNL     1      36.385 -20.296 -19.850  0.00  0.00    -0.228 NA
ATOM      9  N   UNL     1      35.867 -22.226 -18.448  0.00  0.00    -0.236 NA
ATOM     10  C   UNL     1      35.065 -20.270 -20.090  0.00  0.00    +0.151 C 
ATOM     11  C   UNL     1      33.059 -19.748 -20.828  0.00  0.00    +0.223 C 
ATOM     12  C   UNL     1      34.104 -21.130 -19.587  0.00  0.00    +0.132 C 
ATOM     13  C   UNL     1      34.546 -22.138 -18.736  0.00  0.00    +0.124 C 
ATOM     14  C   UNL     1      36.692 -21.313 -19.015  0.00  0.00    +0.252 C 
BRANCH  13  15
ATOM     15  S   UNL     1      33.405 -23.284 -18.041  0.00  0.00    -0.093 S 
ATOM     16  C   UNL     1      34.021 -23.465 -16.338  0.00  0.00    +0.076 C 
ENDBRANCH  13  15
ENDBRANCH   3   6
BRANCH   2  17
ATOM     17  O2* UNL     1      34.670 -18.831 -24.002  0.00  0.00    -0.378 OA
ATOM     18  H2* UNL     1      34.734 -19.746 -23.684  0.00  0.00    +0.211 HD
ENDBRANCH   2  17
BRANCH   4  19
ATOM     19  O3* UNL     1      35.872 -16.416 -23.677  0.00  0.00    -0.379 OA
ATOM     20  H3* UNL     1      35.852 -16.409 -24.647  0.00  0.00    +0.211 HD
ENDBRANCH   4  19
BRANCH   5  21
ATOM     21  C5* UNL     1      33.117 -15.473 -21.359  0.00  0.00    +0.169 C 
BRANCH  21  22
ATOM     22  O5* UNL     1      32.639 -14.609 -22.374  0.00  0.00    -0.379 OA
ATOM     23  H5* UNL     1      33.273 -14.589 -23.108  0.00  0.00    +0.211 HD
ENDBRANCH  21  22
ENDBRANCH   5  21
TORSDOF 6
ENDMDL
MODEL 4
REMARK VINA RESULT:      -7.8      2.556      3.770
REMARK  Name = 9570
REMARK  6 active torsions:
REMARK  status: ('A' for Active; 'I' for Inactive)
REMARK    1  A    between atoms: C2*_2  and  O2*_17
REMARK    2  A    between atoms: C1*_3  and  N_6
REMARK    3  A    between atoms: C3*_4  and  O3*_19
REMARK    4  A    between atoms: C4*_5  and  C5*_21
REMARK    5  A    between atoms: C_13  and  S_15
REMARK    6  A    between atoms: C5*_21  and  O5*_22
REMARK                            x       y       z     vdW  Elec       q    Type
REMARK                         _______ _______ _______ _____ _____    ______ ____
ROOT
ATOM      1  O4* UNL     1      36.268 -23.355 -14.094  0.00  0.00    -0.333 OA
ATOM      2  C2* UNL     1      36.115 -25.460 -15.168  0.00  0.00    +0.187 C 
ATOM      3  C1* UNL     1      35.466 -24.551 -14.135  0.00  0.00    +0.225 C 
ATOM      4  C3* UNL     1      37.583 -25.130 -14.982  0.00  0.00    +0.171 C 
ATOM      5  C4* UNL     1      37.547 -23.629 -14.711  0.00  0.00    +0.175 C 
ENDROOT
BRANCH   3   6
ATOM      6  N   UNL     1      34.079 -24.206 -14.434  0.00  0.00    -0.247 N 
ATOM      7  N   UNL     1      31.888 -23.919 -14.127  0.00  0.00    -0.243 NA
ATOM      8  N   UNL     1      34.273 -23.475 -16.743  0.00  0.00    -0.228 NA
ATOM      9  N   UNL     1      32.109 -22.792 -17.643  0.00  0.00    -0.236 NA
ATOM     10  C   UNL     1      33.588 -23.727 -15.617  0.00  0.00    +0.151 C 
ATOM     11  C   UNL     1      33.018 -24.304 -13.572  0.00  0.00    +0.223 C 
ATOM     12  C   UNL     1      32.230 -23.556 -15.405  0.00  0.00    +0.132 C 
ATOM     13  C   UNL     1      31.483 -23.068 -16.473  0.00  0.00    +0.124 C 
ATOM     14  C   UNL     1      33.445 -23.009 -17.704  0.00  0.00    +0.252 C 
BRANCH  13  15
ATOM     15  S   UNL     1      29.750 -22.815 -16.309  0.00  0.00    -0.093 S 
ATOM     16  C   UNL     1      29.116 -24.515 -16.175  0.00  0.00    +0.076 C 
ENDBRANCH  13  15
ENDBRANCH   3   6
BRANCH   2  17
ATOM     17  O2* UNL     1      35.820 -26.821 -14.933  0.00  0.00    -0.378 OA
ATOM     18  H2* UNL     1      36.152 -27.357 -15.671  0.00  0.00    +0.211 HD
ENDBRANCH   2  17
BRANCH   4  19
ATOM     19  O3* UNL     1      38.075 -25.795 -13.818  0.00  0.00    -0.379 OA
ATOM     20  H3* UNL     1      37.351 -26.282 -13.393  0.00  0.00    +0.211 HD
ENDBRANCH   4  19
BRANCH   5  21
ATOM     21  C5* UNL     1      37.656 -22.795 -15.980  0.00  0.00    +0.169 C 
BRANCH  21  22
ATOM     22  O5* UNL     1      36.607 -21.843 -15.989  0.00  0.00    -0.379 OA
ATOM     23  H5* UNL     1      36.176 -21.828 -15.120  0.00  0.00    +0.211 HD
ENDBRANCH  21  22
ENDBRANCH   5  21
TORSDOF 6
ENDMDL
MODEL 5
REMARK VINA RESULT:      -7.8      1.406      2.236
REMARK  Name = 9570
REMARK  6 active torsions:
REMARK  status: ('A' for Active; 'I' for Inactive)
REMARK    1  A    between atoms: C2*_2  and  O2*_17
REMARK    2  A    between atoms: C1*_3  and  N_6
REMARK    3  A    between atoms: C3*_4  and  O3*_19
REMARK    4  A    between atoms: C4*_5  and  C5*_21
REMARK    5  A    between atoms: C_13  and  S_15
REMARK    6  A    between atoms: C5*_21  and  O5*_22
REMARK                            x       y       z     vdW  Elec       q    Type
REMARK                         _______ _______ _______ _____ _____    ______ ____
ROOT
ATOM      1  O4* UNL     1      38.263 -23.865 -14.187  0.00  0.00    -0.333 OA
ATOM      2  C2* UNL     1      36.636 -25.242 -13.157  0.00  0.00    +0.187 C 
ATOM      3  C1* UNL     1      36.869 -23.896 -13.827  0.00  0.00    +0.225 C 
ATOM      4  C3* UNL     1      37.957 -25.459 -12.446  0.00  0.00    +0.171 C 
ATOM      5  C4* UNL     1      38.961 -24.892 -13.445  0.00  0.00    +0.175 C 
ENDROOT
BRANCH   3   6
ATOM      6  N   UNL     1      36.048 -23.672 -15.013  0.00  0.00    -0.247 N 
ATOM      7  N   UNL     1      34.360 -23.899 -16.455  0.00  0.00    -0.243 NA
ATOM      8  N   UNL     1      37.338 -21.958 -16.152  0.00  0.00    -0.228 NA
ATOM      9  N   UNL     1      36.273 -21.286 -18.243  0.00  0.00    -0.236 NA
ATOM     10  C   UNL     1      36.296 -22.793 -16.031  0.00  0.00    +0.151 C 
ATOM     11  C   UNL     1      34.873 -24.312 -15.315  0.00  0.00    +0.223 C 
ATOM     12  C   UNL     1      35.239 -22.949 -16.912  0.00  0.00    +0.132 C 
ATOM     13  C   UNL     1      35.249 -22.154 -18.054  0.00  0.00    +0.124 C 
ATOM     14  C   UNL     1      37.239 -21.242 -17.294  0.00  0.00    +0.252 C 
BRANCH  13  15
ATOM     15  S   UNL     1      33.953 -22.274 -19.238  0.00  0.00    -0.093 S 
ATOM     16  C   UNL     1      34.044 -20.664 -20.082  0.00  0.00    +0.076 C 
ENDBRANCH  13  15
ENDBRANCH   3   6
BRANCH   2  17
ATOM     17  O2* UNL     1      35.532 -25.209 -12.276  0.00  0.00    -0.378 OA
ATOM     18  H2* UNL     1      34.810 -24.703 -12.681  0.00  0.00    +0.211 HD
ENDBRANCH   2  17
BRANCH   4  19
ATOM     19  O3* UNL     1      37.993 -24.668 -11.258  0.00  0.00    -0.379 OA
ATOM     20  H3* UNL     1      37.333 -25.000 -10.629  0.00  0.00    +0.211 HD
ENDBRANCH   4  19
BRANCH   5  21
ATOM     21  C5* UNL     1      39.470 -25.934 -14.431  0.00  0.00    +0.169 C 
BRANCH  21  22
ATOM     22  O5* UNL     1      40.876 -25.798 -14.548  0.00  0.00    -0.379 OA
ATOM     23  H5* UNL     1      41.305 -26.195 -13.774  0.00  0.00    +0.211 HD
ENDBRANCH  21  22
ENDBRANCH   5  21
TORSDOF 6
ENDMDL
MODEL 6
REMARK VINA RESULT:      -7.7      3.343      4.553
REMARK  Name = 9570
REMARK  6 active torsions:
REMARK  status: ('A' for Active; 'I' for Inactive)
REMARK    1  A    between atoms: C2*_2  and  O2*_17
REMARK    2  A    between atoms: C1*_3  and  N_6
REMARK    3  A    between atoms: C3*_4  and  O3*_19
REMARK    4  A    between atoms: C4*_5  and  C5*_21
REMARK    5  A    between atoms: C_13  and  S_15
REMARK    6  A    between atoms: C5*_21  and  O5*_22
REMARK                            x       y       z     vdW  Elec       q    Type
REMARK                         _______ _______ _______ _____ _____    ______ ____
ROOT
ATOM      1  O4* UNL     1      35.543 -22.412 -15.006  0.00  0.00    -0.333 OA
ATOM      2  C2* UNL     1      35.774 -24.741 -15.364  0.00  0.00    +0.187 C 
ATOM      3  C1* UNL     1      34.871 -23.666 -14.778  0.00  0.00    +0.225 C 
ATOM      4  C3* UNL     1      37.149 -24.168 -15.083  0.00  0.00    +0.171 C 
ATOM      5  C4* UNL     1      36.932 -22.676 -15.314  0.00  0.00    +0.175 C 
ENDROOT
BRANCH   3   6
ATOM      6  N   UNL     1      33.536 -23.624 -15.368  0.00  0.00    -0.247 N 
ATOM      7  N   UNL     1      31.930 -23.246 -16.871  0.00  0.00    -0.243 NA
ATOM      8  N   UNL     1      32.205 -24.568 -13.569  0.00  0.00    -0.228 NA
ATOM      9  N   UNL     1      29.843 -24.677 -14.173  0.00  0.00    -0.236 NA
ATOM     10  C   UNL     1      32.368 -24.039 -14.790  0.00  0.00    +0.151 C 
ATOM     11  C   UNL     1      33.219 -23.156 -16.618  0.00  0.00    +0.223 C 
ATOM     12  C   UNL     1      31.387 -23.797 -15.737  0.00  0.00    +0.132 C 
ATOM     13  C   UNL     1      30.083 -24.138 -15.393  0.00  0.00    +0.124 C 
ATOM     14  C   UNL     1      30.903 -24.856 -13.349  0.00  0.00    +0.252 C 
BRANCH  13  15
ATOM     15  S   UNL     1      28.761 -23.871 -16.524  0.00  0.00    -0.093 S 
ATOM     16  C   UNL     1      27.898 -22.447 -15.789  0.00  0.00    +0.076 C 
ENDBRANCH  13  15
ENDBRANCH   3   6
BRANCH   2  17
ATOM     17  O2* UNL     1      35.563 -25.997 -14.752  0.00  0.00    -0.378 OA
ATOM     18  H2* UNL     1      36.160 -26.093 -13.994  0.00  0.00    +0.211 HD
ENDBRANCH   2  17
BRANCH   4  19
ATOM     19  O3* UNL     1      37.480 -24.378 -13.711  0.00  0.00    -0.379 OA
ATOM     20  H3* UNL     1      38.044 -23.652 -13.399  0.00  0.00    +0.211 HD
ENDBRANCH   4  19
BRANCH   5  21
ATOM     21  C5* UNL     1      37.193 -22.253 -16.753  0.00  0.00    +0.169 C 
BRANCH  21  22
ATOM     22  O5* UNL     1      37.261 -20.839 -16.806  0.00  0.00    -0.379 OA
ATOM     23  H5* UNL     1      36.627 -20.461 -16.176  0.00  0.00    +0.211 HD
ENDBRANCH  21  22
ENDBRANCH   5  21
TORSDOF 6
ENDMDL
MODEL 7
REMARK VINA RESULT:      -7.7      3.170      4.214
REMARK  Name = 9570
REMARK  6 active torsions:
REMARK  status: ('A' for Active; 'I' for Inactive)
REMARK    1  A    between atoms: C2*_2  and  O2*_17
REMARK    2  A    between atoms: C1*_3  and  N_6
REMARK    3  A    between atoms: C3*_4  and  O3*_19
REMARK    4  A    between atoms: C4*_5  and  C5*_21
REMARK    5  A    between atoms: C_13  and  S_15
REMARK    6  A    between atoms: C5*_21  and  O5*_22
REMARK                            x       y       z     vdW  Elec       q    Type
REMARK                         _______ _______ _______ _____ _____    ______ ____
ROOT
ATOM      1  O4* UNL     1      36.125 -24.541 -15.748  0.00  0.00    -0.333 OA
ATOM      2  C2* UNL     1      35.434 -24.248 -13.502  0.00  0.00    +0.187 C 
ATOM      3  C1* UNL     1      35.313 -23.693 -14.914  0.00  0.00    +0.225 C 
ATOM      4  C3* UNL     1      36.865 -24.746 -13.495  0.00  0.00    +0.171 C 
ATOM      5  C4* UNL     1      37.024 -25.301 -14.906  0.00  0.00    +0.175 C 
ENDROOT
BRANCH   3   6
ATOM      6  N   UNL     1      33.946 -23.661 -15.425  0.00  0.00    -0.247 N 
ATOM      7  N   UNL     1      32.252 -23.289 -16.830  0.00  0.00    -0.243 NA
ATOM      8  N   UNL     1      32.730 -24.628 -13.558  0.00  0.00    -0.228 NA
ATOM      9  N   UNL     1      30.338 -24.757 -14.026  0.00  0.00    -0.236 NA
ATOM     10  C   UNL     1      32.817 -24.090 -14.783  0.00  0.00    +0.151 C 
ATOM     11  C   UNL     1      33.553 -23.188 -16.651  0.00  0.00    +0.223 C 
ATOM     12  C   UNL     1      31.781 -23.852 -15.671  0.00  0.00    +0.132 C 
ATOM     13  C   UNL     1      30.502 -24.208 -15.254  0.00  0.00    +0.124 C 
ATOM     14  C   UNL     1      31.446 -24.931 -13.265  0.00  0.00    +0.252 C 
BRANCH  13  15
ATOM     15  S   UNL     1      29.114 -23.947 -16.305  0.00  0.00    -0.093 S 
ATOM     16  C   UNL     1      28.420 -22.394 -15.659  0.00  0.00    +0.076 C 
ENDBRANCH  13  15
ENDBRANCH   3   6
BRANCH   2  17
ATOM     17  O2* UNL     1      35.187 -23.259 -12.524  0.00  0.00    -0.378 OA
ATOM     18  H2* UNL     1      34.262 -23.314 -12.235  0.00  0.00    +0.211 HD
ENDBRANCH   2  17
BRANCH   4  19
ATOM     19  O3* UNL     1      37.753 -23.640 -13.332  0.00  0.00    -0.379 OA
ATOM     20  H3* UNL     1      37.689 -23.058 -14.106  0.00  0.00    +0.211 HD
ENDBRANCH   4  19
BRANCH   5  21
ATOM     21  C5* UNL     1      36.651 -26.773 -15.011  0.00  0.00    +0.169 C 
BRANCH  21  22
ATOM     22  O5* UNL     1      36.782 -27.179 -16.362  0.00  0.00    -0.379 OA
ATOM     23  H5* UNL     1      37.624 -26.853 -16.718  0.00  0.00    +0.211 HD
ENDBRANCH  21  22
ENDBRANCH   5  21
TORSDOF 6
ENDMDL
MODEL 8
REMARK VINA RESULT:      -7.6      3.107      4.015
REMARK  Name = 9570
REMARK  6 active torsions:
REMARK  status: ('A' for Active; 'I' for Inactive)
REMARK    1  A    between atoms: C2*_2  and  O2*_17
REMARK    2  A    between atoms: C1*_3  and  N_6
REMARK    3  A    between atoms: C3*_4  and  O3*_19
REMARK    4  A    between atoms: C4*_5  and  C5*_21
REMARK    5  A    between atoms: C_13  and  S_15
REMARK    6  A    between atoms: C5*_21  and  O5*_22
REMARK                            x       y       z     vdW  Elec       q    Type
REMARK                         _______ _______ _______ _____ _____    ______ ____
ROOT
ATOM      1  O4* UNL     1      35.439 -24.526 -12.628  0.00  0.00    -0.333 OA
ATOM      2  C2* UNL     1      36.693 -24.910 -14.600  0.00  0.00    +0.187 C 
ATOM      3  C1* UNL     1      35.327 -25.081 -13.953  0.00  0.00    +0.225 C 
ATOM      4  C3* UNL     1      37.615 -25.091 -13.411  0.00  0.00    +0.171 C 
ATOM      5  C4* UNL     1      36.841 -24.405 -12.291  0.00  0.00    +0.175 C 
ENDROOT
BRANCH   3   6
ATOM      6  N   UNL     1      34.241 -24.421 -14.673  0.00  0.00    -0.247 N 
ATOM      7  N   UNL     1      33.213 -23.184 -16.220  0.00  0.00    -0.243 NA
ATOM      8  N   UNL     1      32.325 -25.095 -13.341  0.00  0.00    -0.228 NA
ATOM      9  N   UNL     1      30.251 -24.173 -14.238  0.00  0.00    -0.236 NA
ATOM     10  C   UNL     1      32.909 -24.453 -14.363  0.00  0.00    +0.151 C 
ATOM     11  C   UNL     1      34.371 -23.645 -15.796  0.00  0.00    +0.223 C 
ATOM     12  C   UNL     1      32.291 -23.682 -15.333  0.00  0.00    +0.132 C 
ATOM     13  C   UNL     1      30.908 -23.552 -15.247  0.00  0.00    +0.124 C 
ATOM     14  C   UNL     1      30.988 -24.896 -13.361  0.00  0.00    +0.252 C 
BRANCH  13  15
ATOM     15  S   UNL     1      30.025 -22.593 -16.429  0.00  0.00    -0.093 S 
ATOM     16  C   UNL     1      28.294 -23.015 -16.060  0.00  0.00    +0.076 C 
ENDBRANCH  13  15
ENDBRANCH   3   6
BRANCH   2  17
ATOM     17  O2* UNL     1      36.914 -25.860 -15.623  0.00  0.00    -0.378 OA
ATOM     18  H2* UNL     1      37.510 -26.553 -15.297  0.00  0.00    +0.211 HD
ENDBRANCH   2  17
BRANCH   4  19
ATOM     19  O3* UNL     1      37.730 -26.481 -13.106  0.00  0.00    -0.379 OA
ATOM     20  H3* UNL     1      37.466 -26.633 -12.185  0.00  0.00    +0.211 HD
ENDBRANCH   4  19
BRANCH   5  21
ATOM     21  C5* UNL     1      37.176 -22.926 -12.159  0.00  0.00    +0.169 C 
BRANCH  21  22
ATOM     22  O5* UNL     1      38.472 -22.801 -11.601  0.00  0.00    -0.379 OA
ATOM     23  H5* UNL     1      38.858 -21.952 -11.866  0.00  0.00    +0.211 HD
ENDBRANCH  21  22
ENDBRANCH   5  21
TORSDOF 6
ENDMDL
MODEL 9
REMARK VINA RESULT:      -7.6      3.997      6.447
REMARK  Name = 9570
REMARK  6 active torsions:
REMARK  status: ('A' for Active; 'I' for Inactive)
REMARK    1  A    between atoms: C2*_2  and  O2*_17
REMARK    2  A    between atoms: C1*_3  and  N_6
REMARK    3  A    between atoms: C3*_4  and  O3*_19
REMARK    4  A    between atoms: C4*_5  and  C5*_21
REMARK    5  A    between atoms: C_13  and  S_15
REMARK    6  A    between atoms: C5*_21  and  O5*_22
REMARK                            x       y       z     vdW  Elec       q    Type
REMARK                         _______ _______ _______ _____ _____    ______ ____
ROOT
ATOM      1  O4* UNL     1      31.725 -23.069 -14.117  0.00  0.00    -0.333 OA
ATOM      2  C2* UNL     1      32.390 -23.863 -16.246  0.00  0.00    +0.187 C 
ATOM      3  C1* UNL     1      32.827 -23.038 -15.045  0.00  0.00    +0.225 C 
ATOM      4  C3* UNL     1      30.905 -23.562 -16.297  0.00  0.00    +0.171 C 
ATOM      5  C4* UNL     1      30.536 -23.500 -14.818  0.00  0.00    +0.175 C 
ENDROOT
BRANCH   3   6
ATOM      6  N   UNL     1      34.036 -23.532 -14.393  0.00  0.00    -0.247 N 
ATOM      7  N   UNL     1      35.323 -24.551 -12.881  0.00  0.00    -0.243 NA
ATOM      8  N   UNL     1      35.746 -22.741 -15.927  0.00  0.00    -0.228 NA
ATOM      9  N   UNL     1      37.978 -23.380 -15.175  0.00  0.00    -0.236 NA
ATOM     10  C   UNL     1      35.325 -23.376 -14.823  0.00  0.00    +0.151 C 
ATOM     11  C   UNL     1      34.089 -24.244 -13.222  0.00  0.00    +0.223 C 
ATOM     12  C   UNL     1      36.106 -24.014 -13.874  0.00  0.00    +0.132 C 
ATOM     13  C   UNL     1      37.482 -24.003 -14.080  0.00  0.00    +0.124 C 
ATOM     14  C   UNL     1      37.093 -22.797 -16.019  0.00  0.00    +0.252 C 
BRANCH  13  15
ATOM     15  S   UNL     1      38.563 -24.785 -12.933  0.00  0.00    -0.093 S 
ATOM     16  C   UNL     1      39.866 -25.451 -14.015  0.00  0.00    +0.076 C 
ENDBRANCH  13  15
ENDBRANCH   3   6
BRANCH   2  17
ATOM     17  O2* UNL     1      33.072 -23.482 -17.424  0.00  0.00    -0.378 OA
ATOM     18  H2* UNL     1      33.310 -22.543 -17.371  0.00  0.00    +0.211 HD
ENDBRANCH   2  17
BRANCH   4  19
ATOM     19  O3* UNL     1      30.701 -22.273 -16.876  0.00  0.00    -0.379 OA
ATOM     20  H3* UNL     1      30.635 -22.359 -17.840  0.00  0.00    +0.211 HD
ENDBRANCH   4  19
BRANCH   5  21
ATOM     21  C5* UNL     1      30.110 -24.849 -14.256  0.00  0.00    +0.169 C 
BRANCH  21  22
ATOM     22  O5* UNL     1      30.624 -24.977 -12.942  0.00  0.00    -0.379 OA
ATOM     23  H5* UNL     1      30.523 -25.894 -12.643  0.00  0.00    +0.211 HD
ENDBRANCH  21  22
ENDBRANCH   5  21
TORSDOF 6
ENDMDL
