MODEL 1
REMARK VINA RESULT:      -9.3      0.000      0.000
REMARK  Name = 247304
REMARK  3 active torsions:
REMARK  status: ('A' for Active; 'I' for Inactive)
REMARK    1  A    between atoms: C_5  and  O_19
REMARK    2  A    between atoms: C_17  and  O_21
REMARK    3  A    between atoms: C_18  and  O_23
REMARK                            x       y       z     vdW  Elec       q    Type
REMARK                         _______ _______ _______ _____ _____    ______ ____
ROOT
ATOM      1  C   UNL     1      34.404 -18.933 -21.645  0.00  0.00    +0.025 C 
ATOM      2  C   UNL     1      35.616 -19.829 -21.321  0.00  0.00    +0.003 C 
ATOM      3  C   UNL     1      35.528 -20.434 -19.921  0.00  0.00    +0.004 C 
ATOM      4  C   UNL     1      34.255 -21.330 -19.844  0.00  0.00    +0.022 C 
ATOM      5  C   UNL     1      34.822 -18.445 -23.044  0.00  0.00    +0.110 C 
ATOM      6  C   UNL     1      33.144 -19.806 -21.616  0.00  0.00    +0.003 C 
ATOM      7  C   UNL     1      36.812 -18.953 -21.684  0.00  0.00    +0.003 C 
ATOM      8  C   UNL     1      32.987 -20.544 -20.271  0.00  0.00    +0.004 C 
ATOM      9  C   UNL     1      36.327 -18.145 -22.901  0.00  0.00    +0.029 C 
ATOM     10  C   UNL     1      36.753 -21.280 -19.568  0.00  0.00    +0.005 C 
ATOM     11  C   UNL     1      34.212 -17.728 -20.688  0.00  0.00    +0.002 C 
ATOM     12  C   UNL     1      34.154 -22.034 -18.492  0.00  0.00    -0.023 C 
ATOM     13  C   UNL     1      36.669 -21.733 -18.113  0.00  0.00    +0.026 C 
ATOM     14  C   UNL     1      35.310 -22.252 -17.710  0.00  0.00    -0.023 C 
ATOM     15  C   UNL     1      32.933 -22.559 -18.034  0.00  0.00    +0.035 C 
ATOM     16  C   UNL     1      35.206 -22.932 -16.483  0.00  0.00    +0.035 C 
ATOM     17  C   UNL     1      32.847 -23.240 -16.818  0.00  0.00    +0.167 C 
ATOM     18  C   UNL     1      33.982 -23.422 -16.040  0.00  0.00    +0.167 C 
ENDROOT
BRANCH   5  19
ATOM     19  O   UNL     1      34.099 -17.307 -23.474  0.00  0.00    -0.384 OA
ATOM     20  H   UNL     1      33.203 -17.334 -23.102  0.00  0.00    +0.210 HD
ENDBRANCH   5  19
BRANCH  17  21
ATOM     21  O   UNL     1      31.642 -23.726 -16.409  0.00  0.00    -0.503 OA
ATOM     22  H   UNL     1      31.517 -23.978 -15.515  0.00  0.00    +0.292 HD
ENDBRANCH  17  21
BRANCH  18  23
ATOM     23  O   UNL     1      33.912 -24.081 -14.850  0.00  0.00    -0.503 OA
ATOM     24  H   UNL     1      33.681 -24.988 -14.831  0.00  0.00    +0.292 HD
ENDBRANCH  18  23
TORSDOF 3
ENDMDL
MODEL 2
REMARK VINA RESULT:      -8.6      4.609      7.687
REMARK  Name = 247304
REMARK  3 active torsions:
REMARK  status: ('A' for Active; 'I' for Inactive)
REMARK    1  A    between atoms: C_5  and  O_19
REMARK    2  A    between atoms: C_17  and  O_21
REMARK    3  A    between atoms: C_18  and  O_23
REMARK                            x       y       z     vdW  Elec       q    Type
REMARK                         _______ _______ _______ _____ _____    ______ ____
ROOT
ATOM      1  C   UNL     1      37.038 -25.131 -13.606  0.00  0.00    +0.025 C 
ATOM      2  C   UNL     1      37.085 -24.010 -14.663  0.00  0.00    +0.003 C 
ATOM      3  C   UNL     1      35.773 -23.891 -15.438  0.00  0.00    +0.004 C 
ATOM      4  C   UNL     1      34.633 -23.537 -14.436  0.00  0.00    +0.022 C 
ATOM      5  C   UNL     1      38.480 -25.034 -13.075  0.00  0.00    +0.110 C 
ATOM      6  C   UNL     1      35.949 -24.780 -12.586  0.00  0.00    +0.003 C 
ATOM      7  C   UNL     1      38.380 -24.291 -15.422  0.00  0.00    +0.003 C 
ATOM      8  C   UNL     1      34.582 -24.550 -13.261  0.00  0.00    +0.004 C 
ATOM      9  C   UNL     1      39.333 -24.837 -14.344  0.00  0.00    +0.029 C 
ATOM     10  C   UNL     1      35.828 -22.818 -16.527  0.00  0.00    +0.005 C 
ATOM     11  C   UNL     1      36.767 -26.549 -14.175  0.00  0.00    +0.002 C 
ATOM     12  C   UNL     1      33.307 -23.320 -15.160  0.00  0.00    -0.023 C 
ATOM     13  C   UNL     1      34.546 -22.850 -17.352  0.00  0.00    +0.026 C 
ATOM     14  C   UNL     1      33.287 -22.956 -16.525  0.00  0.00    -0.023 C 
ATOM     15  C   UNL     1      32.082 -23.389 -14.474  0.00  0.00    +0.035 C 
ATOM     16  C   UNL     1      32.059 -22.726 -17.170  0.00  0.00    +0.035 C 
ATOM     17  C   UNL     1      30.870 -23.150 -15.125  0.00  0.00    +0.167 C 
ATOM     18  C   UNL     1      30.858 -22.824 -16.475  0.00  0.00    +0.167 C 
ENDROOT
BRANCH   5  19
ATOM     19  O   UNL     1      38.881 -26.179 -12.346  0.00  0.00    -0.384 OA
ATOM     20  H   UNL     1      38.171 -26.839 -12.366  0.00  0.00    +0.210 HD
ENDBRANCH   5  19
BRANCH  17  21
ATOM     21  O   UNL     1      29.706 -23.236 -14.423  0.00  0.00    -0.503 OA
ATOM     22  H   UNL     1      29.374 -24.073 -14.167  0.00  0.00    +0.292 HD
ENDBRANCH  17  21
BRANCH  18  23
ATOM     23  O   UNL     1      29.684 -22.592 -17.124  0.00  0.00    -0.503 OA
ATOM     24  H   UNL     1      28.982 -23.209 -17.056  0.00  0.00    +0.292 HD
ENDBRANCH  18  23
TORSDOF 3
ENDMDL
MODEL 3
REMARK VINA RESULT:      -8.6      5.357      7.306
REMARK  Name = 247304
REMARK  3 active torsions:
REMARK  status: ('A' for Active; 'I' for Inactive)
REMARK    1  A    between atoms: C_5  and  O_19
REMARK    2  A    between atoms: C_17  and  O_21
REMARK    3  A    between atoms: C_18  and  O_23
REMARK                            x       y       z     vdW  Elec       q    Type
REMARK                         _______ _______ _______ _____ _____    ______ ____
ROOT
ATOM      1  C   UNL     1      30.890 -23.784 -14.934  0.00  0.00    +0.025 C 
ATOM      2  C   UNL     1      31.915 -23.608 -16.072  0.00  0.00    +0.003 C 
ATOM      3  C   UNL     1      33.330 -23.374 -15.544  0.00  0.00    +0.004 C 
ATOM      4  C   UNL     1      33.765 -24.622 -14.716  0.00  0.00    +0.022 C 
ATOM      5  C   UNL     1      29.607 -23.925 -15.773  0.00  0.00    +0.110 C 
ATOM      6  C   UNL     1      31.277 -25.032 -14.132  0.00  0.00    +0.003 C 
ATOM      7  C   UNL     1      31.269 -22.557 -16.972  0.00  0.00    +0.003 C 
ATOM      8  C   UNL     1      32.726 -24.954 -13.612  0.00  0.00    +0.004 C 
ATOM      9  C   UNL     1      29.763 -22.858 -16.876  0.00  0.00    +0.029 C 
ATOM     10  C   UNL     1      34.345 -23.143 -16.665  0.00  0.00    +0.005 C 
ATOM     11  C   UNL     1      30.774 -22.574 -13.971  0.00  0.00    +0.002 C 
ATOM     12  C   UNL     1      35.206 -24.488 -14.230  0.00  0.00    -0.023 C 
ATOM     13  C   UNL     1      35.700 -22.776 -16.068  0.00  0.00    +0.026 C 
ATOM     14  C   UNL     1      36.115 -23.644 -14.905  0.00  0.00    -0.023 C 
ATOM     15  C   UNL     1      35.688 -25.262 -13.159  0.00  0.00    +0.035 C 
ATOM     16  C   UNL     1      37.448 -23.557 -14.466  0.00  0.00    +0.035 C 
ATOM     17  C   UNL     1      37.017 -25.172 -12.739  0.00  0.00    +0.167 C 
ATOM     18  C   UNL     1      37.895 -24.316 -13.390  0.00  0.00    +0.167 C 
ENDROOT
BRANCH   5  19
ATOM     19  O   UNL     1      28.426 -23.730 -15.018  0.00  0.00    -0.384 OA
ATOM     20  H   UNL     1      28.128 -24.581 -14.659  0.00  0.00    +0.210 HD
ENDBRANCH   5  19
BRANCH  17  21
ATOM     21  O   UNL     1      37.439 -25.933 -11.692  0.00  0.00    -0.503 OA
ATOM     22  H   UNL     1      36.896 -26.623 -11.365  0.00  0.00    +0.292 HD
ENDBRANCH  17  21
BRANCH  18  23
ATOM     23  O   UNL     1      39.193 -24.215 -12.988  0.00  0.00    -0.503 OA
ATOM     24  H   UNL     1      39.760 -23.587 -13.391  0.00  0.00    +0.292 HD
ENDBRANCH  18  23
TORSDOF 3
ENDMDL
MODEL 4
REMARK VINA RESULT:      -8.5      7.548     11.823
REMARK  Name = 247304
REMARK  3 active torsions:
REMARK  status: ('A' for Active; 'I' for Inactive)
REMARK    1  A    between atoms: C_5  and  O_19
REMARK    2  A    between atoms: C_17  and  O_21
REMARK    3  A    between atoms: C_18  and  O_23
REMARK                            x       y       z     vdW  Elec       q    Type
REMARK                         _______ _______ _______ _____ _____    ______ ____
ROOT
ATOM      1  C   UNL     1      33.211 -14.010 -22.286  0.00  0.00    +0.025 C 
ATOM      2  C   UNL     1      32.229 -13.529 -21.198  0.00  0.00    +0.003 C 
ATOM      3  C   UNL     1      32.383 -12.038 -20.900  0.00  0.00    +0.004 C 
ATOM      4  C   UNL     1      32.067 -11.235 -22.199  0.00  0.00    +0.022 C 
ATOM      5  C   UNL     1      32.857 -15.509 -22.296  0.00  0.00    +0.110 C 
ATOM      6  C   UNL     1      32.889 -13.262 -23.584  0.00  0.00    +0.003 C 
ATOM      7  C   UNL     1      32.424 -14.541 -20.072  0.00  0.00    +0.003 C 
ATOM      8  C   UNL     1      32.928 -11.733 -23.391  0.00  0.00    +0.004 C 
ATOM      9  C   UNL     1      32.702 -15.866 -20.804  0.00  0.00    +0.029 C 
ATOM     10  C   UNL     1      31.452 -11.562 -19.784  0.00  0.00    +0.005 C 
ATOM     11  C   UNL     1      34.710 -13.812 -21.941  0.00  0.00    +0.002 C 
ATOM     12  C   UNL     1      32.120  -9.731 -21.946  0.00  0.00    -0.023 C 
ATOM     13  C   UNL     1      31.757 -10.108 -19.440  0.00  0.00    +0.026 C 
ATOM     14  C   UNL     1      31.930  -9.215 -20.645  0.00  0.00    -0.023 C 
ATOM     15  C   UNL     1      32.270  -8.819 -23.006  0.00  0.00    +0.035 C 
ATOM     16  C   UNL     1      31.948  -7.825 -20.433  0.00  0.00    +0.035 C 
ATOM     17  C   UNL     1      32.276  -7.440 -22.783  0.00  0.00    +0.167 C 
ATOM     18  C   UNL     1      32.121  -6.944 -21.495  0.00  0.00    +0.167 C 
ENDROOT
BRANCH   5  19
ATOM     19  O   UNL     1      33.841 -16.306 -22.927  0.00  0.00    -0.384 OA
ATOM     20  H   UNL     1      33.814 -16.155 -23.884  0.00  0.00    +0.210 HD
ENDBRANCH   5  19
BRANCH  17  21
ATOM     21  O   UNL     1      32.433  -6.594 -23.838  0.00  0.00    -0.503 OA
ATOM     22  H   UNL     1      32.260  -6.892 -24.708  0.00  0.00    +0.292 HD
ENDBRANCH  17  21
BRANCH  18  23
ATOM     23  O   UNL     1      32.129  -5.602 -21.262  0.00  0.00    -0.503 OA
ATOM     24  H   UNL     1      31.321  -5.138 -21.172  0.00  0.00    +0.292 HD
ENDBRANCH  18  23
TORSDOF 3
ENDMDL
MODEL 5
REMARK VINA RESULT:      -8.4      3.005      7.610
REMARK  Name = 247304
REMARK  3 active torsions:
REMARK  status: ('A' for Active; 'I' for Inactive)
REMARK    1  A    between atoms: C_5  and  O_19
REMARK    2  A    between atoms: C_17  and  O_21
REMARK    3  A    between atoms: C_18  and  O_23
REMARK                            x       y       z     vdW  Elec       q    Type
REMARK                         _______ _______ _______ _____ _____    ______ ____
ROOT
ATOM      1  C   UNL     1      36.483 -25.142 -14.074  0.00  0.00    +0.025 C 
ATOM      2  C   UNL     1      37.140 -23.757 -14.240  0.00  0.00    +0.003 C 
ATOM      3  C   UNL     1      37.004 -23.220 -15.664  0.00  0.00    +0.004 C 
ATOM      4  C   UNL     1      35.489 -23.057 -15.992  0.00  0.00    +0.022 C 
ATOM      5  C   UNL     1      36.846 -25.416 -12.603  0.00  0.00    +0.110 C 
ATOM      6  C   UNL     1      34.982 -24.994 -14.352  0.00  0.00    +0.003 C 
ATOM      7  C   UNL     1      38.532 -23.952 -13.644  0.00  0.00    +0.003 C 
ATOM      8  C   UNL     1      34.713 -24.376 -15.739  0.00  0.00    +0.004 C 
ATOM      9  C   UNL     1      38.307 -24.938 -12.484  0.00  0.00    +0.029 C 
ATOM     10  C   UNL     1      37.701 -21.872 -15.853  0.00  0.00    +0.005 C 
ATOM     11  C   UNL     1      37.065 -26.251 -14.989  0.00  0.00    +0.002 C 
ATOM     12  C   UNL     1      35.285 -22.442 -17.375  0.00  0.00    -0.023 C 
ATOM     13  C   UNL     1      37.651 -21.464 -17.322  0.00  0.00    +0.026 C 
ATOM     14  C   UNL     1      36.300 -21.659 -17.968  0.00  0.00    -0.023 C 
ATOM     15  C   UNL     1      34.058 -22.562 -18.051  0.00  0.00    +0.035 C 
ATOM     16  C   UNL     1      36.085 -21.071 -19.227  0.00  0.00    +0.035 C 
ATOM     17  C   UNL     1      33.856 -21.964 -19.298  0.00  0.00    +0.167 C 
ATOM     18  C   UNL     1      34.871 -21.223 -19.887  0.00  0.00    +0.167 C 
ENDROOT
BRANCH   5  19
ATOM     19  O   UNL     1      36.708 -26.777 -12.243  0.00  0.00    -0.384 OA
ATOM     20  H   UNL     1      35.879 -27.125 -12.606  0.00  0.00    +0.210 HD
ENDBRANCH   5  19
BRANCH  17  21
ATOM     21  O   UNL     1      32.654 -22.114 -19.922  0.00  0.00    -0.503 OA
ATOM     22  H   UNL     1      32.575 -22.693 -20.653  0.00  0.00    +0.292 HD
ENDBRANCH  17  21
BRANCH  18  23
ATOM     23  O   UNL     1      34.688 -20.639 -21.104  0.00  0.00    -0.503 OA
ATOM     24  H   UNL     1      35.428 -20.436 -21.641  0.00  0.00    +0.292 HD
ENDBRANCH  18  23
TORSDOF 3
ENDMDL
MODEL 6
REMARK VINA RESULT:      -8.3      8.064     11.218
REMARK  Name = 247304
REMARK  3 active torsions:
REMARK  status: ('A' for Active; 'I' for Inactive)
REMARK    1  A    between atoms: C_5  and  O_19
REMARK    2  A    between atoms: C_17  and  O_21
REMARK    3  A    between atoms: C_18  and  O_23
REMARK                            x       y       z     vdW  Elec       q    Type
REMARK                         _______ _______ _______ _____ _____    ______ ____
ROOT
ATOM      1  C   UNL     1      32.136  -8.053 -21.863  0.00  0.00    +0.025 C 
ATOM      2  C   UNL     1      32.360  -8.579 -23.295  0.00  0.00    +0.003 C 
ATOM      3  C   UNL     1      33.027  -9.953 -23.308  0.00  0.00    +0.004 C 
ATOM      4  C   UNL     1      32.093 -10.968 -22.581  0.00  0.00    +0.022 C 
ATOM      5  C   UNL     1      31.535  -6.674 -22.195  0.00  0.00    +0.110 C 
ATOM      6  C   UNL     1      31.184  -9.016 -21.145  0.00  0.00    +0.003 C 
ATOM      7  C   UNL     1      33.042  -7.409 -24.000  0.00  0.00    +0.003 C 
ATOM      8  C   UNL     1      31.710 -10.465 -21.164  0.00  0.00    +0.004 C 
ATOM      9  C   UNL     1      32.396  -6.164 -23.367  0.00  0.00    +0.029 C 
ATOM     10  C   UNL     1      33.305 -10.460 -24.724  0.00  0.00    +0.005 C 
ATOM     11  C   UNL     1      33.428  -7.889 -21.022  0.00  0.00    +0.002 C 
ATOM     12  C   UNL     1      32.665 -12.382 -22.633  0.00  0.00    -0.023 C 
ATOM     13  C   UNL     1      34.097 -11.762 -24.663  0.00  0.00    +0.026 C 
ATOM     14  C   UNL     1      33.577 -12.750 -23.647  0.00  0.00    -0.023 C 
ATOM     15  C   UNL     1      32.235 -13.375 -21.735  0.00  0.00    +0.035 C 
ATOM     16  C   UNL     1      34.069 -14.066 -23.703  0.00  0.00    +0.035 C 
ATOM     17  C   UNL     1      32.726 -14.680 -21.807  0.00  0.00    +0.167 C 
ATOM     18  C   UNL     1      33.646 -15.025 -22.788  0.00  0.00    +0.167 C 
ENDROOT
BRANCH   5  19
ATOM     19  O   UNL     1      31.558  -5.781 -21.098  0.00  0.00    -0.384 OA
ATOM     20  H   UNL     1      31.921  -6.233 -20.321  0.00  0.00    +0.210 HD
ENDBRANCH   5  19
BRANCH  17  21
ATOM     21  O   UNL     1      32.289 -15.608 -20.911  0.00  0.00    -0.503 OA
ATOM     22  H   UNL     1      32.832 -15.855 -20.189  0.00  0.00    +0.292 HD
ENDBRANCH  17  21
BRANCH  18  23
ATOM     23  O   UNL     1      34.136 -16.293 -22.867  0.00  0.00    -0.503 OA
ATOM     24  H   UNL     1      34.764 -16.511 -23.527  0.00  0.00    +0.292 HD
ENDBRANCH  18  23
TORSDOF 3
ENDMDL
MODEL 7
REMARK VINA RESULT:      -8.3      1.920      7.071
REMARK  Name = 247304
REMARK  3 active torsions:
REMARK  status: ('A' for Active; 'I' for Inactive)
REMARK    1  A    between atoms: C_5  and  O_19
REMARK    2  A    between atoms: C_17  and  O_21
REMARK    3  A    between atoms: C_18  and  O_23
REMARK                            x       y       z     vdW  Elec       q    Type
REMARK                         _______ _______ _______ _____ _____    ______ ____
ROOT
ATOM      1  C   UNL     1      36.337 -23.100 -15.691  0.00  0.00    +0.025 C 
ATOM      2  C   UNL     1      35.188 -23.563 -16.609  0.00  0.00    +0.003 C 
ATOM      3  C   UNL     1      34.720 -22.456 -17.553  0.00  0.00    +0.004 C 
ATOM      4  C   UNL     1      35.912 -22.049 -18.471  0.00  0.00    +0.022 C 
ATOM      5  C   UNL     1      36.516 -24.378 -14.852  0.00  0.00    +0.110 C 
ATOM      6  C   UNL     1      37.535 -22.735 -16.576  0.00  0.00    +0.003 C 
ATOM      7  C   UNL     1      34.189 -24.188 -15.638  0.00  0.00    +0.003 C 
ATOM      8  C   UNL     1      37.166 -21.678 -17.636  0.00  0.00    +0.004 C 
ATOM      9  C   UNL     1      35.074 -24.838 -14.559  0.00  0.00    +0.029 C 
ATOM     10  C   UNL     1      33.543 -22.887 -18.428  0.00  0.00    +0.005 C 
ATOM     11  C   UNL     1      35.993 -21.897 -14.775  0.00  0.00    +0.002 C 
ATOM     12  C   UNL     1      35.487 -21.002 -19.499  0.00  0.00    -0.023 C 
ATOM     13  C   UNL     1      33.037 -21.698 -19.239  0.00  0.00    +0.026 C 
ATOM     14  C   UNL     1      34.132 -20.880 -19.879  0.00  0.00    -0.023 C 
ATOM     15  C   UNL     1      36.436 -20.199 -20.155  0.00  0.00    +0.035 C 
ATOM     16  C   UNL     1      33.760 -19.935 -20.851  0.00  0.00    +0.035 C 
ATOM     17  C   UNL     1      36.054 -19.270 -21.126  0.00  0.00    +0.167 C 
ATOM     18  C   UNL     1      34.715 -19.135 -21.470  0.00  0.00    +0.167 C 
ENDROOT
BRANCH   5  19
ATOM     19  O   UNL     1      37.250 -24.161 -13.661  0.00  0.00    -0.384 OA
ATOM     20  H   UNL     1      37.894 -23.450 -13.804  0.00  0.00    +0.210 HD
ENDBRANCH   5  19
BRANCH  17  21
ATOM     21  O   UNL     1      37.005 -18.506 -21.731  0.00  0.00    -0.503 OA
ATOM     22  H   UNL     1      37.179 -18.610 -22.645  0.00  0.00    +0.292 HD
ENDBRANCH  17  21
BRANCH  18  23
ATOM     23  O   UNL     1      34.328 -18.231 -22.412  0.00  0.00    -0.503 OA
ATOM     24  H   UNL     1      34.887 -18.045 -23.140  0.00  0.00    +0.292 HD
ENDBRANCH  18  23
TORSDOF 3
ENDMDL
MODEL 8
REMARK VINA RESULT:      -8.1      9.349     12.047
REMARK  Name = 247304
REMARK  3 active torsions:
REMARK  status: ('A' for Active; 'I' for Inactive)
REMARK    1  A    between atoms: C_5  and  O_19
REMARK    2  A    between atoms: C_17  and  O_21
REMARK    3  A    between atoms: C_18  and  O_23
REMARK                            x       y       z     vdW  Elec       q    Type
REMARK                         _______ _______ _______ _____ _____    ______ ____
ROOT
ATOM      1  C   UNL     1      32.498  -8.227 -22.535  0.00  0.00    +0.025 C 
ATOM      2  C   UNL     1      32.685  -9.538 -21.746  0.00  0.00    +0.003 C 
ATOM      3  C   UNL     1      32.444 -10.774 -22.612  0.00  0.00    +0.004 C 
ATOM      4  C   UNL     1      33.486 -10.778 -23.773  0.00  0.00    +0.022 C 
ATOM      5  C   UNL     1      32.733  -7.216 -21.398  0.00  0.00    +0.110 C 
ATOM      6  C   UNL     1      33.542  -8.193 -23.657  0.00  0.00    +0.003 C 
ATOM      7  C   UNL     1      31.834  -9.325 -20.496  0.00  0.00    +0.003 C 
ATOM      8  C   UNL     1      33.457  -9.440 -24.559  0.00  0.00    +0.004 C 
ATOM      9  C   UNL     1      31.981  -7.822 -20.197  0.00  0.00    +0.029 C 
ATOM     10  C   UNL     1      32.573 -12.079 -21.825  0.00  0.00    +0.005 C 
ATOM     11  C   UNL     1      31.085  -8.032 -23.146  0.00  0.00    +0.002 C 
ATOM     12  C   UNL     1      33.354 -12.034 -24.630  0.00  0.00    -0.023 C 
ATOM     13  C   UNL     1      32.182 -13.258 -22.710  0.00  0.00    +0.026 C 
ATOM     14  C   UNL     1      32.774 -13.207 -24.098  0.00  0.00    -0.023 C 
ATOM     15  C   UNL     1      33.883 -12.087 -25.932  0.00  0.00    +0.035 C 
ATOM     16  C   UNL     1      32.691 -14.368 -24.888  0.00  0.00    +0.035 C 
ATOM     17  C   UNL     1      33.801 -13.249 -26.702  0.00  0.00    +0.167 C 
ATOM     18  C   UNL     1      33.200 -14.387 -26.182  0.00  0.00    +0.167 C 
ENDROOT
BRANCH   5  19
ATOM     19  O   UNL     1      32.268  -5.916 -21.707  0.00  0.00    -0.384 OA
ATOM     20  H   UNL     1      32.457  -5.320 -20.966  0.00  0.00    +0.210 HD
ENDBRANCH   5  19
BRANCH  17  21
ATOM     21  O   UNL     1      34.318 -13.252 -27.962  0.00  0.00    -0.503 OA
ATOM     22  H   UNL     1      35.228 -13.075 -28.096  0.00  0.00    +0.292 HD
ENDBRANCH  17  21
BRANCH  18  23
ATOM     23  O   UNL     1      33.110 -15.526 -26.924  0.00  0.00    -0.503 OA
ATOM     24  H   UNL     1      32.607 -16.251 -26.609  0.00  0.00    +0.292 HD
ENDBRANCH  18  23
TORSDOF 3
ENDMDL
MODEL 9
REMARK VINA RESULT:      -8.1      2.838      4.254
REMARK  Name = 247304
REMARK  3 active torsions:
REMARK  status: ('A' for Active; 'I' for Inactive)
REMARK    1  A    between atoms: C_5  and  O_19
REMARK    2  A    between atoms: C_17  and  O_21
REMARK    3  A    between atoms: C_18  and  O_23
REMARK                            x       y       z     vdW  Elec       q    Type
REMARK                         _______ _______ _______ _____ _____    ______ ____
ROOT
ATOM      1  C   UNL     1      32.808 -15.041 -21.565  0.00  0.00    +0.025 C 
ATOM      2  C   UNL     1      33.833 -15.786 -22.444  0.00  0.00    +0.003 C 
ATOM      3  C   UNL     1      34.439 -16.992 -21.729  0.00  0.00    +0.004 C 
ATOM      4  C   UNL     1      33.296 -17.998 -21.394  0.00  0.00    +0.022 C 
ATOM      5  C   UNL     1      32.455 -13.885 -22.520  0.00  0.00    +0.110 C 
ATOM      6  C   UNL     1      31.654 -16.002 -21.260  0.00  0.00    +0.003 C 
ATOM      7  C   UNL     1      34.752 -14.671 -22.941  0.00  0.00    +0.003 C 
ATOM      8  C   UNL     1      32.151 -17.307 -20.607  0.00  0.00    +0.004 C 
ATOM      9  C   UNL     1      33.813 -13.464 -23.116  0.00  0.00    +0.029 C 
ATOM     10  C   UNL     1      35.498 -17.705 -22.572  0.00  0.00    +0.005 C 
ATOM     11  C   UNL     1      33.377 -14.485 -20.234  0.00  0.00    +0.002 C 
ATOM     12  C   UNL     1      33.848 -19.268 -20.752  0.00  0.00    -0.023 C 
ATOM     13  C   UNL     1      36.161 -18.805 -21.748  0.00  0.00    +0.026 C 
ATOM     14  C   UNL     1      35.190 -19.655 -20.964  0.00  0.00    -0.023 C 
ATOM     15  C   UNL     1      33.019 -20.129 -20.010  0.00  0.00    +0.035 C 
ATOM     16  C   UNL     1      35.675 -20.845 -20.394  0.00  0.00    +0.035 C 
ATOM     17  C   UNL     1      33.512 -21.313 -19.457  0.00  0.00    +0.167 C 
ATOM     18  C   UNL     1      34.840 -21.668 -19.644  0.00  0.00    +0.167 C 
ENDROOT
BRANCH   5  19
ATOM     19  O   UNL     1      31.811 -12.806 -21.869  0.00  0.00    -0.384 OA
ATOM     20  H   UNL     1      32.473 -12.153 -21.594  0.00  0.00    +0.210 HD
ENDBRANCH   5  19
BRANCH  17  21
ATOM     21  O   UNL     1      32.675 -22.112 -18.738  0.00  0.00    -0.503 OA
ATOM     22  H   UNL     1      32.234 -22.825 -19.156  0.00  0.00    +0.292 HD
ENDBRANCH  17  21
BRANCH  18  23
ATOM     23  O   UNL     1      35.335 -22.818 -19.107  0.00  0.00    -0.503 OA
ATOM     24  H   UNL     1      36.236 -23.041 -19.230  0.00  0.00    +0.292 HD
ENDBRANCH  18  23
TORSDOF 3
ENDMDL
