MODEL 1
REMARK VINA RESULT:      -8.6      0.000      0.000
REMARK  Name = 3699841
REMARK  2 active torsions:
REMARK  status: ('A' for Active; 'I' for Inactive)
REMARK    1  A    between atoms: C_2  and  C_9
REMARK    2  A    between atoms: C_9  and  C_11
REMARK                            x       y       z     vdW  Elec       q    Type
REMARK                         _______ _______ _______ _____ _____    ______ ____
ROOT
ATOM      1  N   UNL     1      34.649 -16.844 -25.250  0.00  0.00    +0.384 N 
ATOM      2  C   UNL     1      34.943 -18.175 -22.649  0.00  0.00    +0.000 C 
ATOM      3  C   UNL     1      35.236 -16.682 -22.847  0.00  0.00    -0.023 C 
ATOM      4  C   UNL     1      35.111 -18.922 -23.978  0.00  0.00    -0.023 C 
ATOM      5  C   UNL     1      34.422 -16.107 -24.005  0.00  0.00    -0.082 C 
ATOM      6  C   UNL     1      34.302 -18.259 -25.092  0.00  0.00    -0.082 C 
ATOM      7  H   UNL     1      35.633 -16.769 -25.508  0.00  0.00    -0.085 HD
ATOM      8  H   UNL     1      34.058 -16.444 -25.979  0.00  0.00    -0.085 HD
ENDROOT
BRANCH   2   9
ATOM      9  C   UNL     1      35.838 -18.771 -21.567  0.00  0.00    +0.026 C 
BRANCH   9  11
ATOM     10  F   UNL     1      33.129 -22.673 -18.565  0.00  0.00    -0.204 F 
ATOM     11  C   UNL     1      35.113 -19.816 -20.763  0.00  0.00    -0.022 C 
ATOM     12  C   UNL     1      33.726 -19.801 -20.715  0.00  0.00    -0.002 C 
ATOM     13  C   UNL     1      35.840 -20.782 -20.081  0.00  0.00    -0.002 C 
ATOM     14  C   UNL     1      33.053 -20.769 -19.970  0.00  0.00    +0.029 C 
ATOM     15  C   UNL     1      35.168 -21.750 -19.336  0.00  0.00    +0.029 C 
ATOM     16  C   UNL     1      33.775 -21.744 -19.280  0.00  0.00    +0.140 C 
ENDBRANCH   9  11
ENDBRANCH   2   9
TORSDOF 2
ENDMDL
MODEL 2
REMARK VINA RESULT:      -8.6      0.040      1.292
REMARK  Name = 3699841
REMARK  2 active torsions:
REMARK  status: ('A' for Active; 'I' for Inactive)
REMARK    1  A    between atoms: C_2  and  C_9
REMARK    2  A    between atoms: C_9  and  C_11
REMARK                            x       y       z     vdW  Elec       q    Type
REMARK                         _______ _______ _______ _____ _____    ______ ____
ROOT
ATOM      1  N   UNL     1      34.698 -16.885 -25.256  0.00  0.00    +0.384 N 
ATOM      2  C   UNL     1      34.965 -18.207 -22.648  0.00  0.00    +0.000 C 
ATOM      3  C   UNL     1      35.263 -16.716 -22.848  0.00  0.00    -0.023 C 
ATOM      4  C   UNL     1      35.144 -18.959 -23.973  0.00  0.00    -0.023 C 
ATOM      5  C   UNL     1      34.460 -16.143 -24.016  0.00  0.00    -0.082 C 
ATOM      6  C   UNL     1      34.346 -18.298 -25.097  0.00  0.00    -0.082 C 
ATOM      7  H   UNL     1      35.684 -16.812 -25.505  0.00  0.00    -0.085 HD
ATOM      8  H   UNL     1      34.114 -16.486 -25.992  0.00  0.00    -0.085 HD
ENDROOT
BRANCH   2   9
ATOM      9  C   UNL     1      35.849 -18.801 -21.555  0.00  0.00    +0.026 C 
BRANCH   9  11
ATOM     10  F   UNL     1      33.096 -22.673 -18.552  0.00  0.00    -0.204 F 
ATOM     11  C   UNL     1      35.112 -19.838 -20.751  0.00  0.00    -0.022 C 
ATOM     12  C   UNL     1      35.829 -20.801 -20.056  0.00  0.00    -0.002 C 
ATOM     13  C   UNL     1      33.724 -19.817 -20.716  0.00  0.00    -0.002 C 
ATOM     14  C   UNL     1      35.147 -21.762 -19.310  0.00  0.00    +0.029 C 
ATOM     15  C   UNL     1      33.041 -20.777 -19.970  0.00  0.00    +0.029 C 
ATOM     16  C   UNL     1      33.752 -21.750 -19.268  0.00  0.00    +0.140 C 
ENDBRANCH   9  11
ENDBRANCH   2   9
TORSDOF 2
ENDMDL
MODEL 3
REMARK VINA RESULT:      -8.3      1.461      1.865
REMARK  Name = 3699841
REMARK  2 active torsions:
REMARK  status: ('A' for Active; 'I' for Inactive)
REMARK    1  A    between atoms: C_2  and  C_9
REMARK    2  A    between atoms: C_9  and  C_11
REMARK                            x       y       z     vdW  Elec       q    Type
REMARK                         _______ _______ _______ _____ _____    ______ ____
ROOT
ATOM      1  N   UNL     1      34.466 -14.346 -22.378  0.00  0.00    +0.384 N 
ATOM      2  C   UNL     1      34.652 -17.268 -22.153  0.00  0.00    +0.000 C 
ATOM      3  C   UNL     1      34.863 -16.336 -20.954  0.00  0.00    -0.023 C 
ATOM      4  C   UNL     1      34.965 -16.522 -23.457  0.00  0.00    -0.023 C 
ATOM      5  C   UNL     1      34.101 -15.023 -21.132  0.00  0.00    -0.082 C 
ATOM      6  C   UNL     1      34.199 -15.202 -23.537  0.00  0.00    -0.082 C 
ATOM      7  H   UNL     1      35.459 -14.116 -22.355  0.00  0.00    -0.085 HD
ATOM      8  H   UNL     1      33.905 -13.497 -22.465  0.00  0.00    -0.085 HD
ENDROOT
BRANCH   2   9
ATOM      9  C   UNL     1      35.501 -18.529 -22.025  0.00  0.00    +0.026 C 
BRANCH   9  11
ATOM     10  F   UNL     1      33.068 -22.324 -18.669  0.00  0.00    -0.204 F 
ATOM     11  C   UNL     1      34.849 -19.545 -21.127  0.00  0.00    -0.022 C 
ATOM     12  C   UNL     1      33.466 -19.572 -21.015  0.00  0.00    -0.002 C 
ATOM     13  C   UNL     1      35.641 -20.441 -20.421  0.00  0.00    -0.002 C 
ATOM     14  C   UNL     1      32.862 -20.514 -20.183  0.00  0.00    +0.029 C 
ATOM     15  C   UNL     1      35.037 -21.383 -19.589  0.00  0.00    +0.029 C 
ATOM     16  C   UNL     1      33.648 -21.420 -19.469  0.00  0.00    +0.140 C 
ENDBRANCH   9  11
ENDBRANCH   2   9
TORSDOF 2
ENDMDL
MODEL 4
REMARK VINA RESULT:      -8.1      3.401      5.801
REMARK  Name = 3699841
REMARK  2 active torsions:
REMARK  status: ('A' for Active; 'I' for Inactive)
REMARK    1  A    between atoms: C_2  and  C_9
REMARK    2  A    between atoms: C_9  and  C_11
REMARK                            x       y       z     vdW  Elec       q    Type
REMARK                         _______ _______ _______ _____ _____    ______ ____
ROOT
ATOM      1  N   UNL     1      33.704 -21.606 -19.154  0.00  0.00    +0.384 N 
ATOM      2  C   UNL     1      35.204 -19.976 -21.081  0.00  0.00    +0.000 C 
ATOM      3  C   UNL     1      35.895 -20.799 -19.987  0.00  0.00    -0.023 C 
ATOM      4  C   UNL     1      33.773 -19.630 -20.651  0.00  0.00    -0.023 C 
ATOM      5  C   UNL     1      35.046 -22.004 -19.583  0.00  0.00    -0.082 C 
ATOM      6  C   UNL     1      33.007 -20.881 -20.220  0.00  0.00    -0.082 C 
ATOM      7  H   UNL     1      33.780 -21.003 -18.336  0.00  0.00    -0.085 HD
ATOM      8  H   UNL     1      33.170 -22.446 -18.931  0.00  0.00    -0.085 HD
ENDROOT
BRANCH   2   9
ATOM      9  C   UNL     1      36.000 -18.714 -21.404  0.00  0.00    +0.026 C 
BRANCH   9  11
ATOM     10  F   UNL     1      33.872 -16.013 -25.849  0.00  0.00    -0.204 F 
ATOM     11  C   UNL     1      35.431 -17.991 -22.594  0.00  0.00    -0.022 C 
ATOM     12  C   UNL     1      35.149 -16.635 -22.500  0.00  0.00    -0.002 C 
ATOM     13  C   UNL     1      35.193 -18.690 -23.771  0.00  0.00    -0.002 C 
ATOM     14  C   UNL     1      34.622 -15.964 -23.603  0.00  0.00    +0.029 C 
ATOM     15  C   UNL     1      34.666 -18.019 -24.874  0.00  0.00    +0.029 C 
ATOM     16  C   UNL     1      34.380 -16.657 -24.791  0.00  0.00    +0.140 C 
ENDBRANCH   9  11
ENDBRANCH   2   9
TORSDOF 2
ENDMDL
MODEL 5
REMARK VINA RESULT:      -7.9      3.512      5.789
REMARK  Name = 3699841
REMARK  2 active torsions:
REMARK  status: ('A' for Active; 'I' for Inactive)
REMARK    1  A    between atoms: C_2  and  C_9
REMARK    2  A    between atoms: C_9  and  C_11
REMARK                            x       y       z     vdW  Elec       q    Type
REMARK                         _______ _______ _______ _____ _____    ______ ____
ROOT
ATOM      1  N   UNL     1      33.309 -21.883 -19.651  0.00  0.00    +0.384 N 
ATOM      2  C   UNL     1      34.884 -19.642 -20.708  0.00  0.00    +0.000 C 
ATOM      3  C   UNL     1      33.401 -19.837 -21.048  0.00  0.00    -0.023 C 
ATOM      4  C   UNL     1      35.518 -20.989 -20.337  0.00  0.00    -0.023 C 
ATOM      5  C   UNL     1      32.674 -20.595 -19.937  0.00  0.00    -0.082 C 
ATOM      6  C   UNL     1      34.708 -21.701 -19.254  0.00  0.00    -0.082 C 
ATOM      7  H   UNL     1      33.272 -22.466 -20.487  0.00  0.00    -0.085 HD
ATOM      8  H   UNL     1      32.808 -22.330 -18.882  0.00  0.00    -0.085 HD
ENDROOT
BRANCH   2   9
ATOM      9  C   UNL     1      35.630 -18.985 -21.866  0.00  0.00    +0.026 C 
BRANCH   9  11
ATOM     10  F   UNL     1      34.066 -13.632 -22.558  0.00  0.00    -0.204 F 
ATOM     11  C   UNL     1      35.212 -17.552 -22.051  0.00  0.00    -0.022 C 
ATOM     12  C   UNL     1      34.955 -16.764 -20.937  0.00  0.00    -0.002 C 
ATOM     13  C   UNL     1      35.087 -17.036 -23.334  0.00  0.00    -0.002 C 
ATOM     14  C   UNL     1      34.568 -15.436 -21.109  0.00  0.00    +0.029 C 
ATOM     15  C   UNL     1      34.699 -15.707 -23.506  0.00  0.00    +0.029 C 
ATOM     16  C   UNL     1      34.439 -14.907 -22.394  0.00  0.00    +0.140 C 
ENDBRANCH   9  11
ENDBRANCH   2   9
TORSDOF 2
ENDMDL
MODEL 6
REMARK VINA RESULT:      -7.5      4.437      7.252
REMARK  Name = 3699841
REMARK  2 active torsions:
REMARK  status: ('A' for Active; 'I' for Inactive)
REMARK    1  A    between atoms: C_2  and  C_9
REMARK    2  A    between atoms: C_9  and  C_11
REMARK                            x       y       z     vdW  Elec       q    Type
REMARK                         _______ _______ _______ _____ _____    ______ ____
ROOT
ATOM      1  N   UNL     1      32.599 -23.775 -14.573  0.00  0.00    +0.384 N 
ATOM      2  C   UNL     1      33.386 -22.836 -17.242  0.00  0.00    +0.000 C 
ATOM      3  C   UNL     1      31.937 -23.193 -16.891  0.00  0.00    -0.023 C 
ATOM      4  C   UNL     1      34.350 -23.593 -16.319  0.00  0.00    -0.023 C 
ATOM      5  C   UNL     1      31.666 -23.004 -15.398  0.00  0.00    -0.082 C 
ATOM      6  C   UNL     1      33.985 -23.388 -14.849  0.00  0.00    -0.082 C 
ATOM      7  H   UNL     1      32.482 -24.767 -14.776  0.00  0.00    -0.085 HD
ATOM      8  H   UNL     1      32.398 -23.585 -13.591  0.00  0.00    -0.085 HD
ENDROOT
BRANCH   2   9
ATOM      9  C   UNL     1      33.685 -23.132 -18.709  0.00  0.00    +0.026 C 
BRANCH   9  11
ATOM     10  F   UNL     1      35.629 -18.585 -21.379  0.00  0.00    -0.204 F 
ATOM     11  C   UNL     1      34.205 -21.915 -19.423  0.00  0.00    -0.022 C 
ATOM     12  C   UNL     1      33.309 -21.010 -19.976  0.00  0.00    -0.002 C 
ATOM     13  C   UNL     1      35.575 -21.712 -19.522  0.00  0.00    -0.002 C 
ATOM     14  C   UNL     1      33.791 -19.881 -20.638  0.00  0.00    +0.029 C 
ATOM     15  C   UNL     1      36.058 -20.584 -20.184  0.00  0.00    +0.029 C 
ATOM     16  C   UNL     1      35.166 -19.668 -20.742  0.00  0.00    +0.140 C 
ENDBRANCH   9  11
ENDBRANCH   2   9
TORSDOF 2
ENDMDL
MODEL 7
REMARK VINA RESULT:      -7.4      3.691      5.843
REMARK  Name = 3699841
REMARK  2 active torsions:
REMARK  status: ('A' for Active; 'I' for Inactive)
REMARK    1  A    between atoms: C_2  and  C_9
REMARK    2  A    between atoms: C_9  and  C_11
REMARK                            x       y       z     vdW  Elec       q    Type
REMARK                         _______ _______ _______ _____ _____    ______ ____
ROOT
ATOM      1  N   UNL     1      35.404 -21.149 -20.265  0.00  0.00    +0.384 N 
ATOM      2  C   UNL     1      35.330 -18.359 -21.178  0.00  0.00    +0.000 C 
ATOM      3  C   UNL     1      34.171 -19.334 -21.419  0.00  0.00    -0.023 C 
ATOM      4  C   UNL     1      36.643 -19.135 -21.015  0.00  0.00    -0.023 C 
ATOM      5  C   UNL     1      34.134 -20.425 -20.349  0.00  0.00    -0.082 C 
ATOM      6  C   UNL     1      36.508 -20.235 -19.961  0.00  0.00    -0.082 C 
ATOM      7  H   UNL     1      35.587 -21.608 -21.156  0.00  0.00    -0.085 HD
ATOM      8  H   UNL     1      35.338 -21.838 -19.515  0.00  0.00    -0.085 HD
ENDROOT
BRANCH   2   9
ATOM      9  C   UNL     1      35.432 -17.338 -22.307  0.00  0.00    +0.026 C 
BRANCH   9  11
ATOM     10  F   UNL     1      31.878 -13.051 -21.544  0.00  0.00    -0.204 F 
ATOM     11  C   UNL     1      34.481 -16.190 -22.103  0.00  0.00    -0.022 C 
ATOM     12  C   UNL     1      33.938 -15.547 -23.206  0.00  0.00    -0.002 C 
ATOM     13  C   UNL     1      34.158 -15.790 -20.813  0.00  0.00    -0.002 C 
ATOM     14  C   UNL     1      33.056 -14.484 -23.017  0.00  0.00    +0.029 C 
ATOM     15  C   UNL     1      33.276 -14.727 -20.623  0.00  0.00    +0.029 C 
ATOM     16  C   UNL     1      32.725 -14.073 -21.725  0.00  0.00    +0.140 C 
ENDBRANCH   9  11
ENDBRANCH   2   9
TORSDOF 2
ENDMDL
MODEL 8
REMARK VINA RESULT:      -7.3      4.069      6.673
REMARK  Name = 3699841
REMARK  2 active torsions:
REMARK  status: ('A' for Active; 'I' for Inactive)
REMARK    1  A    between atoms: C_2  and  C_9
REMARK    2  A    between atoms: C_9  and  C_11
REMARK                            x       y       z     vdW  Elec       q    Type
REMARK                         _______ _______ _______ _____ _____    ______ ____
ROOT
ATOM      1  N   UNL     1      36.765 -22.919 -15.333  0.00  0.00    +0.384 N 
ATOM      2  C   UNL     1      35.221 -22.090 -17.689  0.00  0.00    +0.000 C 
ATOM      3  C   UNL     1      34.706 -23.139 -16.695  0.00  0.00    -0.023 C 
ATOM      4  C   UNL     1      36.754 -22.044 -17.653  0.00  0.00    -0.023 C 
ATOM      5  C   UNL     1      35.301 -22.922 -15.304  0.00  0.00    -0.082 C 
ATOM      6  C   UNL     1      37.269 -21.871 -16.224  0.00  0.00    -0.082 C 
ATOM      7  H   UNL     1      37.095 -23.825 -15.663  0.00  0.00    -0.085 HD
ATOM      8  H   UNL     1      37.109 -22.736 -14.389  0.00  0.00    -0.085 HD
ENDROOT
BRANCH   2   9
ATOM      9  C   UNL     1      34.714 -22.374 -19.100  0.00  0.00    +0.026 C 
BRANCH   9  11
ATOM     10  F   UNL     1      33.964 -17.631 -22.019  0.00  0.00    -0.204 F 
ATOM     11  C   UNL     1      34.513 -21.105 -19.881  0.00  0.00    -0.022 C 
ATOM     12  C   UNL     1      33.229 -20.607 -20.059  0.00  0.00    -0.002 C 
ATOM     13  C   UNL     1      35.614 -20.448 -20.414  0.00  0.00    -0.002 C 
ATOM     14  C   UNL     1      33.043 -19.429 -20.783  0.00  0.00    +0.029 C 
ATOM     15  C   UNL     1      35.428 -19.270 -21.138  0.00  0.00    +0.029 C 
ATOM     16  C   UNL     1      34.143 -18.761 -21.323  0.00  0.00    +0.140 C 
ENDBRANCH   9  11
ENDBRANCH   2   9
TORSDOF 2
ENDMDL
MODEL 9
REMARK VINA RESULT:      -7.1      3.339      4.967
REMARK  Name = 3699841
REMARK  2 active torsions:
REMARK  status: ('A' for Active; 'I' for Inactive)
REMARK    1  A    between atoms: C_2  and  C_9
REMARK    2  A    between atoms: C_9  and  C_11
REMARK                            x       y       z     vdW  Elec       q    Type
REMARK                         _______ _______ _______ _____ _____    ______ ____
ROOT
ATOM      1  N   UNL     1      32.559 -11.978 -22.567  0.00  0.00    +0.384 N 
ATOM      2  C   UNL     1      33.516 -14.733 -22.223  0.00  0.00    +0.000 C 
ATOM      3  C   UNL     1      32.840 -13.950 -21.091  0.00  0.00    -0.023 C 
ATOM      4  C   UNL     1      34.153 -13.760 -23.225  0.00  0.00    -0.023 C 
ATOM      5  C   UNL     1      31.885 -12.892 -21.643  0.00  0.00    -0.082 C 
ATOM      6  C   UNL     1      33.146 -12.710 -23.692  0.00  0.00    -0.082 C 
ATOM      7  H   UNL     1      33.298 -11.485 -22.068  0.00  0.00    -0.085 HD
ATOM      8  H   UNL     1      31.872 -11.318 -22.931  0.00  0.00    -0.085 HD
ENDROOT
BRANCH   2   9
ATOM      9  C   UNL     1      34.551 -15.711 -21.674  0.00  0.00    +0.026 C 
BRANCH   9  11
ATOM     10  F   UNL     1      34.943 -20.315 -24.872  0.00  0.00    -0.204 F 
ATOM     11  C   UNL     1      34.656 -16.943 -22.530  0.00  0.00    -0.022 C 
ATOM     12  C   UNL     1      34.749 -18.190 -21.926  0.00  0.00    -0.002 C 
ATOM     13  C   UNL     1      34.658 -16.818 -23.913  0.00  0.00    -0.002 C 
ATOM     14  C   UNL     1      34.846 -19.332 -22.719  0.00  0.00    +0.029 C 
ATOM     15  C   UNL     1      34.755 -17.961 -24.706  0.00  0.00    +0.029 C 
ATOM     16  C   UNL     1      34.849 -19.218 -24.110  0.00  0.00    +0.140 C 
ENDBRANCH   9  11
ENDBRANCH   2   9
TORSDOF 2
ENDMDL
