MODEL 1
REMARK VINA RESULT:      -9.6      0.000      0.000
REMARK  Name = 101772
REMARK  6 active torsions:
REMARK  status: ('A' for Active; 'I' for Inactive)
REMARK    1  A    between atoms: C_7  and  O_22
REMARK    2  A    between atoms: C_7  and  C_27
REMARK    3  A    between atoms: C_10  and  O_24
REMARK    4  A    between atoms: C_27  and  C_28
REMARK    5  A    between atoms: C_28  and  O_29
REMARK    6  A    between atoms: O_29  and  C_31
REMARK                            x       y       z     vdW  Elec       q    Type
REMARK                         _______ _______ _______ _____ _____    ______ ____
ROOT
ATOM      1  F   UNL     1      33.042 -14.297 -27.524  0.00  0.00    -0.233 F 
ATOM      2  O   UNL     1      34.968 -10.014 -26.111  0.00  0.00    -0.287 OA
ATOM      3  C   UNL     1      34.723 -17.318 -22.341  0.00  0.00    +0.031 C 
ATOM      4  C   UNL     1      34.680 -17.010 -23.855  0.00  0.00    +0.003 C 
ATOM      5  C   UNL     1      33.755 -15.839 -24.225  0.00  0.00    +0.006 C 
ATOM      6  C   UNL     1      34.267 -14.545 -23.500  0.00  0.00    +0.034 C 
ATOM      7  C   UNL     1      35.677 -18.548 -22.359  0.00  0.00    +0.143 C 
ATOM      8  C   UNL     1      35.245 -16.055 -21.626  0.00  0.00    +0.032 C 
ATOM      9  C   UNL     1      34.428 -18.377 -24.485  0.00  0.00    +0.003 C 
ATOM     10  C   UNL     1      34.457 -14.771 -21.966  0.00  0.00    +0.111 C 
ATOM     11  C   UNL     1      33.459 -13.254 -23.925  0.00  0.00    +0.039 C 
ATOM     12  C   UNL     1      35.231 -19.354 -23.603  0.00  0.00    +0.034 C 
ATOM     13  C   UNL     1      33.725 -15.644 -25.750  0.00  0.00    +0.040 C 
ATOM     14  C   UNL     1      33.343 -17.735 -21.764  0.00  0.00    +0.003 C 
ATOM     15  C   UNL     1      32.942 -14.408 -26.166  0.00  0.00    +0.180 C 
ATOM     16  C   UNL     1      33.475 -13.188 -25.458  0.00  0.00    -0.006 C 
ATOM     17  C   UNL     1      31.984 -13.256 -23.463  0.00  0.00    +0.009 C 
ATOM     18  C   UNL     1      34.101 -12.017 -23.312  0.00  0.00    -0.020 C 
ATOM     19  C   UNL     1      33.962 -12.146 -26.150  0.00  0.00    +0.036 C 
ATOM     20  C   UNL     1      34.590 -10.980 -23.998  0.00  0.00    +0.038 C 
ATOM     21  C   UNL     1      34.539 -10.968 -25.470  0.00  0.00    +0.195 C 
ENDROOT
BRANCH   7  22
ATOM     22  O   UNL     1      37.034 -18.146 -22.517  0.00  0.00    -0.380 OA
ATOM     23  H   UNL     1      37.261 -17.496 -21.835  0.00  0.00    +0.211 HD
ENDBRANCH   7  22
BRANCH  10  24
ATOM     24  O   UNL     1      33.215 -14.816 -21.279  0.00  0.00    -0.384 OA
ATOM     25  H   UNL     1      33.197 -14.126 -20.598  0.00  0.00    +0.210 HD
ENDBRANCH  10  24
BRANCH   7  27
ATOM     26  O   UNL     1      36.397 -19.071 -20.149  0.00  0.00    -0.290 OA
ATOM     27  C   UNL     1      35.671 -19.360 -21.099  0.00  0.00    +0.218 C 
BRANCH  27  28
ATOM     28  C   UNL     1      34.728 -20.545 -21.069  0.00  0.00    +0.274 C 
BRANCH  28  29
ATOM     29  O   UNL     1      33.950 -20.531 -19.892  0.00  0.00    -0.440 OA
BRANCH  29  31
ATOM     30  O   UNL     1      32.870 -22.389 -19.042  0.00  0.00    -0.250 OA
ATOM     31  C   UNL     1      33.878 -21.715 -19.200  0.00  0.00    +0.318 C 
ATOM     32  C   UNL     1      35.225 -22.080 -18.655  0.00  0.00    +0.121 C 
ENDBRANCH  29  31
ENDBRANCH  28  29
ENDBRANCH  27  28
ENDBRANCH   7  27
TORSDOF 6
ENDMDL
MODEL 2
REMARK VINA RESULT:      -7.9      3.907      6.479
REMARK  Name = 101772
REMARK  6 active torsions:
REMARK  status: ('A' for Active; 'I' for Inactive)
REMARK    1  A    between atoms: C_7  and  O_22
REMARK    2  A    between atoms: C_7  and  C_27
REMARK    3  A    between atoms: C_10  and  O_24
REMARK    4  A    between atoms: C_27  and  C_28
REMARK    5  A    between atoms: C_28  and  O_29
REMARK    6  A    between atoms: O_29  and  C_31
REMARK                            x       y       z     vdW  Elec       q    Type
REMARK                         _______ _______ _______ _____ _____    ______ ____
ROOT
ATOM      1  F   UNL     1      31.227  -7.906 -19.786  0.00  0.00    -0.233 F 
ATOM      2  O   UNL     1      30.511  -4.733 -23.456  0.00  0.00    -0.287 OA
ATOM      3  C   UNL     1      33.325 -12.460 -23.485  0.00  0.00    +0.031 C 
ATOM      4  C   UNL     1      32.385 -11.777 -22.465  0.00  0.00    +0.003 C 
ATOM      5  C   UNL     1      32.826 -10.361 -22.065  0.00  0.00    +0.006 C 
ATOM      6  C   UNL     1      32.853  -9.459 -23.349  0.00  0.00    +0.034 C 
ATOM      7  C   UNL     1      32.617 -13.841 -23.598  0.00  0.00    +0.143 C 
ATOM      8  C   UNL     1      33.340 -11.588 -24.757  0.00  0.00    +0.032 C 
ATOM      9  C   UNL     1      32.220 -12.834 -21.377  0.00  0.00    +0.003 C 
ATOM     10  C   UNL     1      33.690 -10.106 -24.498  0.00  0.00    +0.111 C 
ATOM     11  C   UNL     1      33.165  -7.945 -23.019  0.00  0.00    +0.039 C 
ATOM     12  C   UNL     1      32.193 -14.170 -22.147  0.00  0.00    +0.034 C 
ATOM     13  C   UNL     1      31.872  -9.784 -21.004  0.00  0.00    +0.040 C 
ATOM     14  C   UNL     1      34.769 -12.655 -22.946  0.00  0.00    +0.003 C 
ATOM     15  C   UNL     1      32.172  -8.329 -20.677  0.00  0.00    +0.180 C 
ATOM     16  C   UNL     1      32.175  -7.499 -21.936  0.00  0.00    -0.006 C 
ATOM     17  C   UNL     1      34.596  -7.699 -22.488  0.00  0.00    +0.009 C 
ATOM     18  C   UNL     1      33.024  -7.102 -24.279  0.00  0.00    -0.020 C 
ATOM     19  C   UNL     1      31.327  -6.469 -22.085  0.00  0.00    +0.036 C 
ATOM     20  C   UNL     1      32.178  -6.078 -24.432  0.00  0.00    +0.038 C 
ATOM     21  C   UNL     1      31.279  -5.682 -23.335  0.00  0.00    +0.195 C 
ENDROOT
BRANCH   7  22
ATOM     22  O   UNL     1      31.458 -13.760 -24.423  0.00  0.00    -0.380 OA
ATOM     23  H   UNL     1      31.531 -12.991 -25.010  0.00  0.00    +0.211 HD
ENDBRANCH   7  22
BRANCH  10  24
ATOM     24  O   UNL     1      35.086 -10.016 -24.252  0.00  0.00    -0.384 OA
ATOM     25  H   UNL     1      35.320  -9.096 -24.053  0.00  0.00    +0.210 HD
ENDBRANCH  10  24
BRANCH   7  27
ATOM     26  O   UNL     1      33.636 -14.954 -25.441  0.00  0.00    -0.290 OA
ATOM     27  C   UNL     1      33.448 -14.918 -24.226  0.00  0.00    +0.218 C 
BRANCH  27  28
ATOM     28  C   UNL     1      34.036 -15.947 -23.283  0.00  0.00    +0.274 C 
BRANCH  28  29
ATOM     29  O   UNL     1      35.061 -16.679 -23.921  0.00  0.00    -0.440 OA
BRANCH  29  31
ATOM     30  O   UNL     1      34.384 -18.193 -25.529  0.00  0.00    -0.250 OA
ATOM     31  C   UNL     1      34.718 -17.924 -24.383  0.00  0.00    +0.318 C 
ATOM     32  C   UNL     1      34.809 -18.932 -23.278  0.00  0.00    +0.121 C 
ENDBRANCH  29  31
ENDBRANCH  28  29
ENDBRANCH  27  28
ENDBRANCH   7  27
TORSDOF 6
ENDMDL
MODEL 3
REMARK VINA RESULT:      -7.9      5.670      9.713
REMARK  Name = 101772
REMARK  6 active torsions:
REMARK  status: ('A' for Active; 'I' for Inactive)
REMARK    1  A    between atoms: C_7  and  O_22
REMARK    2  A    between atoms: C_7  and  C_27
REMARK    3  A    between atoms: C_10  and  O_24
REMARK    4  A    between atoms: C_27  and  C_28
REMARK    5  A    between atoms: C_28  and  O_29
REMARK    6  A    between atoms: O_29  and  C_31
REMARK                            x       y       z     vdW  Elec       q    Type
REMARK                         _______ _______ _______ _____ _____    ______ ____
ROOT
ATOM      1  F   UNL     1      37.676 -20.385 -20.222  0.00  0.00    -0.233 F 
ATOM      2  O   UNL     1      33.401 -18.259 -21.342  0.00  0.00    -0.287 OA
ATOM      3  C   UNL     1      35.378 -23.584 -15.395  0.00  0.00    +0.031 C 
ATOM      4  C   UNL     1      36.286 -22.565 -16.121  0.00  0.00    +0.003 C 
ATOM      5  C   UNL     1      36.074 -22.518 -17.643  0.00  0.00    +0.006 C 
ATOM      6  C   UNL     1      34.588 -22.107 -17.932  0.00  0.00    +0.034 C 
ATOM      7  C   UNL     1      35.899 -23.397 -13.940  0.00  0.00    +0.143 C 
ATOM      8  C   UNL     1      33.916 -23.172 -15.659  0.00  0.00    +0.032 C 
ATOM      9  C   UNL     1      37.676 -22.884 -15.580  0.00  0.00    +0.003 C 
ATOM     10  C   UNL     1      33.572 -23.004 -17.156  0.00  0.00    +0.111 C 
ATOM     11  C   UNL     1      34.306 -21.898 -19.473  0.00  0.00    +0.039 C 
ATOM     12  C   UNL     1      37.431 -23.254 -14.102  0.00  0.00    +0.034 C 
ATOM     13  C   UNL     1      37.058 -21.528 -18.289  0.00  0.00    +0.040 C 
ATOM     14  C   UNL     1      35.619 -25.049 -15.852  0.00  0.00    +0.003 C 
ATOM     15  C   UNL     1      36.797 -21.329 -19.774  0.00  0.00    +0.180 C 
ATOM     16  C   UNL     1      35.363 -20.922 -20.005  0.00  0.00    -0.006 C 
ATOM     17  C   UNL     1      34.393 -23.196 -20.309  0.00  0.00    +0.009 C 
ATOM     18  C   UNL     1      32.899 -21.352 -19.673  0.00  0.00    -0.020 C 
ATOM     19  C   UNL     1      35.064 -19.758 -20.601  0.00  0.00    +0.036 C 
ATOM     20  C   UNL     1      32.598 -20.191 -20.263  0.00  0.00    +0.038 C 
ATOM     21  C   UNL     1      33.665 -19.319 -20.782  0.00  0.00    +0.195 C 
ENDROOT
BRANCH   7  22
ATOM     22  O   UNL     1      35.373 -22.210 -13.353  0.00  0.00    -0.380 OA
ATOM     23  H   UNL     1      34.473 -22.058 -13.680  0.00  0.00    +0.211 HD
ENDBRANCH   7  22
BRANCH  10  24
ATOM     24  O   UNL     1      33.458 -24.297 -17.733  0.00  0.00    -0.384 OA
ATOM     25  H   UNL     1      34.327 -24.584 -18.057  0.00  0.00    +0.210 HD
ENDBRANCH  10  24
BRANCH   7  27
ATOM     26  O   UNL     1      34.326 -24.760 -12.782  0.00  0.00    -0.290 OA
ATOM     27  C   UNL     1      35.508 -24.489 -12.992  0.00  0.00    +0.218 C 
BRANCH  27  28
ATOM     28  C   UNL     1      36.643 -25.230 -12.317  0.00  0.00    +0.274 C 
BRANCH  28  29
ATOM     29  O   UNL     1      36.846 -26.489 -12.922  0.00  0.00    -0.440 OA
BRANCH  29  31
ATOM     30  O   UNL     1      37.988 -27.265 -14.774  0.00  0.00    -0.250 OA
ATOM     31  C   UNL     1      37.931 -26.591 -13.755  0.00  0.00    +0.318 C 
ATOM     32  C   UNL     1      39.061 -25.750 -13.241  0.00  0.00    +0.121 C 
ENDBRANCH  29  31
ENDBRANCH  28  29
ENDBRANCH  27  28
ENDBRANCH   7  27
TORSDOF 6
ENDMDL
MODEL 4
REMARK VINA RESULT:      -7.2     10.162     12.320
REMARK  Name = 101772
REMARK  6 active torsions:
REMARK  status: ('A' for Active; 'I' for Inactive)
REMARK    1  A    between atoms: C_7  and  O_22
REMARK    2  A    between atoms: C_7  and  C_27
REMARK    3  A    between atoms: C_10  and  O_24
REMARK    4  A    between atoms: C_27  and  C_28
REMARK    5  A    between atoms: C_28  and  O_29
REMARK    6  A    between atoms: O_29  and  C_31
REMARK                            x       y       z     vdW  Elec       q    Type
REMARK                         _______ _______ _______ _____ _____    ______ ____
ROOT
ATOM      1  F   UNL     1      31.905 -21.890 -18.375  0.00  0.00    -0.233 F 
ATOM      2  O   UNL     1      27.859 -21.590 -15.620  0.00  0.00    -0.287 OA
ATOM      3  C   UNL     1      35.417 -24.288 -13.822  0.00  0.00    +0.031 C 
ATOM      4  C   UNL     1      34.987 -23.259 -14.892  0.00  0.00    +0.003 C 
ATOM      5  C   UNL     1      33.742 -23.676 -15.691  0.00  0.00    +0.006 C 
ATOM      6  C   UNL     1      32.539 -23.845 -14.698  0.00  0.00    +0.034 C 
ATOM      7  C   UNL     1      36.692 -23.576 -13.283  0.00  0.00    +0.143 C 
ATOM      8  C   UNL     1      34.245 -24.442 -12.831  0.00  0.00    +0.032 C 
ATOM      9  C   UNL     1      36.283 -22.970 -15.644  0.00  0.00    +0.003 C 
ATOM     10  C   UNL     1      32.897 -24.785 -13.502  0.00  0.00    +0.111 C 
ATOM     11  C   UNL     1      31.176 -24.143 -15.442  0.00  0.00    +0.039 C 
ATOM     12  C   UNL     1      37.370 -23.003 -14.550  0.00  0.00    +0.034 C 
ATOM     13  C   UNL     1      33.424 -22.629 -16.772  0.00  0.00    +0.040 C 
ATOM     14  C   UNL     1      35.803 -25.667 -14.423  0.00  0.00    +0.003 C 
ATOM     15  C   UNL     1      32.118 -22.914 -17.497  0.00  0.00    +0.180 C 
ATOM     16  C   UNL     1      30.989 -23.055 -16.507  0.00  0.00    -0.006 C 
ATOM     17  C   UNL     1      31.135 -25.516 -16.151  0.00  0.00    +0.009 C 
ATOM     18  C   UNL     1      30.029 -24.140 -14.441  0.00  0.00    -0.020 C 
ATOM     19  C   UNL     1      29.923 -22.240 -16.555  0.00  0.00    +0.036 C 
ATOM     20  C   UNL     1      28.969 -23.328 -14.485  0.00  0.00    +0.038 C 
ATOM     21  C   UNL     1      28.837 -22.329 -15.559  0.00  0.00    +0.195 C 
ENDROOT
BRANCH   7  22
ATOM     22  O   UNL     1      36.353 -22.507 -12.404  0.00  0.00    -0.380 OA
ATOM     23  H   UNL     1      35.575 -22.040 -12.746  0.00  0.00    +0.211 HD
ENDBRANCH   7  22
BRANCH  10  24
ATOM     24  O   UNL     1      32.929 -26.150 -13.893  0.00  0.00    -0.384 OA
ATOM     25  H   UNL     1      32.443 -26.259 -14.726  0.00  0.00    +0.210 HD
ENDBRANCH  10  24
BRANCH   7  27
ATOM     26  O   UNL     1      37.197 -25.033 -11.468  0.00  0.00    -0.290 OA
ATOM     27  C   UNL     1      37.600 -24.452 -12.474  0.00  0.00    +0.218 C 
BRANCH  27  28
ATOM     28  C   UNL     1      39.026 -24.576 -12.968  0.00  0.00    +0.274 C 
BRANCH  28  29
ATOM     29  O   UNL     1      39.316 -25.910 -13.324  0.00  0.00    -0.440 OA
BRANCH  29  31
ATOM     30  O   UNL     1      41.293 -26.861 -14.049  0.00  0.00    -0.250 OA
ATOM     31  C   UNL     1      40.355 -26.090 -14.202  0.00  0.00    +0.318 C 
ATOM     32  C   UNL     1      40.187 -25.200 -15.396  0.00  0.00    +0.121 C 
ENDBRANCH  29  31
ENDBRANCH  28  29
ENDBRANCH  27  28
ENDBRANCH   7  27
TORSDOF 6
ENDMDL
MODEL 5
REMARK VINA RESULT:      -7.0      3.950     10.255
REMARK  Name = 101772
REMARK  6 active torsions:
REMARK  status: ('A' for Active; 'I' for Inactive)
REMARK    1  A    between atoms: C_7  and  O_22
REMARK    2  A    between atoms: C_7  and  C_27
REMARK    3  A    between atoms: C_10  and  O_24
REMARK    4  A    between atoms: C_27  and  C_28
REMARK    5  A    between atoms: C_28  and  O_29
REMARK    6  A    between atoms: O_29  and  C_31
REMARK                            x       y       z     vdW  Elec       q    Type
REMARK                         _______ _______ _______ _____ _____    ______ ____
ROOT
ATOM      1  F   UNL     1      31.805 -13.855 -19.841  0.00  0.00    -0.233 F 
ATOM      2  O   UNL     1      35.355 -16.820 -21.471  0.00  0.00    -0.287 OA
ATOM      3  C   UNL     1      33.294  -9.168 -23.667  0.00  0.00    +0.031 C 
ATOM      4  C   UNL     1      33.066  -9.880 -22.314  0.00  0.00    +0.003 C 
ATOM      5  C   UNL     1      32.560 -11.325 -22.449  0.00  0.00    +0.006 C 
ATOM      6  C   UNL     1      33.626 -12.160 -23.241  0.00  0.00    +0.034 C 
ATOM      7  C   UNL     1      33.728  -7.767 -23.147  0.00  0.00    +0.143 C 
ATOM      8  C   UNL     1      34.356  -9.974 -24.441  0.00  0.00    +0.032 C 
ATOM      9  C   UNL     1      32.230  -8.877 -21.524  0.00  0.00    +0.003 C 
ATOM     10  C   UNL     1      34.022 -11.475 -24.588  0.00  0.00    +0.111 C 
ATOM     11  C   UNL     1      33.260 -13.696 -23.315  0.00  0.00    +0.039 C 
ATOM     12  C   UNL     1      32.793  -7.503 -21.943  0.00  0.00    +0.034 C 
ATOM     13  C   UNL     1      32.302 -11.933 -21.060  0.00  0.00    +0.040 C 
ATOM     14  C   UNL     1      31.996  -9.033 -24.510  0.00  0.00    +0.003 C 
ATOM     15  C   UNL     1      31.940 -13.409 -21.125  0.00  0.00    +0.180 C 
ATOM     16  C   UNL     1      32.997 -14.174 -21.882  0.00  0.00    -0.006 C 
ATOM     17  C   UNL     1      31.999 -14.001 -24.158  0.00  0.00    +0.009 C 
ATOM     18  C   UNL     1      34.403 -14.471 -23.956  0.00  0.00    -0.020 C 
ATOM     19  C   UNL     1      33.674 -15.175 -21.298  0.00  0.00    +0.036 C 
ATOM     20  C   UNL     1      35.082 -15.466 -23.376  0.00  0.00    +0.038 C 
ATOM     21  C   UNL     1      34.751 -15.897 -22.008  0.00  0.00    +0.195 C 
ENDROOT
BRANCH   7  22
ATOM     22  O   UNL     1      35.081  -7.780 -22.701  0.00  0.00    -0.380 OA
ATOM     23  H   UNL     1      35.644  -8.178 -23.383  0.00  0.00    +0.211 HD
ENDBRANCH   7  22
BRANCH  10  24
ATOM     24  O   UNL     1      33.003 -11.609 -25.569  0.00  0.00    -0.384 OA
ATOM     25  H   UNL     1      32.149 -11.751 -25.131  0.00  0.00    +0.210 HD
ENDBRANCH  10  24
BRANCH   7  27
ATOM     26  O   UNL     1      34.565  -6.567 -25.026  0.00  0.00    -0.290 OA
ATOM     27  C   UNL     1      33.683  -6.679 -24.176  0.00  0.00    +0.218 C 
BRANCH  27  28
ATOM     28  C   UNL     1      32.500  -5.736 -24.105  0.00  0.00    +0.274 C 
BRANCH  28  29
ATOM     29  O   UNL     1      32.186  -5.234 -25.386  0.00  0.00    -0.440 OA
BRANCH  29  31
ATOM     30  O   UNL     1      30.468  -3.795 -24.824  0.00  0.00    -0.250 OA
ATOM     31  C   UNL     1      31.508  -4.042 -25.418  0.00  0.00    +0.318 C 
ATOM     32  C   UNL     1      32.225  -3.061 -26.296  0.00  0.00    +0.121 C 
ENDBRANCH  29  31
ENDBRANCH  28  29
ENDBRANCH  27  28
ENDBRANCH   7  27
TORSDOF 6
ENDMDL
MODEL 6
REMARK VINA RESULT:      -7.0      5.502      9.422
REMARK  Name = 101772
REMARK  6 active torsions:
REMARK  status: ('A' for Active; 'I' for Inactive)
REMARK    1  A    between atoms: C_7  and  O_22
REMARK    2  A    between atoms: C_7  and  C_27
REMARK    3  A    between atoms: C_10  and  O_24
REMARK    4  A    between atoms: C_27  and  C_28
REMARK    5  A    between atoms: C_28  and  O_29
REMARK    6  A    between atoms: O_29  and  C_31
REMARK                            x       y       z     vdW  Elec       q    Type
REMARK                         _______ _______ _______ _____ _____    ______ ____
ROOT
ATOM      1  F   UNL     1      37.765 -20.096 -20.004  0.00  0.00    -0.233 F 
ATOM      2  O   UNL     1      33.558 -18.047 -21.471  0.00  0.00    -0.287 OA
ATOM      3  C   UNL     1      35.088 -23.599 -15.601  0.00  0.00    +0.031 C 
ATOM      4  C   UNL     1      36.031 -22.519 -16.179  0.00  0.00    +0.003 C 
ATOM      5  C   UNL     1      35.977 -22.402 -17.711  0.00  0.00    +0.006 C 
ATOM      6  C   UNL     1      34.516 -22.022 -18.137  0.00  0.00    +0.034 C 
ATOM      7  C   UNL     1      35.448 -23.469 -14.092  0.00  0.00    +0.143 C 
ATOM      8  C   UNL     1      33.648 -23.218 -15.999  0.00  0.00    +0.032 C 
ATOM      9  C   UNL     1      37.367 -22.822 -15.508  0.00  0.00    +0.003 C 
ATOM     10  C   UNL     1      33.457 -22.987 -17.515  0.00  0.00    +0.111 C 
ATOM     11  C   UNL     1      34.390 -21.746 -19.688  0.00  0.00    +0.039 C 
ATOM     12  C   UNL     1      36.983 -23.272 -14.084  0.00  0.00    +0.034 C 
ATOM     13  C   UNL     1      36.988 -21.352 -18.202  0.00  0.00    +0.040 C 
ATOM     14  C   UNL     1      35.427 -25.031 -16.097  0.00  0.00    +0.003 C 
ATOM     15  C   UNL     1      36.877 -21.088 -19.696  0.00  0.00    +0.180 C 
ATOM     16  C   UNL     1      35.462 -20.713 -20.058  0.00  0.00    -0.006 C 
ATOM     17  C   UNL     1      34.609 -22.997 -20.569  0.00  0.00    +0.009 C 
ATOM     18  C   UNL     1      32.993 -21.233 -20.010  0.00  0.00    -0.020 C 
ATOM     19  C   UNL     1      35.186 -19.530 -20.628  0.00  0.00    +0.036 C 
ATOM     20  C   UNL     1      32.715 -20.053 -20.574  0.00  0.00    +0.038 C 
ATOM     21  C   UNL     1      33.799 -19.125 -20.936  0.00  0.00    +0.195 C 
ENDROOT
BRANCH   7  22
ATOM     22  O   UNL     1      34.822 -22.329 -13.509  0.00  0.00    -0.380 OA
ATOM     23  H   UNL     1      35.290 -22.083 -12.696  0.00  0.00    +0.211 HD
ENDBRANCH   7  22
BRANCH  10  24
ATOM     24  O   UNL     1      33.450 -24.252 -18.160  0.00  0.00    -0.384 OA
ATOM     25  H   UNL     1      34.363 -24.531 -18.335  0.00  0.00    +0.210 HD
ENDBRANCH  10  24
BRANCH   7  27
ATOM     26  O   UNL     1      35.774 -25.189 -12.477  0.00  0.00    -0.290 OA
ATOM     27  C   UNL     1      34.998 -24.618 -13.242  0.00  0.00    +0.218 C 
BRANCH  27  28
ATOM     28  C   UNL     1      33.547 -25.029 -13.383  0.00  0.00    +0.274 C 
BRANCH  28  29
ATOM     29  O   UNL     1      32.692 -23.958 -13.044  0.00  0.00    -0.440 OA
BRANCH  29  31
ATOM     30  O   UNL     1      30.479 -23.774 -12.408  0.00  0.00    -0.250 OA
ATOM     31  C   UNL     1      31.346 -24.201 -13.157  0.00  0.00    +0.318 C 
ATOM     32  C   UNL     1      31.073 -25.074 -14.345  0.00  0.00    +0.121 C 
ENDBRANCH  29  31
ENDBRANCH  28  29
ENDBRANCH  27  28
ENDBRANCH   7  27
TORSDOF 6
ENDMDL
MODEL 7
REMARK VINA RESULT:      -6.7      4.642      7.403
REMARK  Name = 101772
REMARK  6 active torsions:
REMARK  status: ('A' for Active; 'I' for Inactive)
REMARK    1  A    between atoms: C_7  and  O_22
REMARK    2  A    between atoms: C_7  and  C_27
REMARK    3  A    between atoms: C_10  and  O_24
REMARK    4  A    between atoms: C_27  and  C_28
REMARK    5  A    between atoms: C_28  and  O_29
REMARK    6  A    between atoms: O_29  and  C_31
REMARK                            x       y       z     vdW  Elec       q    Type
REMARK                         _______ _______ _______ _____ _____    ______ ____
ROOT
ATOM      1  F   UNL     1      31.178  -7.850 -19.804  0.00  0.00    -0.233 F 
ATOM      2  O   UNL     1      30.531  -4.631 -23.446  0.00  0.00    -0.287 OA
ATOM      3  C   UNL     1      33.348 -12.357 -23.518  0.00  0.00    +0.031 C 
ATOM      4  C   UNL     1      32.388 -11.687 -22.509  0.00  0.00    +0.003 C 
ATOM      5  C   UNL     1      32.821 -10.276 -22.082  0.00  0.00    +0.006 C 
ATOM      6  C   UNL     1      32.872  -9.358 -23.353  0.00  0.00    +0.034 C 
ATOM      7  C   UNL     1      32.642 -13.737 -23.663  0.00  0.00    +0.143 C 
ATOM      8  C   UNL     1      33.386 -11.470 -24.779  0.00  0.00    +0.032 C 
ATOM      9  C   UNL     1      32.202 -12.757 -21.437  0.00  0.00    +0.003 C 
ATOM     10  C   UNL     1      33.731  -9.991 -24.495  0.00  0.00    +0.111 C 
ATOM     11  C   UNL     1      33.177  -7.848 -22.999  0.00  0.00    +0.039 C 
ATOM     12  C   UNL     1      32.190 -14.084 -22.224  0.00  0.00    +0.034 C 
ATOM     13  C   UNL     1      31.846  -9.713 -21.033  0.00  0.00    +0.040 C 
ATOM     14  C   UNL     1      34.781 -12.559 -22.954  0.00  0.00    +0.003 C 
ATOM     15  C   UNL     1      32.140  -8.262 -20.681  0.00  0.00    +0.180 C 
ATOM     16  C   UNL     1      32.167  -7.416 -21.930  0.00  0.00    -0.006 C 
ATOM     17  C   UNL     1      34.598  -7.609 -22.437  0.00  0.00    +0.009 C 
ATOM     18  C   UNL     1      33.060  -6.989 -24.251  0.00  0.00    -0.020 C 
ATOM     19  C   UNL     1      31.321  -6.384 -22.082  0.00  0.00    +0.036 C 
ATOM     20  C   UNL     1      32.217  -5.964 -24.407  0.00  0.00    +0.038 C 
ATOM     21  C   UNL     1      31.297  -5.581 -23.322  0.00  0.00    +0.195 C 
ENDROOT
BRANCH   7  22
ATOM     22  O   UNL     1      31.499 -13.646 -24.508  0.00  0.00    -0.380 OA
ATOM     23  H   UNL     1      31.474 -14.411 -25.103  0.00  0.00    +0.211 HD
ENDBRANCH   7  22
BRANCH  10  24
ATOM     24  O   UNL     1      35.122  -9.904 -24.221  0.00  0.00    -0.384 OA
ATOM     25  H   UNL     1      35.374  -8.972 -24.119  0.00  0.00    +0.210 HD
ENDBRANCH  10  24
BRANCH   7  27
ATOM     26  O   UNL     1      34.509 -15.214 -23.740  0.00  0.00    -0.290 OA
ATOM     27  C   UNL     1      33.486 -14.806 -24.288  0.00  0.00    +0.218 C 
BRANCH  27  28
ATOM     28  C   UNL     1      33.006 -15.346 -25.619  0.00  0.00    +0.274 C 
BRANCH  28  29
ATOM     29  O   UNL     1      33.802 -14.849 -26.674  0.00  0.00    -0.440 OA
BRANCH  29  31
ATOM     30  O   UNL     1      32.211 -13.378 -27.477  0.00  0.00    -0.250 OA
ATOM     31  C   UNL     1      33.375 -13.681 -27.254  0.00  0.00    +0.318 C 
ATOM     32  C   UNL     1      34.548 -12.807 -27.582  0.00  0.00    +0.121 C 
ENDBRANCH  29  31
ENDBRANCH  28  29
ENDBRANCH  27  28
ENDBRANCH   7  27
TORSDOF 6
ENDMDL
