MODEL 1
REMARK VINA RESULT:      -9.3      0.000      0.000
REMARK  Name = 60063
REMARK  5 active torsions:
REMARK  status: ('A' for Active; 'I' for Inactive)
REMARK    1  A    between atoms: N_4  and  C_23
REMARK    2  A    between atoms: C_6  and  N_14
REMARK    3  A    between atoms: C_10  and  C_27
REMARK    4  A    between atoms: C_15  and  N_19
REMARK    5  A    between atoms: C_27  and  O_28
REMARK                            x       y       z     vdW  Elec       q    Type
REMARK                         _______ _______ _______ _____ _____    ______ ____
ROOT
ATOM      1 CL   UNL     1      36.224 -23.241 -16.300  0.00  0.00    -0.080 Cl
ATOM      2  F   UNL     1      34.712 -24.972 -11.856  0.00  0.00    -0.203 F 
ATOM      3  O   UNL     1      30.282 -24.030 -14.048  0.00  0.00    -0.286 OA
ATOM      4  N   UNL     1      33.084 -22.982 -16.816  0.00  0.00    -0.287 N 
ATOM      5  C   UNL     1      33.530 -23.487 -15.562  0.00  0.00    +0.067 C 
ATOM      6  C   UNL     1      35.289 -24.133 -14.001  0.00  0.00    +0.087 C 
ATOM      7  C   UNL     1      31.731 -22.862 -17.061  0.00  0.00    +0.075 C 
ATOM      8  C   UNL     1      34.890 -23.635 -15.245  0.00  0.00    +0.087 C 
ATOM      9  C   UNL     1      32.581 -23.857 -14.584  0.00  0.00    +0.056 C 
ATOM     10  C   UNL     1      30.751 -23.183 -16.206  0.00  0.00    +0.129 C 
ATOM     11  C   UNL     1      34.337 -24.493 -13.051  0.00  0.00    +0.154 C 
ATOM     12  C   UNL     1      31.130 -23.717 -14.874  0.00  0.00    +0.204 C 
ATOM     13  C   UNL     1      32.982 -24.355 -13.338  0.00  0.00    +0.035 C 
ENDROOT
BRANCH   6  14
ATOM     14  N   UNL     1      36.615 -24.290 -13.660  0.00  0.00    -0.307 N 
ATOM     15  C   UNL     1      38.876 -24.932 -13.755  0.00  0.00    -0.044 C 
ATOM     16  C   UNL     1      37.459 -25.389 -14.127  0.00  0.00    +0.069 C 
ATOM     17  C   UNL     1      38.643 -24.136 -12.476  0.00  0.00    +0.001 C 
ATOM     18  C   UNL     1      37.349 -23.381 -12.781  0.00  0.00    +0.089 C 
BRANCH  15  19
ATOM     19  N   UNL     1      39.812 -26.029 -13.580  0.00  0.00    +0.383 N 
ATOM     20  H   UNL     1      40.283 -25.933 -12.681  0.00  0.00    -0.089 HD
ATOM     21  H   UNL     1      40.502 -26.009 -14.330  0.00  0.00    -0.089 HD
ATOM     22  H   UNL     1      39.307 -26.915 -13.606  0.00  0.00    -0.089 HD
ENDBRANCH  15  19
ENDBRANCH   6  14
BRANCH   4  23
ATOM     23  C   UNL     1      33.941 -22.550 -17.947  0.00  0.00    +0.077 C 
ATOM     24  C   UNL     1      33.826 -23.205 -19.282  0.00  0.00    +0.022 C 
ATOM     25  C   UNL     1      33.365 -21.789 -19.092  0.00  0.00    +0.022 C 
ENDBRANCH   4  23
BRANCH  10  27
ATOM     26  O   UNL     1      28.894 -21.924 -16.992  0.00  0.00    -0.245 OA
ATOM     27  C   UNL     1      29.363 -22.989 -16.632  0.00  0.00    +0.342 C 
BRANCH  27  28
ATOM     28  O   UNL     1      28.699 -24.162 -16.562  0.00  0.00    -0.477 OA
ATOM     29  H   UNL     1      27.846 -24.240 -16.943  0.00  0.00    +0.295 HD
ENDBRANCH  27  28
ENDBRANCH  10  27
TORSDOF 5
ENDMDL
MODEL 2
REMARK VINA RESULT:      -9.2     13.574     15.882
REMARK  Name = 60063
REMARK  5 active torsions:
REMARK  status: ('A' for Active; 'I' for Inactive)
REMARK    1  A    between atoms: N_4  and  C_23
REMARK    2  A    between atoms: C_6  and  N_14
REMARK    3  A    between atoms: C_10  and  C_27
REMARK    4  A    between atoms: C_15  and  N_19
REMARK    5  A    between atoms: C_27  and  O_28
REMARK                            x       y       z     vdW  Elec       q    Type
REMARK                         _______ _______ _______ _____ _____    ______ ____
ROOT
ATOM      1 CL   UNL     1      31.992 -13.317 -22.186  0.00  0.00    -0.080 Cl
ATOM      2  F   UNL     1      34.849 -11.818 -26.009  0.00  0.00    -0.203 F 
ATOM      3  O   UNL     1      33.751  -7.396 -23.874  0.00  0.00    -0.286 OA
ATOM      4  N   UNL     1      31.858 -10.185 -21.581  0.00  0.00    -0.287 N 
ATOM      5  C   UNL     1      32.613 -10.633 -22.703  0.00  0.00    +0.067 C 
ATOM      6  C   UNL     1      33.478 -12.389 -24.156  0.00  0.00    +0.087 C 
ATOM      7  C   UNL     1      31.787  -8.835 -21.302  0.00  0.00    +0.075 C 
ATOM      8  C   UNL     1      32.728 -11.989 -23.047  0.00  0.00    +0.087 C 
ATOM      9  C   UNL     1      33.279  -9.688 -23.515  0.00  0.00    +0.056 C 
ATOM     10  C   UNL     1      32.378  -7.860 -22.004  0.00  0.00    +0.129 C 
ATOM     11  C   UNL     1      34.127 -11.441 -24.944  0.00  0.00    +0.154 C 
ATOM     12  C   UNL     1      33.185  -8.240 -23.190  0.00  0.00    +0.204 C 
ATOM     13  C   UNL     1      34.029 -10.090 -24.627  0.00  0.00    +0.035 C 
ENDROOT
BRANCH   6  14
ATOM     14  N   UNL     1      33.610 -13.712 -24.520  0.00  0.00    -0.307 N 
ATOM     15  C   UNL     1      34.051 -16.019 -24.399  0.00  0.00    -0.044 C 
ATOM     16  C   UNL     1      34.516 -14.657 -23.869  0.00  0.00    +0.069 C 
ATOM     17  C   UNL     1      33.573 -15.682 -25.807  0.00  0.00    +0.001 C 
ATOM     18  C   UNL     1      32.865 -14.342 -25.609  0.00  0.00    +0.089 C 
BRANCH  15  19
ATOM     19  N   UNL     1      35.090 -17.035 -24.379  0.00  0.00    +0.383 N 
ATOM     20  H   UNL     1      35.092 -17.535 -25.267  0.00  0.00    -0.089 HD
ATOM     21  H   UNL     1      34.909 -17.691 -23.619  0.00  0.00    -0.089 HD
ATOM     22  H   UNL     1      35.997 -16.591 -24.236  0.00  0.00    -0.089 HD
ENDBRANCH  15  19
ENDBRANCH   6  14
BRANCH   4  23
ATOM     23  C   UNL     1      31.104 -11.038 -20.632  0.00  0.00    +0.077 C 
ATOM     24  C   UNL     1      31.770 -11.603 -19.423  0.00  0.00    +0.022 C 
ATOM     25  C   UNL     1      30.731 -10.528 -19.281  0.00  0.00    +0.022 C 
ENDBRANCH   4  23
BRANCH  10  27
ATOM     26  O   UNL     1      32.223  -6.110 -20.401  0.00  0.00    -0.245 OA
ATOM     27  C   UNL     1      32.195  -6.475 -21.564  0.00  0.00    +0.342 C 
BRANCH  27  28
ATOM     28  O   UNL     1      31.995  -5.681 -22.636  0.00  0.00    -0.477 OA
ATOM     29  H   UNL     1      32.044  -4.749 -22.544  0.00  0.00    +0.295 HD
ENDBRANCH  27  28
ENDBRANCH  10  27
TORSDOF 5
ENDMDL
MODEL 3
REMARK VINA RESULT:      -9.0      8.470     11.274
REMARK  Name = 60063
REMARK  5 active torsions:
REMARK  status: ('A' for Active; 'I' for Inactive)
REMARK    1  A    between atoms: N_4  and  C_23
REMARK    2  A    between atoms: C_6  and  N_14
REMARK    3  A    between atoms: C_10  and  C_27
REMARK    4  A    between atoms: C_15  and  N_19
REMARK    5  A    between atoms: C_27  and  O_28
REMARK                            x       y       z     vdW  Elec       q    Type
REMARK                         _______ _______ _______ _____ _____    ______ ____
ROOT
ATOM      1 CL   UNL     1      34.663 -16.684 -20.412  0.00  0.00    -0.080 Cl
ATOM      2  F   UNL     1      35.336 -20.003 -24.094  0.00  0.00    -0.203 F 
ATOM      3  O   UNL     1      33.758 -16.008 -26.715  0.00  0.00    -0.286 OA
ATOM      4  N   UNL     1      33.786 -14.787 -22.826  0.00  0.00    -0.287 N 
ATOM      5  C   UNL     1      34.187 -16.122 -23.117  0.00  0.00    +0.067 C 
ATOM      6  C   UNL     1      34.974 -18.331 -22.447  0.00  0.00    +0.087 C 
ATOM      7  C   UNL     1      33.403 -13.950 -23.855  0.00  0.00    +0.075 C 
ATOM      8  C   UNL     1      34.588 -17.028 -22.121  0.00  0.00    +0.087 C 
ATOM      9  C   UNL     1      34.187 -16.572 -24.456  0.00  0.00    +0.056 C 
ATOM     10  C   UNL     1      33.367 -14.275 -25.153  0.00  0.00    +0.129 C 
ATOM     11  C   UNL     1      34.967 -18.754 -23.774  0.00  0.00    +0.154 C 
ATOM     12  C   UNL     1      33.770 -15.649 -25.544  0.00  0.00    +0.204 C 
ATOM     13  C   UNL     1      34.573 -17.878 -24.781  0.00  0.00    +0.035 C 
ENDROOT
BRANCH   6  14
ATOM     14  N   UNL     1      35.372 -19.243 -21.493  0.00  0.00    -0.307 N 
ATOM     15  C   UNL     1      35.427 -21.165 -20.140  0.00  0.00    -0.044 C 
ATOM     16  C   UNL     1      34.471 -20.185 -20.831  0.00  0.00    +0.069 C 
ATOM     17  C   UNL     1      36.613 -20.277 -19.782  0.00  0.00    +0.001 C 
ATOM     18  C   UNL     1      36.747 -19.382 -21.015  0.00  0.00    +0.089 C 
BRANCH  15  19
ATOM     19  N   UNL     1      34.844 -21.827 -18.985  0.00  0.00    +0.383 N 
ATOM     20  H   UNL     1      35.485 -21.759 -18.195  0.00  0.00    -0.089 HD
ATOM     21  H   UNL     1      34.679 -22.810 -19.205  0.00  0.00    -0.089 HD
ATOM     22  H   UNL     1      33.960 -21.380 -18.747  0.00  0.00    -0.089 HD
ENDBRANCH  15  19
ENDBRANCH   6  14
BRANCH   4  23
ATOM     23  C   UNL     1      33.729 -14.158 -21.484  0.00  0.00    +0.077 C 
ATOM     24  C   UNL     1      32.727 -13.095 -21.185  0.00  0.00    +0.022 C 
ATOM     25  C   UNL     1      32.603 -14.451 -20.553  0.00  0.00    +0.022 C 
ENDBRANCH   4  23
BRANCH  10  27
ATOM     26  O   UNL     1      33.399 -12.136 -26.191  0.00  0.00    -0.245 OA
ATOM     27  C   UNL     1      32.932 -13.259 -26.114  0.00  0.00    +0.342 C 
BRANCH  27  28
ATOM     28  O   UNL     1      31.946 -13.758 -26.888  0.00  0.00    -0.477 OA
ATOM     29  H   UNL     1      31.469 -14.515 -26.607  0.00  0.00    +0.295 HD
ENDBRANCH  27  28
ENDBRANCH  10  27
TORSDOF 5
ENDMDL
MODEL 4
REMARK VINA RESULT:      -8.7     13.166     15.637
REMARK  Name = 60063
REMARK  5 active torsions:
REMARK  status: ('A' for Active; 'I' for Inactive)
REMARK    1  A    between atoms: N_4  and  C_23
REMARK    2  A    between atoms: C_6  and  N_14
REMARK    3  A    between atoms: C_10  and  C_27
REMARK    4  A    between atoms: C_15  and  N_19
REMARK    5  A    between atoms: C_27  and  O_28
REMARK                            x       y       z     vdW  Elec       q    Type
REMARK                         _______ _______ _______ _____ _____    ______ ____
ROOT
ATOM      1 CL   UNL     1      34.248 -11.314 -25.115  0.00  0.00    -0.080 Cl
ATOM      2  F   UNL     1      31.791 -14.158 -21.813  0.00  0.00    -0.203 F 
ATOM      3  O   UNL     1      31.218  -9.610 -19.737  0.00  0.00    -0.286 OA
ATOM      4  N   UNL     1      33.392  -8.968 -23.126  0.00  0.00    -0.287 N 
ATOM      5  C   UNL     1      32.998 -10.302 -22.819  0.00  0.00    +0.067 C 
ATOM      6  C   UNL     1      32.925 -12.692 -23.298  0.00  0.00    +0.087 C 
ATOM      7  C   UNL     1      33.032  -7.939 -22.279  0.00  0.00    +0.075 C 
ATOM      8  C   UNL     1      33.329 -11.397 -23.634  0.00  0.00    +0.087 C 
ATOM      9  C   UNL     1      32.245 -10.553 -21.651  0.00  0.00    +0.056 C 
ATOM     10  C   UNL     1      32.321  -8.067 -21.151  0.00  0.00    +0.129 C 
ATOM     11  C   UNL     1      32.183 -12.918 -22.141  0.00  0.00    +0.154 C 
ATOM     12  C   UNL     1      31.871  -9.426 -20.757  0.00  0.00    +0.204 C 
ATOM     13  C   UNL     1      31.841 -11.851 -21.315  0.00  0.00    +0.035 C 
ENDROOT
BRANCH   6  14
ATOM     14  N   UNL     1      33.234 -13.787 -24.076  0.00  0.00    -0.307 N 
ATOM     15  C   UNL     1      33.984 -15.923 -24.713  0.00  0.00    -0.044 C 
ATOM     16  C   UNL     1      34.261 -14.772 -23.737  0.00  0.00    +0.069 C 
ATOM     17  C   UNL     1      33.464 -15.195 -25.947  0.00  0.00    +0.001 C 
ATOM     18  C   UNL     1      32.581 -14.102 -25.345  0.00  0.00    +0.089 C 
BRANCH  15  19
ATOM     19  N   UNL     1      35.151 -16.744 -24.987  0.00  0.00    +0.383 N 
ATOM     20  H   UNL     1      34.906 -17.728 -24.880  0.00  0.00    -0.089 HD
ATOM     21  H   UNL     1      35.895 -16.506 -24.331  0.00  0.00    -0.089 HD
ATOM     22  H   UNL     1      35.471 -16.574 -25.940  0.00  0.00    -0.089 HD
ENDBRANCH  15  19
ENDBRANCH   6  14
BRANCH   4  23
ATOM     23  C   UNL     1      34.179  -8.532 -24.304  0.00  0.00    +0.077 C 
ATOM     24  C   UNL     1      34.010  -7.161 -24.867  0.00  0.00    +0.022 C 
ATOM     25  C   UNL     1      35.280  -7.537 -24.159  0.00  0.00    +0.022 C 
ENDBRANCH   4  23
BRANCH  10  27
ATOM     26  O   UNL     1      31.230  -6.004 -20.698  0.00  0.00    -0.245 OA
ATOM     27  C   UNL     1      32.030  -6.863 -20.370  0.00  0.00    +0.342 C 
BRANCH  27  28
ATOM     28  O   UNL     1      32.778  -6.859 -19.247  0.00  0.00    -0.477 OA
ATOM     29  H   UNL     1      32.367  -6.750 -18.412  0.00  0.00    +0.295 HD
ENDBRANCH  27  28
ENDBRANCH  10  27
TORSDOF 5
ENDMDL
MODEL 5
REMARK VINA RESULT:      -8.5     13.850     16.196
REMARK  Name = 60063
REMARK  5 active torsions:
REMARK  status: ('A' for Active; 'I' for Inactive)
REMARK    1  A    between atoms: N_4  and  C_23
REMARK    2  A    between atoms: C_6  and  N_14
REMARK    3  A    between atoms: C_10  and  C_27
REMARK    4  A    between atoms: C_15  and  N_19
REMARK    5  A    between atoms: C_27  and  O_28
REMARK                            x       y       z     vdW  Elec       q    Type
REMARK                         _______ _______ _______ _____ _____    ______ ____
ROOT
ATOM      1 CL   UNL     1      33.483  -8.416 -24.028  0.00  0.00    -0.080 Cl
ATOM      2  F   UNL     1      30.946 -10.171 -20.090  0.00  0.00    -0.203 F 
ATOM      3  O   UNL     1      32.135 -14.467 -22.424  0.00  0.00    -0.286 OA
ATOM      4  N   UNL     1      33.738 -11.518 -24.738  0.00  0.00    -0.287 N 
ATOM      5  C   UNL     1      33.032 -11.143 -23.559  0.00  0.00    +0.067 C 
ATOM      6  C   UNL     1      32.169  -9.477 -22.003  0.00  0.00    +0.087 C 
ATOM      7  C   UNL     1      33.860 -12.854 -25.063  0.00  0.00    +0.075 C 
ATOM      8  C   UNL     1      32.869  -9.804 -23.167  0.00  0.00    +0.087 C 
ATOM      9  C   UNL     1      32.467 -12.144 -22.739  0.00  0.00    +0.056 C 
ATOM     10  C   UNL     1      33.364 -13.879 -24.358  0.00  0.00    +0.129 C 
ATOM     11  C   UNL     1      31.618 -10.479 -21.209  0.00  0.00    +0.154 C 
ATOM     12  C   UNL     1      32.614 -13.575 -23.114  0.00  0.00    +0.204 C 
ATOM     13  C   UNL     1      31.764 -11.814 -21.573  0.00  0.00    +0.035 C 
ENDROOT
BRANCH   6  14
ATOM     14  N   UNL     1      31.991  -8.173 -21.592  0.00  0.00    -0.307 N 
ATOM     15  C   UNL     1      31.036  -6.044 -21.298  0.00  0.00    -0.044 C 
ATOM     16  C   UNL     1      31.180  -7.189 -22.309  0.00  0.00    +0.069 C 
ATOM     17  C   UNL     1      32.358  -6.099 -20.541  0.00  0.00    +0.001 C 
ATOM     18  C   UNL     1      32.594  -7.602 -20.389  0.00  0.00    +0.089 C 
BRANCH  15  19
ATOM     19  N   UNL     1      30.788  -4.752 -21.916  0.00  0.00    +0.383 N 
ATOM     20  H   UNL     1      31.653  -4.213 -21.932  0.00  0.00    -0.089 HD
ATOM     21  H   UNL     1      30.082  -4.249 -21.379  0.00  0.00    -0.089 HD
ATOM     22  H   UNL     1      30.455  -4.890 -22.870  0.00  0.00    -0.089 HD
ENDBRANCH  15  19
ENDBRANCH   6  14
BRANCH   4  23
ATOM     23  C   UNL     1      34.390 -10.601 -25.703  0.00  0.00    +0.077 C 
ATOM     24  C   UNL     1      35.849 -10.310 -25.610  0.00  0.00    +0.022 C 
ATOM     25  C   UNL     1      35.312 -11.126 -26.750  0.00  0.00    +0.022 C 
ENDBRANCH   4  23
BRANCH  10  27
ATOM     26  O   UNL     1      33.391 -15.597 -26.001  0.00  0.00    -0.245 OA
ATOM     27  C   UNL     1      33.588 -15.239 -24.853  0.00  0.00    +0.342 C 
BRANCH  27  28
ATOM     28  O   UNL     1      34.040 -16.019 -23.849  0.00  0.00    -0.477 OA
ATOM     29  H   UNL     1      34.960 -16.174 -23.755  0.00  0.00    +0.295 HD
ENDBRANCH  27  28
ENDBRANCH  10  27
TORSDOF 5
ENDMDL
MODEL 6
REMARK VINA RESULT:      -8.4      3.455      6.714
REMARK  Name = 60063
REMARK  5 active torsions:
REMARK  status: ('A' for Active; 'I' for Inactive)
REMARK    1  A    between atoms: N_4  and  C_23
REMARK    2  A    between atoms: C_6  and  N_14
REMARK    3  A    between atoms: C_10  and  C_27
REMARK    4  A    between atoms: C_15  and  N_19
REMARK    5  A    between atoms: C_27  and  O_28
REMARK                            x       y       z     vdW  Elec       q    Type
REMARK                         _______ _______ _______ _____ _____    ______ ____
ROOT
ATOM      1 CL   UNL     1      31.975 -22.402 -17.535  0.00  0.00    -0.080 Cl
ATOM      2  F   UNL     1      30.852 -25.085 -13.465  0.00  0.00    -0.203 F 
ATOM      3  O   UNL     1      35.871 -24.939 -13.131  0.00  0.00    -0.286 OA
ATOM      4  N   UNL     1      34.966 -22.845 -16.510  0.00  0.00    -0.287 N 
ATOM      5  C   UNL     1      33.895 -23.403 -15.755  0.00  0.00    +0.067 C 
ATOM      6  C   UNL     1      31.527 -23.824 -15.361  0.00  0.00    +0.087 C 
ATOM      7  C   UNL     1      36.267 -23.024 -16.084  0.00  0.00    +0.075 C 
ATOM      8  C   UNL     1      32.549 -23.261 -16.129  0.00  0.00    +0.087 C 
ATOM      9  C   UNL     1      34.180 -24.134 -14.580  0.00  0.00    +0.056 C 
ATOM     10  C   UNL     1      36.645 -23.697 -14.990  0.00  0.00    +0.129 C 
ATOM     11  C   UNL     1      31.829 -24.541 -14.206  0.00  0.00    +0.154 C 
ATOM     12  C   UNL     1      35.590 -24.311 -14.145  0.00  0.00    +0.204 C 
ATOM     13  C   UNL     1      33.154 -24.699 -13.813  0.00  0.00    +0.035 C 
ENDROOT
BRANCH   6  14
ATOM     14  N   UNL     1      30.196 -23.703 -15.701  0.00  0.00    -0.307 N 
ATOM     15  C   UNL     1      28.101 -22.748 -16.180  0.00  0.00    -0.044 C 
ATOM     16  C   UNL     1      29.342 -22.588 -15.294  0.00  0.00    +0.069 C 
ATOM     17  C   UNL     1      28.002 -24.261 -16.343  0.00  0.00    +0.001 C 
ATOM     18  C   UNL     1      29.464 -24.677 -16.509  0.00  0.00    +0.089 C 
BRANCH  15  19
ATOM     19  N   UNL     1      26.901 -22.158 -15.611  0.00  0.00    +0.383 N 
ATOM     20  H   UNL     1      26.334 -22.889 -15.182  0.00  0.00    -0.089 HD
ATOM     21  H   UNL     1      26.366 -21.700 -16.348  0.00  0.00    -0.089 HD
ATOM     22  H   UNL     1      27.163 -21.472 -14.904  0.00  0.00    -0.089 HD
ENDBRANCH  15  19
ENDBRANCH   6  14
BRANCH   4  23
ATOM     23  C   UNL     1      34.844 -22.055 -17.758  0.00  0.00    +0.077 C 
ATOM     24  C   UNL     1      36.034 -21.812 -18.624  0.00  0.00    +0.022 C 
ATOM     25  C   UNL     1      34.931 -22.717 -19.091  0.00  0.00    +0.022 C 
ENDBRANCH   4  23
BRANCH  10  27
ATOM     26  O   UNL     1      38.951 -23.922 -15.525  0.00  0.00    -0.245 OA
ATOM     27  C   UNL     1      38.075 -23.790 -14.688  0.00  0.00    +0.342 C 
BRANCH  27  28
ATOM     28  O   UNL     1      38.264 -23.706 -13.354  0.00  0.00    -0.477 OA
ATOM     29  H   UNL     1      37.816 -24.297 -12.780  0.00  0.00    +0.295 HD
ENDBRANCH  27  28
ENDBRANCH  10  27
TORSDOF 5
ENDMDL
MODEL 7
REMARK VINA RESULT:      -8.0      3.120      4.492
REMARK  Name = 60063
REMARK  5 active torsions:
REMARK  status: ('A' for Active; 'I' for Inactive)
REMARK    1  A    between atoms: N_4  and  C_23
REMARK    2  A    between atoms: C_6  and  N_14
REMARK    3  A    between atoms: C_10  and  C_27
REMARK    4  A    between atoms: C_15  and  N_19
REMARK    5  A    between atoms: C_27  and  O_28
REMARK                            x       y       z     vdW  Elec       q    Type
REMARK                         _______ _______ _______ _____ _____    ______ ____
ROOT
ATOM      1 CL   UNL     1      34.150 -24.346 -15.015  0.00  0.00    -0.080 Cl
ATOM      2  F   UNL     1      38.762 -22.723 -16.077  0.00  0.00    -0.203 F 
ATOM      3  O   UNL     1      36.140 -20.585 -19.801  0.00  0.00    -0.286 OA
ATOM      4  N   UNL     1      33.391 -22.653 -17.614  0.00  0.00    -0.287 N 
ATOM      5  C   UNL     1      34.752 -22.690 -17.196  0.00  0.00    +0.067 C 
ATOM      6  C   UNL     1      36.525 -23.420 -15.690  0.00  0.00    +0.087 C 
ATOM      7  C   UNL     1      33.041 -21.927 -18.735  0.00  0.00    +0.075 C 
ATOM      8  C   UNL     1      35.179 -23.408 -16.067  0.00  0.00    +0.087 C 
ATOM      9  C   UNL     1      35.725 -21.983 -17.936  0.00  0.00    +0.056 C 
ATOM     10  C   UNL     1      33.881 -21.224 -19.504  0.00  0.00    +0.129 C 
ATOM     11  C   UNL     1      37.469 -22.716 -16.433  0.00  0.00    +0.154 C 
ATOM     12  C   UNL     1      35.320 -21.209 -19.139  0.00  0.00    +0.204 C 
ATOM     13  C   UNL     1      37.074 -21.997 -17.557  0.00  0.00    +0.035 C 
ENDROOT
BRANCH   6  14
ATOM     14  N   UNL     1      36.976 -24.115 -14.588  0.00  0.00    -0.307 N 
ATOM     15  C   UNL     1      37.254 -24.814 -12.360  0.00  0.00    -0.044 C 
ATOM     16  C   UNL     1      36.995 -23.576 -13.229  0.00  0.00    +0.069 C 
ATOM     17  C   UNL     1      38.135 -25.673 -13.260  0.00  0.00    +0.001 C 
ATOM     18  C   UNL     1      37.500 -25.479 -14.637  0.00  0.00    +0.089 C 
BRANCH  15  19
ATOM     19  N   UNL     1      37.875 -24.507 -11.083  0.00  0.00    +0.383 N 
ATOM     20  H   UNL     1      38.764 -24.999 -11.010  0.00  0.00    -0.089 HD
ATOM     21  H   UNL     1      37.258 -24.803 -10.326  0.00  0.00    -0.089 HD
ATOM     22  H   UNL     1      38.035 -23.502 -11.016  0.00  0.00    -0.089 HD
ENDBRANCH  15  19
ENDBRANCH   6  14
BRANCH   4  23
ATOM     23  C   UNL     1      32.250 -23.333 -16.956  0.00  0.00    +0.077 C 
ATOM     24  C   UNL     1      31.664 -22.790 -15.696  0.00  0.00    +0.022 C 
ATOM     25  C   UNL     1      30.886 -22.730 -16.979  0.00  0.00    +0.022 C 
ENDBRANCH   4  23
BRANCH  10  27
ATOM     26  O   UNL     1      32.153 -20.464 -20.950  0.00  0.00    -0.245 OA
ATOM     27  C   UNL     1      33.337 -20.510 -20.661  0.00  0.00    +0.342 C 
BRANCH  27  28
ATOM     28  O   UNL     1      34.340 -19.922 -21.345  0.00  0.00    -0.477 OA
ATOM     29  H   UNL     1      34.267 -19.804 -22.273  0.00  0.00    +0.295 HD
ENDBRANCH  27  28
ENDBRANCH  10  27
TORSDOF 5
ENDMDL
MODEL 8
REMARK VINA RESULT:      -7.9      3.954      6.754
REMARK  Name = 60063
REMARK  5 active torsions:
REMARK  status: ('A' for Active; 'I' for Inactive)
REMARK    1  A    between atoms: N_4  and  C_23
REMARK    2  A    between atoms: C_6  and  N_14
REMARK    3  A    between atoms: C_10  and  C_27
REMARK    4  A    between atoms: C_15  and  N_19
REMARK    5  A    between atoms: C_27  and  O_28
REMARK                            x       y       z     vdW  Elec       q    Type
REMARK                         _______ _______ _______ _____ _____    ______ ____
ROOT
ATOM      1 CL   UNL     1      32.647 -22.909 -17.251  0.00  0.00    -0.080 Cl
ATOM      2  F   UNL     1      37.360 -21.457 -18.088  0.00  0.00    -0.203 F 
ATOM      3  O   UNL     1      37.854 -23.688 -13.606  0.00  0.00    -0.286 OA
ATOM      4  N   UNL     1      33.904 -24.048 -14.545  0.00  0.00    -0.287 N 
ATOM      5  C   UNL     1      34.760 -23.383 -15.469  0.00  0.00    +0.067 C 
ATOM      6  C   UNL     1      35.168 -22.203 -17.563  0.00  0.00    +0.087 C 
ATOM      7  C   UNL     1      34.427 -24.548 -13.370  0.00  0.00    +0.075 C 
ATOM      8  C   UNL     1      34.296 -22.850 -16.683  0.00  0.00    +0.087 C 
ATOM      9  C   UNL     1      36.132 -23.244 -15.169  0.00  0.00    +0.056 C 
ATOM     10  C   UNL     1      35.708 -24.471 -12.989  0.00  0.00    +0.129 C 
ATOM     11  C   UNL     1      36.518 -22.076 -17.248  0.00  0.00    +0.154 C 
ATOM     12  C   UNL     1      36.668 -23.792 -13.895  0.00  0.00    +0.204 C 
ATOM     13  C   UNL     1      37.005 -22.595 -16.052  0.00  0.00    +0.035 C 
ENDROOT
BRANCH   6  14
ATOM     14  N   UNL     1      34.744 -21.668 -18.762  0.00  0.00    -0.307 N 
ATOM     15  C   UNL     1      34.777 -20.830 -20.958  0.00  0.00    -0.044 C 
ATOM     16  C   UNL     1      35.598 -20.897 -19.664  0.00  0.00    +0.069 C 
ATOM     17  C   UNL     1      33.343 -20.802 -20.441  0.00  0.00    +0.001 C 
ATOM     18  C   UNL     1      33.384 -21.798 -19.282  0.00  0.00    +0.089 C 
BRANCH  15  19
ATOM     19  N   UNL     1      35.102 -19.687 -21.793  0.00  0.00    +0.383 N 
ATOM     20  H   UNL     1      34.341 -19.009 -21.753  0.00  0.00    -0.089 HD
ATOM     21  H   UNL     1      35.231 -19.996 -22.757  0.00  0.00    -0.089 HD
ATOM     22  H   UNL     1      35.962 -19.254 -21.457  0.00  0.00    -0.089 HD
ENDBRANCH  15  19
ENDBRANCH   6  14
BRANCH   4  23
ATOM     23  C   UNL     1      32.448 -24.280 -14.704  0.00  0.00    +0.077 C 
ATOM     24  C   UNL     1      31.680 -25.030 -13.669  0.00  0.00    +0.022 C 
ATOM     25  C   UNL     1      31.464 -23.555 -13.850  0.00  0.00    +0.022 C 
ENDBRANCH   4  23
BRANCH  10  27
ATOM     26  O   UNL     1      35.414 -25.003 -10.691  0.00  0.00    -0.245 OA
ATOM     27  C   UNL     1      36.091 -25.057 -11.703  0.00  0.00    +0.342 C 
BRANCH  27  28
ATOM     28  O   UNL     1      37.293 -25.658 -11.817  0.00  0.00    -0.477 OA
ATOM     29  H   UNL     1      37.838 -25.763 -11.061  0.00  0.00    +0.295 HD
ENDBRANCH  27  28
ENDBRANCH  10  27
TORSDOF 5
ENDMDL
MODEL 9
REMARK VINA RESULT:      -7.8     10.426     13.052
REMARK  Name = 60063
REMARK  5 active torsions:
REMARK  status: ('A' for Active; 'I' for Inactive)
REMARK    1  A    between atoms: N_4  and  C_23
REMARK    2  A    between atoms: C_6  and  N_14
REMARK    3  A    between atoms: C_10  and  C_27
REMARK    4  A    between atoms: C_15  and  N_19
REMARK    5  A    between atoms: C_27  and  O_28
REMARK                            x       y       z     vdW  Elec       q    Type
REMARK                         _______ _______ _______ _____ _____    ______ ____
ROOT
ATOM      1 CL   UNL     1      34.838 -14.770 -24.022  0.00  0.00    -0.080 Cl
ATOM      2  F   UNL     1      32.407 -15.728 -19.755  0.00  0.00    -0.203 F 
ATOM      3  O   UNL     1      30.980 -10.977 -20.597  0.00  0.00    -0.286 OA
ATOM      4  N   UNL     1      33.439 -11.917 -23.709  0.00  0.00    -0.287 N 
ATOM      5  C   UNL     1      33.195 -12.910 -22.717  0.00  0.00    +0.067 C 
ATOM      6  C   UNL     1      33.504 -15.139 -21.778  0.00  0.00    +0.087 C 
ATOM      7  C   UNL     1      32.844 -10.677 -23.593  0.00  0.00    +0.075 C 
ATOM      8  C   UNL     1      33.767 -14.192 -22.771  0.00  0.00    +0.087 C 
ATOM      9  C   UNL     1      32.348 -12.611 -21.628  0.00  0.00    +0.056 C 
ATOM     10  C   UNL     1      32.027 -10.292 -22.604  0.00  0.00    +0.129 C 
ATOM     11  C   UNL     1      32.665 -14.824 -20.712  0.00  0.00    +0.154 C 
ATOM     12  C   UNL     1      31.720 -11.268 -21.529  0.00  0.00    +0.204 C 
ATOM     13  C   UNL     1      32.085 -13.561 -20.633  0.00  0.00    +0.035 C 
ENDROOT
BRANCH   6  14
ATOM     14  N   UNL     1      34.050 -16.405 -21.802  0.00  0.00    -0.307 N 
ATOM     15  C   UNL     1      35.056 -18.407 -21.088  0.00  0.00    -0.044 C 
ATOM     16  C   UNL     1      35.030 -16.894 -20.834  0.00  0.00    +0.069 C 
ATOM     17  C   UNL     1      34.788 -18.497 -22.586  0.00  0.00    +0.001 C 
ATOM     18  C   UNL     1      33.725 -17.419 -22.802  0.00  0.00    +0.089 C 
BRANCH  15  19
ATOM     19  N   UNL     1      36.302 -19.041 -20.695  0.00  0.00    +0.383 N 
ATOM     20  H   UNL     1      36.113 -19.755 -19.992  0.00  0.00    -0.089 HD
ATOM     21  H   UNL     1      36.932 -18.339 -20.305  0.00  0.00    -0.089 HD
ATOM     22  H   UNL     1      36.737 -19.472 -21.510  0.00  0.00    -0.089 HD
ENDBRANCH  15  19
ENDBRANCH   6  14
BRANCH   4  23
ATOM     23  C   UNL     1      34.297 -12.065 -24.909  0.00  0.00    +0.077 C 
ATOM     24  C   UNL     1      33.733 -11.866 -26.276  0.00  0.00    +0.022 C 
ATOM     25  C   UNL     1      34.703 -10.872 -25.706  0.00  0.00    +0.022 C 
ENDBRANCH   4  23
BRANCH  10  27
ATOM     26  O   UNL     1      30.886  -8.451 -23.586  0.00  0.00    -0.245 OA
ATOM     27  C   UNL     1      31.483  -8.932 -22.639  0.00  0.00    +0.342 C 
BRANCH  27  28
ATOM     28  O   UNL     1      31.746  -8.309 -21.472  0.00  0.00    -0.477 OA
ATOM     29  H   UNL     1      31.087  -7.782 -21.064  0.00  0.00    +0.295 HD
ENDBRANCH  27  28
ENDBRANCH  10  27
TORSDOF 5
ENDMDL
