MODEL 1
REMARK VINA RESULT:      -6.3      0.000      0.000
REMARK  Name = 1135
REMARK  0 active torsions:
REMARK  status: ('A' for Active; 'I' for Inactive)
REMARK                            x       y       z     vdW  Elec       q    Type
REMARK                         _______ _______ _______ _____ _____    ______ ____
ROOT
ATOM      1  O   UNL     1      36.868 -26.457 -11.646  0.00  0.00    -0.270 OA
ATOM      2  O   UNL     1      36.741 -27.350 -16.172  0.00  0.00    -0.252 OA
ATOM      3  N   UNL     1      36.796 -26.914 -13.906  0.00  0.00    -0.236 N 
ATOM      4  N   UNL     1      37.770 -25.431 -15.429  0.00  0.00    -0.267 N 
ATOM      5  C   UNL     1      37.883 -24.889 -13.116  0.00  0.00    +0.047 C 
ATOM      6  C   UNL     1      37.142 -26.145 -12.802  0.00  0.00    +0.250 C 
ATOM      7  C   UNL     1      38.148 -24.614 -14.399  0.00  0.00    +0.065 C 
ATOM      8  C   UNL     1      38.289 -24.008 -11.979  0.00  0.00    +0.037 C 
ATOM      9  C   UNL     1      37.079 -26.617 -15.242  0.00  0.00    +0.310 C 
ATOM     10  H   UNL     1      36.305 -27.749 -13.731  0.00  0.00    +0.159 HD
ATOM     11  H   UNL     1      38.001 -25.163 -16.347  0.00  0.00    +0.156 HD
ENDROOT
TORSDOF 0
ENDMDL
MODEL 2
REMARK VINA RESULT:      -6.1      1.543      2.180
REMARK  Name = 1135
REMARK  0 active torsions:
REMARK  status: ('A' for Active; 'I' for Inactive)
REMARK                            x       y       z     vdW  Elec       q    Type
REMARK                         _______ _______ _______ _____ _____    ______ ____
ROOT
ATOM      1  O   UNL     1      37.868 -23.141 -14.556  0.00  0.00    -0.270 OA
ATOM      2  O   UNL     1      36.724 -27.334 -16.104  0.00  0.00    -0.252 OA
ATOM      3  N   UNL     1      37.297 -25.233 -15.343  0.00  0.00    -0.236 N 
ATOM      4  N   UNL     1      37.085 -27.023 -13.854  0.00  0.00    -0.267 N 
ATOM      5  C   UNL     1      37.678 -24.898 -12.966  0.00  0.00    +0.047 C 
ATOM      6  C   UNL     1      37.629 -24.327 -14.343  0.00  0.00    +0.250 C 
ATOM      7  C   UNL     1      37.405 -26.199 -12.810  0.00  0.00    +0.065 C 
ATOM      8  C   UNL     1      38.029 -23.984 -11.837  0.00  0.00    +0.037 C 
ATOM      9  C   UNL     1      37.013 -26.589 -15.168  0.00  0.00    +0.310 C 
ATOM     10  H   UNL     1      37.258 -24.885 -16.263  0.00  0.00    +0.159 HD
ATOM     11  H   UNL     1      36.896 -27.969 -13.662  0.00  0.00    +0.156 HD
ENDROOT
TORSDOF 0
ENDMDL
MODEL 3
REMARK VINA RESULT:      -6.0      7.815      8.824
REMARK  Name = 1135
REMARK  0 active torsions:
REMARK  status: ('A' for Active; 'I' for Inactive)
REMARK                            x       y       z     vdW  Elec       q    Type
REMARK                         _______ _______ _______ _____ _____    ______ ____
ROOT
ATOM      1  O   UNL     1      36.533 -20.065 -20.211  0.00  0.00    -0.270 OA
ATOM      2  O   UNL     1      33.816 -23.522 -18.811  0.00  0.00    -0.252 OA
ATOM      3  N   UNL     1      35.185 -21.798 -19.505  0.00  0.00    -0.236 N 
ATOM      4  N   UNL     1      32.877 -21.705 -19.865  0.00  0.00    -0.267 N 
ATOM      5  C   UNL     1      34.198 -19.878 -20.620  0.00  0.00    +0.047 C 
ATOM      6  C   UNL     1      35.417 -20.567 -20.104  0.00  0.00    +0.250 C 
ATOM      7  C   UNL     1      33.015 -20.486 -20.469  0.00  0.00    +0.065 C 
ATOM      8  C   UNL     1      34.368 -18.546 -21.278  0.00  0.00    +0.037 C 
ATOM      9  C   UNL     1      33.945 -22.424 -19.353  0.00  0.00    +0.310 C 
ATOM     10  H   UNL     1      35.971 -22.277 -19.153  0.00  0.00    +0.159 HD
ATOM     11  H   UNL     1      31.975 -22.091 -19.791  0.00  0.00    +0.156 HD
ENDROOT
TORSDOF 0
ENDMDL
MODEL 4
REMARK VINA RESULT:      -5.9      7.594      8.612
REMARK  Name = 1135
REMARK  0 active torsions:
REMARK  status: ('A' for Active; 'I' for Inactive)
REMARK                            x       y       z     vdW  Elec       q    Type
REMARK                         _______ _______ _______ _____ _____    ______ ____
ROOT
ATOM      1  O   UNL     1      32.307 -20.067 -20.771  0.00  0.00    -0.270 OA
ATOM      2  O   UNL     1      33.745 -23.556 -18.116  0.00  0.00    -0.252 OA
ATOM      3  N   UNL     1      33.013 -21.816 -19.443  0.00  0.00    -0.236 N 
ATOM      4  N   UNL     1      35.296 -22.141 -19.056  0.00  0.00    -0.267 N 
ATOM      5  C   UNL     1      34.648 -20.317 -20.438  0.00  0.00    +0.047 C 
ATOM      6  C   UNL     1      33.219 -20.702 -20.247  0.00  0.00    +0.250 C 
ATOM      7  C   UNL     1      35.588 -21.055 -19.835  0.00  0.00    +0.065 C 
ATOM      8  C   UNL     1      34.949 -19.127 -21.291  0.00  0.00    +0.037 C 
ATOM      9  C   UNL     1      34.003 -22.578 -18.818  0.00  0.00    +0.310 C 
ATOM     10  H   UNL     1      32.080 -22.095 -19.300  0.00  0.00    +0.159 HD
ATOM     11  H   UNL     1      36.041 -22.635 -18.644  0.00  0.00    +0.156 HD
ENDROOT
TORSDOF 0
ENDMDL
MODEL 5
REMARK VINA RESULT:      -5.8      3.448      4.246
REMARK  Name = 1135
REMARK  0 active torsions:
REMARK  status: ('A' for Active; 'I' for Inactive)
REMARK                            x       y       z     vdW  Elec       q    Type
REMARK                         _______ _______ _______ _____ _____    ______ ____
ROOT
ATOM      1  O   UNL     1      38.317 -22.288 -12.014  0.00  0.00    -0.270 OA
ATOM      2  O   UNL     1      35.238 -24.905  -9.786  0.00  0.00    -0.252 OA
ATOM      3  N   UNL     1      36.782 -23.591 -10.888  0.00  0.00    -0.236 N 
ATOM      4  N   UNL     1      35.200 -24.828 -12.085  0.00  0.00    -0.267 N 
ATOM      5  C   UNL     1      36.747 -23.508 -13.317  0.00  0.00    +0.047 C 
ATOM      6  C   UNL     1      37.364 -23.064 -12.034  0.00  0.00    +0.250 C 
ATOM      7  C   UNL     1      35.712 -24.356 -13.261  0.00  0.00    +0.065 C 
ATOM      8  C   UNL     1      37.319 -22.982 -14.593  0.00  0.00    +0.037 C 
ATOM      9  C   UNL     1      35.702 -24.476 -10.842  0.00  0.00    +0.310 C 
ATOM     10  H   UNL     1      37.167 -23.315 -10.025  0.00  0.00    +0.159 HD
ATOM     11  H   UNL     1      34.438 -25.450 -12.122  0.00  0.00    +0.156 HD
ENDROOT
TORSDOF 0
ENDMDL
MODEL 6
REMARK VINA RESULT:      -5.8      2.075      2.249
REMARK  Name = 1135
REMARK  0 active torsions:
REMARK  status: ('A' for Active; 'I' for Inactive)
REMARK                            x       y       z     vdW  Elec       q    Type
REMARK                         _______ _______ _______ _____ _____    ______ ____
ROOT
ATOM      1  O   UNL     1      37.262 -26.289 -12.011  0.00  0.00    -0.270 OA
ATOM      2  O   UNL     1      40.777 -26.106 -14.995  0.00  0.00    -0.252 OA
ATOM      3  N   UNL     1      39.025 -26.208 -13.497  0.00  0.00    -0.236 N 
ATOM      4  N   UNL     1      38.971 -24.713 -15.293  0.00  0.00    -0.267 N 
ATOM      5  C   UNL     1      37.115 -24.738 -13.806  0.00  0.00    +0.047 C 
ATOM      6  C   UNL     1      37.785 -25.809 -13.014  0.00  0.00    +0.250 C 
ATOM      7  C   UNL     1      37.745 -24.262 -14.887  0.00  0.00    +0.065 C 
ATOM      8  C   UNL     1      35.776 -24.256 -13.349  0.00  0.00    +0.037 C 
ATOM      9  C   UNL     1      39.674 -25.704 -14.626  0.00  0.00    +0.310 C 
ATOM     10  H   UNL     1      39.491 -26.915 -12.995  0.00  0.00    +0.159 HD
ATOM     11  H   UNL     1      39.373 -24.315 -16.098  0.00  0.00    +0.156 HD
ENDROOT
TORSDOF 0
ENDMDL
MODEL 7
REMARK VINA RESULT:      -5.7      1.905      3.112
REMARK  Name = 1135
REMARK  0 active torsions:
REMARK  status: ('A' for Active; 'I' for Inactive)
REMARK                            x       y       z     vdW  Elec       q    Type
REMARK                         _______ _______ _______ _____ _____    ______ ____
ROOT
ATOM      1  O   UNL     1      37.891 -27.065 -14.586  0.00  0.00    -0.270 OA
ATOM      2  O   UNL     1      35.241 -24.974 -11.440  0.00  0.00    -0.252 OA
ATOM      3  N   UNL     1      36.557 -26.029 -13.016  0.00  0.00    -0.236 N 
ATOM      4  N   UNL     1      37.420 -24.289 -11.714  0.00  0.00    -0.267 N 
ATOM      5  C   UNL     1      38.859 -25.308 -13.310  0.00  0.00    +0.047 C 
ATOM      6  C   UNL     1      37.746 -26.218 -13.708  0.00  0.00    +0.250 C 
ATOM      7  C   UNL     1      38.628 -24.409 -12.346  0.00  0.00    +0.065 C 
ATOM      8  C   UNL     1      40.171 -25.453 -14.011  0.00  0.00    +0.037 C 
ATOM      9  C   UNL     1      36.326 -25.086 -12.011  0.00  0.00    +0.310 C 
ATOM     10  H   UNL     1      35.804 -26.616 -13.256  0.00  0.00    +0.159 HD
ATOM     11  H   UNL     1      37.324 -23.603 -11.015  0.00  0.00    +0.156 HD
ENDROOT
TORSDOF 0
ENDMDL
MODEL 8
REMARK VINA RESULT:      -5.6     11.930     12.892
REMARK  Name = 1135
REMARK  0 active torsions:
REMARK  status: ('A' for Active; 'I' for Inactive)
REMARK                            x       y       z     vdW  Elec       q    Type
REMARK                         _______ _______ _______ _____ _____    ______ ____
ROOT
ATOM      1  O   UNL     1      34.987 -16.521 -21.283  0.00  0.00    -0.270 OA
ATOM      2  O   UNL     1      34.650 -16.566 -25.885  0.00  0.00    -0.252 OA
ATOM      3  N   UNL     1      34.821 -16.530 -23.584  0.00  0.00    -0.236 N 
ATOM      4  N   UNL     1      34.687 -18.559 -24.737  0.00  0.00    -0.267 N 
ATOM      5  C   UNL     1      34.858 -18.633 -22.366  0.00  0.00    +0.047 C 
ATOM      6  C   UNL     1      34.896 -17.142 -22.339  0.00  0.00    +0.250 C 
ATOM      7  C   UNL     1      34.757 -19.242 -23.554  0.00  0.00    +0.065 C 
ATOM      8  C   UNL     1      34.935 -19.363 -21.065  0.00  0.00    +0.037 C 
ATOM      9  C   UNL     1      34.715 -17.176 -24.818  0.00  0.00    +0.310 C 
ATOM     10  H   UNL     1      34.845 -15.546 -23.598  0.00  0.00    +0.159 HD
ATOM     11  H   UNL     1      34.613 -19.075 -25.572  0.00  0.00    +0.156 HD
ENDROOT
TORSDOF 0
ENDMDL
MODEL 9
REMARK VINA RESULT:      -5.6      8.227      9.187
REMARK  Name = 1135
REMARK  0 active torsions:
REMARK  status: ('A' for Active; 'I' for Inactive)
REMARK                            x       y       z     vdW  Elec       q    Type
REMARK                         _______ _______ _______ _____ _____    ______ ____
ROOT
ATOM      1  O   UNL     1      32.484 -20.599 -20.407  0.00  0.00    -0.270 OA
ATOM      2  O   UNL     1      36.412 -18.445 -21.514  0.00  0.00    -0.252 OA
ATOM      3  N   UNL     1      34.440 -19.512 -20.967  0.00  0.00    -0.236 N 
ATOM      4  N   UNL     1      36.481 -20.266 -20.110  0.00  0.00    -0.267 N 
ATOM      5  C   UNL     1      34.508 -21.438 -19.485  0.00  0.00    +0.047 C 
ATOM      6  C   UNL     1      33.705 -20.495 -20.317  0.00  0.00    +0.250 C 
ATOM      7  C   UNL     1      35.835 -21.264 -19.435  0.00  0.00    +0.065 C 
ATOM      8  C   UNL     1      33.786 -22.523 -18.754  0.00  0.00    +0.037 C 
ATOM      9  C   UNL     1      35.825 -19.342 -20.908  0.00  0.00    +0.310 C 
ATOM     10  H   UNL     1      33.937 -18.875 -21.523  0.00  0.00    +0.159 HD
ATOM     11  H   UNL     1      37.459 -20.201 -20.026  0.00  0.00    +0.156 HD
ENDROOT
TORSDOF 0
ENDMDL
