MODEL 1
REMARK VINA RESULT:     -10.6      0.000      0.000
REMARK  Name = 5280373
REMARK  4 active torsions:
REMARK  status: ('A' for Active; 'I' for Inactive)
REMARK    1  A    between atoms: C_4  and  C_12
REMARK    2  A    between atoms: C_7  and  O_20
REMARK    3  A    between atoms: C_11  and  O_22
REMARK    4  A    between atoms: C_17  and  O_18
REMARK                            x       y       z     vdW  Elec       q    Type
REMARK                         _______ _______ _______ _____ _____    ______ ____
ROOT
ATOM      1  O   UNL     1      37.052 -19.845 -20.042  0.00  0.00    -0.450 OA
ATOM      2  O   UNL     1      33.204 -20.085 -21.376  0.00  0.00    -0.286 OA
ATOM      3  C   UNL     1      34.842 -20.829 -19.856  0.00  0.00    +0.107 C 
ATOM      4  C   UNL     1      35.367 -19.124 -21.635  0.00  0.00    +0.077 C 
ATOM      5  C   UNL     1      36.165 -20.697 -19.436  0.00  0.00    +0.154 C 
ATOM      6  C   UNL     1      34.366 -20.021 -20.995  0.00  0.00    +0.204 C 
ATOM      7  C   UNL     1      33.980 -21.712 -19.200  0.00  0.00    +0.143 C 
ATOM      8  C   UNL     1      36.604 -19.113 -21.114  0.00  0.00    +0.183 C 
ATOM      9  C   UNL     1      36.635 -21.449 -18.359  0.00  0.00    +0.074 C 
ATOM     10  C   UNL     1      34.453 -22.463 -18.123  0.00  0.00    +0.073 C 
ATOM     11  C   UNL     1      35.778 -22.331 -17.703  0.00  0.00    +0.140 C 
ENDROOT
BRANCH   4  12
ATOM     12  C   UNL     1      35.035 -18.294 -22.804  0.00  0.00    +0.006 C 
ATOM     13  C   UNL     1      35.006 -16.903 -22.691  0.00  0.00    +0.003 C 
ATOM     14  C   UNL     1      34.747 -18.896 -24.032  0.00  0.00    +0.003 C 
ATOM     15  C   UNL     1      34.691 -16.117 -23.798  0.00  0.00    +0.037 C 
ATOM     16  C   UNL     1      34.432 -18.110 -25.139  0.00  0.00    +0.037 C 
ATOM     17  C   UNL     1      34.403 -16.720 -25.023  0.00  0.00    +0.139 C 
BRANCH  17  18
ATOM     18  O   UNL     1      34.096 -15.953 -26.104  0.00  0.00    -0.471 OA
ATOM     19  C   UNL     1      33.092 -14.954 -25.926  0.00  0.00    +0.252 C 
ENDBRANCH  17  18
ENDBRANCH   4  12
BRANCH   7  20
ATOM     20  O   UNL     1      32.679 -21.879 -19.567  0.00  0.00    -0.505 OA
ATOM     21  H   UNL     1      31.991 -21.616 -18.987  0.00  0.00    +0.292 HD
ENDBRANCH   7  20
BRANCH  11  22
ATOM     22  O   UNL     1      36.233 -23.069 -16.654  0.00  0.00    -0.505 OA
ATOM     23  H   UNL     1      36.834 -22.689 -16.042  0.00  0.00    +0.292 HD
ENDBRANCH  11  22
TORSDOF 4
ENDMDL
MODEL 2
REMARK VINA RESULT:      -9.9      1.836      7.468
REMARK  Name = 5280373
REMARK  4 active torsions:
REMARK  status: ('A' for Active; 'I' for Inactive)
REMARK    1  A    between atoms: C_4  and  C_12
REMARK    2  A    between atoms: C_7  and  O_20
REMARK    3  A    between atoms: C_11  and  O_22
REMARK    4  A    between atoms: C_17  and  O_18
REMARK                            x       y       z     vdW  Elec       q    Type
REMARK                         _______ _______ _______ _____ _____    ______ ____
ROOT
ATOM      1  O   UNL     1      34.385 -18.305 -24.401  0.00  0.00    -0.450 OA
ATOM      2  O   UNL     1      34.818 -16.788 -20.639  0.00  0.00    -0.286 OA
ATOM      3  C   UNL     1      34.392 -16.383 -22.919  0.00  0.00    +0.107 C 
ATOM      4  C   UNL     1      34.872 -18.701 -22.056  0.00  0.00    +0.077 C 
ATOM      5  C   UNL     1      34.245 -16.959 -24.181  0.00  0.00    +0.154 C 
ATOM      6  C   UNL     1      34.709 -17.249 -21.768  0.00  0.00    +0.204 C 
ATOM      7  C   UNL     1      34.236 -15.005 -22.752  0.00  0.00    +0.143 C 
ATOM      8  C   UNL     1      34.700 -19.099 -23.326  0.00  0.00    +0.183 C 
ATOM      9  C   UNL     1      33.942 -16.159 -25.283  0.00  0.00    +0.074 C 
ATOM     10  C   UNL     1      33.934 -14.207 -23.856  0.00  0.00    +0.073 C 
ATOM     11  C   UNL     1      33.786 -14.783 -25.119  0.00  0.00    +0.140 C 
ENDROOT
BRANCH   4  12
ATOM     12  C   UNL     1      35.227 -19.669 -21.005  0.00  0.00    +0.006 C 
ATOM     13  C   UNL     1      36.555 -19.802 -20.594  0.00  0.00    +0.003 C 
ATOM     14  C   UNL     1      34.236 -20.457 -20.415  0.00  0.00    +0.003 C 
ATOM     15  C   UNL     1      36.891 -20.719 -19.599  0.00  0.00    +0.037 C 
ATOM     16  C   UNL     1      34.571 -21.374 -19.421  0.00  0.00    +0.037 C 
ATOM     17  C   UNL     1      35.899 -21.506 -19.012  0.00  0.00    +0.139 C 
BRANCH  17  18
ATOM     18  O   UNL     1      36.227 -22.401 -18.041  0.00  0.00    -0.471 OA
ATOM     19  C   UNL     1      36.981 -21.910 -16.934  0.00  0.00    +0.252 C 
ENDBRANCH  17  18
ENDBRANCH   4  12
BRANCH   7  20
ATOM     20  O   UNL     1      34.368 -14.392 -21.543  0.00  0.00    -0.505 OA
ATOM     21  H   UNL     1      33.747 -14.562 -20.861  0.00  0.00    +0.292 HD
ENDBRANCH   7  20
BRANCH  11  22
ATOM     22  O   UNL     1      33.493 -13.999 -26.192  0.00  0.00    -0.505 OA
ATOM     23  H   UNL     1      33.286 -14.394 -27.017  0.00  0.00    +0.292 HD
ENDBRANCH  11  22
TORSDOF 4
ENDMDL
MODEL 3
REMARK VINA RESULT:      -9.9      1.860      7.931
REMARK  Name = 5280373
REMARK  4 active torsions:
REMARK  status: ('A' for Active; 'I' for Inactive)
REMARK    1  A    between atoms: C_4  and  C_12
REMARK    2  A    between atoms: C_7  and  O_20
REMARK    3  A    between atoms: C_11  and  O_22
REMARK    4  A    between atoms: C_17  and  O_18
REMARK                            x       y       z     vdW  Elec       q    Type
REMARK                         _______ _______ _______ _____ _____    ______ ____
ROOT
ATOM      1  O   UNL     1      33.976 -17.271 -25.561  0.00  0.00    -0.450 OA
ATOM      2  O   UNL     1      34.695 -15.633 -21.894  0.00  0.00    -0.286 OA
ATOM      3  C   UNL     1      34.053 -15.308 -24.136  0.00  0.00    +0.107 C 
ATOM      4  C   UNL     1      34.685 -17.583 -23.259  0.00  0.00    +0.077 C 
ATOM      5  C   UNL     1      33.812 -15.924 -25.363  0.00  0.00    +0.154 C 
ATOM      6  C   UNL     1      34.501 -16.130 -22.995  0.00  0.00    +0.204 C 
ATOM      7  C   UNL     1      33.868 -13.930 -23.991  0.00  0.00    +0.143 C 
ATOM      8  C   UNL     1      34.413 -18.023 -24.497  0.00  0.00    +0.183 C 
ATOM      9  C   UNL     1      33.386 -15.166 -26.454  0.00  0.00    +0.074 C 
ATOM     10  C   UNL     1      33.441 -13.174 -25.084  0.00  0.00    +0.073 C 
ATOM     11  C   UNL     1      33.200 -13.791 -26.313  0.00  0.00    +0.140 C 
ENDROOT
BRANCH   4  12
ATOM     12  C   UNL     1      35.164 -18.509 -22.220  0.00  0.00    +0.006 C 
ATOM     13  C   UNL     1      34.269 -19.366 -21.577  0.00  0.00    +0.003 C 
ATOM     14  C   UNL     1      36.518 -18.533 -21.874  0.00  0.00    +0.003 C 
ATOM     15  C   UNL     1      34.724 -20.243 -20.593  0.00  0.00    +0.037 C 
ATOM     16  C   UNL     1      36.972 -19.410 -20.890  0.00  0.00    +0.037 C 
ATOM     17  C   UNL     1      36.076 -20.265 -20.249  0.00  0.00    +0.139 C 
BRANCH  17  18
ATOM     18  O   UNL     1      36.519 -21.120 -19.288  0.00  0.00    -0.471 OA
ATOM     19  C   UNL     1      35.551 -21.980 -18.688  0.00  0.00    +0.252 C 
ENDBRANCH  17  18
ENDBRANCH   4  12
BRANCH   7  20
ATOM     20  O   UNL     1      34.087 -13.278 -22.816  0.00  0.00    -0.505 OA
ATOM     21  H   UNL     1      33.473 -13.360 -22.112  0.00  0.00    +0.292 HD
ENDBRANCH   7  20
BRANCH  11  22
ATOM     22  O   UNL     1      32.786 -13.047 -27.375  0.00  0.00    -0.505 OA
ATOM     23  H   UNL     1      32.268 -13.443 -28.049  0.00  0.00    +0.292 HD
ENDBRANCH  11  22
TORSDOF 4
ENDMDL
MODEL 4
REMARK VINA RESULT:      -9.8      1.944      7.493
REMARK  Name = 5280373
REMARK  4 active torsions:
REMARK  status: ('A' for Active; 'I' for Inactive)
REMARK    1  A    between atoms: C_4  and  C_12
REMARK    2  A    between atoms: C_7  and  O_20
REMARK    3  A    between atoms: C_11  and  O_22
REMARK    4  A    between atoms: C_17  and  O_18
REMARK                            x       y       z     vdW  Elec       q    Type
REMARK                         _______ _______ _______ _____ _____    ______ ____
ROOT
ATOM      1  O   UNL     1      34.460 -15.245 -21.471  0.00  0.00    -0.450 OA
ATOM      2  O   UNL     1      34.239 -18.530 -23.881  0.00  0.00    -0.286 OA
ATOM      3  C   UNL     1      34.131 -16.186 -23.683  0.00  0.00    +0.107 C 
ATOM      4  C   UNL     1      34.519 -17.663 -21.680  0.00  0.00    +0.077 C 
ATOM      5  C   UNL     1      34.227 -15.100 -22.814  0.00  0.00    +0.154 C 
ATOM      6  C   UNL     1      34.288 -17.551 -23.147  0.00  0.00    +0.204 C 
ATOM      7  C   UNL     1      33.894 -15.979 -25.045  0.00  0.00    +0.143 C 
ATOM      8  C   UNL     1      34.584 -16.521 -20.978  0.00  0.00    +0.183 C 
ATOM      9  C   UNL     1      34.086 -13.799 -23.301  0.00  0.00    +0.074 C 
ATOM     10  C   UNL     1      33.753 -14.677 -25.529  0.00  0.00    +0.073 C 
ATOM     11  C   UNL     1      33.849 -13.590 -24.659  0.00  0.00    +0.140 C 
ENDROOT
BRANCH   4  12
ATOM     12  C   UNL     1      34.653 -18.967 -21.010  0.00  0.00    +0.006 C 
ATOM     13  C   UNL     1      35.918 -19.514 -20.787  0.00  0.00    +0.003 C 
ATOM     14  C   UNL     1      33.514 -19.662 -20.595  0.00  0.00    +0.003 C 
ATOM     15  C   UNL     1      36.044 -20.749 -20.152  0.00  0.00    +0.037 C 
ATOM     16  C   UNL     1      33.640 -20.897 -19.961  0.00  0.00    +0.037 C 
ATOM     17  C   UNL     1      34.905 -21.441 -19.739  0.00  0.00    +0.139 C 
BRANCH  17  18
ATOM     18  O   UNL     1      35.029 -22.646 -19.120  0.00  0.00    -0.471 OA
ATOM     19  C   UNL     1      34.013 -23.003 -18.183  0.00  0.00    +0.252 C 
ENDBRANCH  17  18
ENDBRANCH   4  12
BRANCH   7  20
ATOM     20  O   UNL     1      33.793 -17.002 -25.937  0.00  0.00    -0.505 OA
ATOM     21  H   UNL     1      34.346 -17.755 -25.853  0.00  0.00    +0.292 HD
ENDBRANCH   7  20
BRANCH  11  22
ATOM     22  O   UNL     1      33.708 -12.323 -25.137  0.00  0.00    -0.505 OA
ATOM     23  H   UNL     1      33.981 -12.120 -26.011  0.00  0.00    +0.292 HD
ENDBRANCH  11  22
TORSDOF 4
ENDMDL
MODEL 5
REMARK VINA RESULT:      -9.5      7.644      9.129
REMARK  Name = 5280373
REMARK  4 active torsions:
REMARK  status: ('A' for Active; 'I' for Inactive)
REMARK    1  A    between atoms: C_4  and  C_12
REMARK    2  A    between atoms: C_7  and  O_20
REMARK    3  A    between atoms: C_11  and  O_22
REMARK    4  A    between atoms: C_17  and  O_18
REMARK                            x       y       z     vdW  Elec       q    Type
REMARK                         _______ _______ _______ _____ _____    ______ ____
ROOT
ATOM      1  O   UNL     1      36.266 -23.536 -15.987  0.00  0.00    -0.450 OA
ATOM      2  O   UNL     1      33.912 -24.577 -12.821  0.00  0.00    -0.286 OA
ATOM      3  C   UNL     1      36.061 -24.531 -13.783  0.00  0.00    +0.107 C 
ATOM      4  C   UNL     1      34.048 -23.635 -15.004  0.00  0.00    +0.077 C 
ATOM      5  C   UNL     1      36.817 -24.144 -14.889  0.00  0.00    +0.154 C 
ATOM      6  C   UNL     1      34.608 -24.279 -13.784  0.00  0.00    +0.204 C 
ATOM      7  C   UNL     1      36.676 -25.146 -12.690  0.00  0.00    +0.143 C 
ATOM      8  C   UNL     1      34.908 -23.324 -15.985  0.00  0.00    +0.183 C 
ATOM      9  C   UNL     1      38.194 -24.370 -14.908  0.00  0.00    +0.074 C 
ATOM     10  C   UNL     1      38.054 -25.371 -12.712  0.00  0.00    +0.073 C 
ATOM     11  C   UNL     1      38.811 -24.983 -13.818  0.00  0.00    +0.140 C 
ENDROOT
BRANCH   4  12
ATOM     12  C   UNL     1      32.609 -23.363 -15.151  0.00  0.00    +0.006 C 
ATOM     13  C   UNL     1      31.801 -23.232 -14.020  0.00  0.00    +0.003 C 
ATOM     14  C   UNL     1      32.046 -23.235 -16.424  0.00  0.00    +0.003 C 
ATOM     15  C   UNL     1      30.438 -22.975 -14.159  0.00  0.00    +0.037 C 
ATOM     16  C   UNL     1      30.684 -22.978 -16.563  0.00  0.00    +0.037 C 
ATOM     17  C   UNL     1      29.878 -22.847 -15.432  0.00  0.00    +0.139 C 
BRANCH  17  18
ATOM     18  O   UNL     1      28.548 -22.596 -15.568  0.00  0.00    -0.471 OA
ATOM     19  C   UNL     1      27.977 -22.801 -16.859  0.00  0.00    +0.252 C 
ENDBRANCH  17  18
ENDBRANCH   4  12
BRANCH   7  20
ATOM     20  O   UNL     1      35.986 -25.543 -11.585  0.00  0.00    -0.505 OA
ATOM     21  H   UNL     1      36.445 -25.891 -10.845  0.00  0.00    +0.292 HD
ENDBRANCH   7  20
BRANCH  11  22
ATOM     22  O   UNL     1      40.154 -25.208 -13.834  0.00  0.00    -0.505 OA
ATOM     23  H   UNL     1      40.703 -24.808 -13.188  0.00  0.00    +0.292 HD
ENDBRANCH  11  22
TORSDOF 4
ENDMDL
MODEL 6
REMARK VINA RESULT:      -9.4      5.362     10.135
REMARK  Name = 5280373
REMARK  4 active torsions:
REMARK  status: ('A' for Active; 'I' for Inactive)
REMARK    1  A    between atoms: C_4  and  C_12
REMARK    2  A    between atoms: C_7  and  O_20
REMARK    3  A    between atoms: C_11  and  O_22
REMARK    4  A    between atoms: C_17  and  O_18
REMARK                            x       y       z     vdW  Elec       q    Type
REMARK                         _______ _______ _______ _____ _____    ______ ____
ROOT
ATOM      1  O   UNL     1      31.710 -11.260 -21.909  0.00  0.00    -0.450 OA
ATOM      2  O   UNL     1      34.620 -11.209 -24.769  0.00  0.00    -0.286 OA
ATOM      3  C   UNL     1      33.258  -9.992 -23.283  0.00  0.00    +0.107 C 
ATOM      4  C   UNL     1      33.085 -12.497 -23.483  0.00  0.00    +0.077 C 
ATOM      5  C   UNL     1      32.269 -10.071 -22.303  0.00  0.00    +0.154 C 
ATOM      6  C   UNL     1      33.732 -11.232 -23.926  0.00  0.00    +0.204 C 
ATOM      7  C   UNL     1      33.793  -8.753 -23.644  0.00  0.00    +0.143 C 
ATOM      8  C   UNL     1      32.145 -12.406 -22.529  0.00  0.00    +0.183 C 
ATOM      9  C   UNL     1      31.808  -8.911 -21.679  0.00  0.00    +0.074 C 
ATOM     10  C   UNL     1      33.330  -7.594 -23.018  0.00  0.00    +0.073 C 
ATOM     11  C   UNL     1      32.340  -7.673 -22.038  0.00  0.00    +0.140 C 
ENDROOT
BRANCH   4  12
ATOM     12  C   UNL     1      33.436 -13.800 -24.070  0.00  0.00    +0.006 C 
ATOM     13  C   UNL     1      32.955 -14.153 -25.333  0.00  0.00    +0.003 C 
ATOM     14  C   UNL     1      34.254 -14.688 -23.367  0.00  0.00    +0.003 C 
ATOM     15  C   UNL     1      33.288 -15.387 -25.889  0.00  0.00    +0.037 C 
ATOM     16  C   UNL     1      34.587 -15.923 -23.923  0.00  0.00    +0.037 C 
ATOM     17  C   UNL     1      34.104 -16.273 -25.184  0.00  0.00    +0.139 C 
BRANCH  17  18
ATOM     18  O   UNL     1      34.429 -17.477 -25.727  0.00  0.00    -0.471 OA
ATOM     19  C   UNL     1      34.512 -18.590 -24.837  0.00  0.00    +0.252 C 
ENDBRANCH  17  18
ENDBRANCH   4  12
BRANCH   7  20
ATOM     20  O   UNL     1      34.762  -8.619 -24.592  0.00  0.00    -0.505 OA
ATOM     21  H   UNL     1      35.510  -9.183 -24.582  0.00  0.00    +0.292 HD
ENDBRANCH   7  20
BRANCH  11  22
ATOM     22  O   UNL     1      31.891  -6.539 -21.434  0.00  0.00    -0.505 OA
ATOM     23  H   UNL     1      32.456  -6.062 -20.857  0.00  0.00    +0.292 HD
ENDBRANCH  11  22
TORSDOF 4
ENDMDL
MODEL 7
REMARK VINA RESULT:      -9.3      3.991      6.929
REMARK  Name = 5280373
REMARK  4 active torsions:
REMARK  status: ('A' for Active; 'I' for Inactive)
REMARK    1  A    between atoms: C_4  and  C_12
REMARK    2  A    between atoms: C_7  and  O_20
REMARK    3  A    between atoms: C_11  and  O_22
REMARK    4  A    between atoms: C_17  and  O_18
REMARK                            x       y       z     vdW  Elec       q    Type
REMARK                         _______ _______ _______ _____ _____    ______ ____
ROOT
ATOM      1  O   UNL     1      33.584 -15.683 -25.613  0.00  0.00    -0.450 OA
ATOM      2  O   UNL     1      34.424 -14.544 -21.786  0.00  0.00    -0.286 OA
ATOM      3  C   UNL     1      34.401 -16.257 -23.401  0.00  0.00    +0.107 C 
ATOM      4  C   UNL     1      33.567 -13.939 -23.924  0.00  0.00    +0.077 C 
ATOM      5  C   UNL     1      34.105 -16.587 -24.723  0.00  0.00    +0.154 C 
ATOM      6  C   UNL     1      34.151 -14.882 -22.931  0.00  0.00    +0.204 C 
ATOM      7  C   UNL     1      34.931 -17.219 -22.538  0.00  0.00    +0.143 C 
ATOM      8  C   UNL     1      33.336 -14.411 -25.159  0.00  0.00    +0.183 C 
ATOM      9  C   UNL     1      34.336 -17.882 -25.189  0.00  0.00    +0.074 C 
ATOM     10  C   UNL     1      35.162 -18.514 -23.007  0.00  0.00    +0.073 C 
ATOM     11  C   UNL     1      34.866 -18.844 -24.330  0.00  0.00    +0.140 C 
ENDROOT
BRANCH   4  12
ATOM     12  C   UNL     1      33.232 -12.549 -23.575  0.00  0.00    +0.006 C 
ATOM     13  C   UNL     1      33.896 -11.490 -24.197  0.00  0.00    +0.003 C 
ATOM     14  C   UNL     1      32.247 -12.284 -22.619  0.00  0.00    +0.003 C 
ATOM     15  C   UNL     1      33.579 -10.173 -23.866  0.00  0.00    +0.037 C 
ATOM     16  C   UNL     1      31.930 -10.967 -22.288  0.00  0.00    +0.037 C 
ATOM     17  C   UNL     1      32.595  -9.911 -22.911  0.00  0.00    +0.139 C 
BRANCH  17  18
ATOM     18  O   UNL     1      32.286  -8.626 -22.588  0.00  0.00    -0.471 OA
ATOM     19  C   UNL     1      32.554  -8.211 -21.250  0.00  0.00    +0.252 C 
ENDBRANCH  17  18
ENDBRANCH   4  12
BRANCH   7  20
ATOM     20  O   UNL     1      35.240 -16.951 -21.238  0.00  0.00    -0.505 OA
ATOM     21  H   UNL     1      36.015 -17.315 -20.856  0.00  0.00    +0.292 HD
ENDBRANCH   7  20
BRANCH  11  22
ATOM     22  O   UNL     1      35.091 -20.108 -24.781  0.00  0.00    -0.505 OA
ATOM     23  H   UNL     1      34.511 -20.803 -24.535  0.00  0.00    +0.292 HD
ENDBRANCH  11  22
TORSDOF 4
ENDMDL
MODEL 8
REMARK VINA RESULT:      -9.3      7.355     10.209
REMARK  Name = 5280373
REMARK  4 active torsions:
REMARK  status: ('A' for Active; 'I' for Inactive)
REMARK    1  A    between atoms: C_4  and  C_12
REMARK    2  A    between atoms: C_7  and  O_20
REMARK    3  A    between atoms: C_11  and  O_22
REMARK    4  A    between atoms: C_17  and  O_18
REMARK                            x       y       z     vdW  Elec       q    Type
REMARK                         _______ _______ _______ _____ _____    ______ ____
ROOT
ATOM      1  O   UNL     1      33.078 -23.205 -17.028  0.00  0.00    -0.450 OA
ATOM      2  O   UNL     1      33.231 -24.582 -13.191  0.00  0.00    -0.286 OA
ATOM      3  C   UNL     1      31.960 -23.595 -14.910  0.00  0.00    +0.107 C 
ATOM      4  C   UNL     1      34.390 -24.176 -15.230  0.00  0.00    +0.077 C 
ATOM      5  C   UNL     1      31.964 -23.149 -16.232  0.00  0.00    +0.154 C 
ATOM      6  C   UNL     1      33.200 -24.153 -14.337  0.00  0.00    +0.204 C 
ATOM      7  C   UNL     1      30.794 -23.516 -14.144  0.00  0.00    +0.143 C 
ATOM      8  C   UNL     1      34.232 -23.707 -16.478  0.00  0.00    +0.183 C 
ATOM      9  C   UNL     1      30.802 -22.621 -16.795  0.00  0.00    +0.074 C 
ATOM     10  C   UNL     1      29.633 -22.987 -14.710  0.00  0.00    +0.073 C 
ATOM     11  C   UNL     1      29.637 -22.541 -16.032  0.00  0.00    +0.140 C 
ENDROOT
BRANCH   4  12
ATOM     12  C   UNL     1      35.699 -24.670 -14.772  0.00  0.00    +0.006 C 
ATOM     13  C   UNL     1      36.542 -23.840 -14.031  0.00  0.00    +0.003 C 
ATOM     14  C   UNL     1      36.102 -25.972 -15.078  0.00  0.00    +0.003 C 
ATOM     15  C   UNL     1      37.781 -24.308 -13.598  0.00  0.00    +0.037 C 
ATOM     16  C   UNL     1      37.341 -26.441 -14.645  0.00  0.00    +0.037 C 
ATOM     17  C   UNL     1      38.182 -25.609 -13.905  0.00  0.00    +0.139 C 
BRANCH  17  18
ATOM     18  O   UNL     1      39.392 -26.066 -13.481  0.00  0.00    -0.471 OA
ATOM     19  C   UNL     1      40.518 -25.786 -14.312  0.00  0.00    +0.252 C 
ENDBRANCH  17  18
ENDBRANCH   4  12
BRANCH   7  20
ATOM     20  O   UNL     1      30.735 -23.938 -12.851  0.00  0.00    -0.505 OA
ATOM     21  H   UNL     1      31.388 -24.521 -12.517  0.00  0.00    +0.292 HD
ENDBRANCH   7  20
BRANCH  11  22
ATOM     22  O   UNL     1      28.502 -22.023 -16.577  0.00  0.00    -0.505 OA
ATOM     23  H   UNL     1      28.556 -21.457 -17.323  0.00  0.00    +0.292 HD
ENDBRANCH  11  22
TORSDOF 4
ENDMDL
MODEL 9
REMARK VINA RESULT:      -9.2      1.235      2.551
REMARK  Name = 5280373
REMARK  4 active torsions:
REMARK  status: ('A' for Active; 'I' for Inactive)
REMARK    1  A    between atoms: C_4  and  C_12
REMARK    2  A    between atoms: C_7  and  O_20
REMARK    3  A    between atoms: C_11  and  O_22
REMARK    4  A    between atoms: C_17  and  O_18
REMARK                            x       y       z     vdW  Elec       q    Type
REMARK                         _______ _______ _______ _____ _____    ______ ____
ROOT
ATOM      1  O   UNL     1      32.701 -21.596 -19.633  0.00  0.00    -0.450 OA
ATOM      2  O   UNL     1      36.476 -20.088 -19.981  0.00  0.00    -0.286 OA
ATOM      3  C   UNL     1      34.984 -21.489 -18.817  0.00  0.00    +0.107 C 
ATOM      4  C   UNL     1      34.238 -20.117 -20.793  0.00  0.00    +0.077 C 
ATOM      5  C   UNL     1      33.680 -21.979 -18.753  0.00  0.00    +0.154 C 
ATOM      6  C   UNL     1      35.336 -20.520 -19.872  0.00  0.00    +0.204 C 
ATOM      7  C   UNL     1      35.943 -21.915 -17.894  0.00  0.00    +0.143 C 
ATOM      8  C   UNL     1      33.034 -20.678 -20.599  0.00  0.00    +0.183 C 
ATOM      9  C   UNL     1      33.327 -22.899 -17.764  0.00  0.00    +0.074 C 
ATOM     10  C   UNL     1      35.586 -22.835 -16.906  0.00  0.00    +0.073 C 
ATOM     11  C   UNL     1      34.281 -23.326 -16.842  0.00  0.00    +0.140 C 
ENDROOT
BRANCH   4  12
ATOM     12  C   UNL     1      34.443 -19.129 -21.865  0.00  0.00    +0.006 C 
ATOM     13  C   UNL     1      34.395 -17.763 -21.579  0.00  0.00    +0.003 C 
ATOM     14  C   UNL     1      34.686 -19.556 -23.173  0.00  0.00    +0.003 C 
ATOM     15  C   UNL     1      34.589 -16.828 -22.594  0.00  0.00    +0.037 C 
ATOM     16  C   UNL     1      34.880 -18.620 -24.189  0.00  0.00    +0.037 C 
ATOM     17  C   UNL     1      34.832 -17.257 -23.900  0.00  0.00    +0.139 C 
BRANCH  17  18
ATOM     18  O   UNL     1      35.021 -16.343 -24.891  0.00  0.00    -0.471 OA
ATOM     19  C   UNL     1      33.854 -15.836 -25.538  0.00  0.00    +0.252 C 
ENDBRANCH  17  18
ENDBRANCH   4  12
BRANCH   7  20
ATOM     20  O   UNL     1      37.230 -21.470 -17.912  0.00  0.00    -0.505 OA
ATOM     21  H   UNL     1      37.407 -20.550 -17.936  0.00  0.00    +0.292 HD
ENDBRANCH   7  20
BRANCH  11  22
ATOM     22  O   UNL     1      33.940 -24.221 -15.875  0.00  0.00    -0.505 OA
ATOM     23  H   UNL     1      34.153 -24.046 -14.979  0.00  0.00    +0.292 HD
ENDBRANCH  11  22
TORSDOF 4
ENDMDL
