MODEL 1
REMARK VINA RESULT:      -7.4      0.000      0.000
REMARK  Name = 9543420
REMARK  9 active torsions:
REMARK  status: ('A' for Active; 'I' for Inactive)
REMARK    1  A    between atoms: N_1  and  P_2
REMARK    2  A    between atoms: N_1  and  C_11
REMARK    3  A    between atoms: N_1  and  C_22
REMARK    4  A    between atoms: P_2  and  C_5
REMARK    5  A    between atoms: C_11  and  C_14
REMARK    6  A    between atoms: C_11  and  C_18
REMARK    7  A    between atoms: N_13  and  O_16
REMARK    8  A    between atoms: C_18  and  C_19
REMARK    9  A    between atoms: C_22  and  C_23
REMARK                            x       y       z     vdW  Elec       q    Type
REMARK                         _______ _______ _______ _____ _____    ______ ____
ROOT
ATOM      1  N   UNL     1      35.633 -23.839 -14.690  0.00  0.00    -0.217 NA
ENDROOT
BRANCH   1   2
ATOM      2  P   UNL     1      36.792 -22.888 -15.446  0.00  0.00    +0.192 P 
ATOM      3  O   UNL     1      37.299 -21.742 -14.602  0.00  0.00    -0.299 OA
ATOM      4  C   UNL     1      38.184 -23.997 -15.788  0.00  0.00    +0.088 C 
BRANCH   2   5
ATOM      5  C   UNL     1      36.146 -22.420 -17.035  0.00  0.00    +0.043 C 
ATOM      6  C   UNL     1      34.887 -22.861 -17.421  0.00  0.00    +0.004 C 
ATOM      7  C   UNL     1      36.908 -21.617 -17.873  0.00  0.00    +0.004 C 
ATOM      8  C   UNL     1      34.381 -22.492 -18.667  0.00  0.00    +0.000 C 
ATOM      9  C   UNL     1      36.401 -21.247 -19.120  0.00  0.00    +0.000 C 
ATOM     10  C   UNL     1      35.138 -21.686 -19.517  0.00  0.00    +0.000 C 
ENDBRANCH   2   5
ENDBRANCH   1   2
BRANCH   1  11
ATOM     11  C   UNL     1      36.096 -24.909 -13.808  0.00  0.00    +0.142 C 
BRANCH  11  14
ATOM     12  O   UNL     1      35.790 -26.332 -15.745  0.00  0.00    -0.272 OA
ATOM     13  N   UNL     1      37.470 -26.843 -14.246  0.00  0.00    -0.196 N 
ATOM     14  C   UNL     1      36.420 -26.090 -14.717  0.00  0.00    +0.259 C 
ATOM     15  H   UNL     1      37.948 -26.613 -13.417  0.00  0.00    +0.182 HD
BRANCH  13  16
ATOM     16  O   UNL     1      37.816 -27.957 -15.023  0.00  0.00    -0.295 OA
ATOM     17  H   UNL     1      37.011 -28.434 -15.280  0.00  0.00    +0.241 HD
ENDBRANCH  13  16
ENDBRANCH  11  14
BRANCH  11  18
ATOM     18  C   UNL     1      37.328 -24.491 -12.986  0.00  0.00    +0.026 C 
BRANCH  18  19
ATOM     19  C   UNL     1      37.058 -24.147 -11.506  0.00  0.00    +0.002 C 
ATOM     20  C   UNL     1      37.146 -22.647 -11.228  0.00  0.00    +0.000 C 
ATOM     21  C   UNL     1      35.675 -24.668 -11.100  0.00  0.00    +0.000 C 
ENDBRANCH  18  19
ENDBRANCH  11  18
ENDBRANCH   1  11
BRANCH   1  22
ATOM     22  C   UNL     1      34.537 -23.126 -14.021  0.00  0.00    +0.106 C 
BRANCH  22  23
ATOM     23  C   UNL     1      33.191 -23.689 -14.391  0.00  0.00    -0.006 C 
ATOM     24  C   UNL     1      32.639 -24.701 -13.618  0.00  0.00    -0.003 C 
ATOM     25  C   UNL     1      32.521 -23.189 -15.499  0.00  0.00    -0.003 C 
ATOM     26  C   UNL     1      31.391 -25.223 -13.960  0.00  0.00    -0.000 C 
ATOM     27  C   UNL     1      31.275 -23.710 -15.841  0.00  0.00    -0.000 C 
ATOM     28  C   UNL     1      30.709 -24.727 -15.072  0.00  0.00    -0.000 C 
ENDBRANCH  22  23
ENDBRANCH   1  22
TORSDOF 9
ENDMDL
MODEL 2
REMARK VINA RESULT:      -7.2      2.555      5.452
REMARK  Name = 9543420
REMARK  9 active torsions:
REMARK  status: ('A' for Active; 'I' for Inactive)
REMARK    1  A    between atoms: N_1  and  P_2
REMARK    2  A    between atoms: N_1  and  C_11
REMARK    3  A    between atoms: N_1  and  C_22
REMARK    4  A    between atoms: P_2  and  C_5
REMARK    5  A    between atoms: C_11  and  C_14
REMARK    6  A    between atoms: C_11  and  C_18
REMARK    7  A    between atoms: N_13  and  O_16
REMARK    8  A    between atoms: C_18  and  C_19
REMARK    9  A    between atoms: C_22  and  C_23
REMARK                            x       y       z     vdW  Elec       q    Type
REMARK                         _______ _______ _______ _____ _____    ______ ____
ROOT
ATOM      1  N   UNL     1      33.598 -23.408 -16.205  0.00  0.00    -0.217 NA
ENDROOT
BRANCH   1   2
ATOM      2  P   UNL     1      32.509 -23.768 -14.979  0.00  0.00    +0.192 P 
ATOM      3  O   UNL     1      32.843 -25.020 -14.201  0.00  0.00    -0.299 OA
ATOM      4  C   UNL     1      32.574 -22.360 -13.840  0.00  0.00    +0.088 C 
BRANCH   2   5
ATOM      5  C   UNL     1      30.878 -23.741 -15.688  0.00  0.00    +0.043 C 
ATOM      6  C   UNL     1      30.146 -24.918 -15.773  0.00  0.00    +0.004 C 
ATOM      7  C   UNL     1      30.352 -22.541 -16.148  0.00  0.00    +0.004 C 
ATOM      8  C   UNL     1      28.868 -24.895 -16.328  0.00  0.00    +0.000 C 
ATOM      9  C   UNL     1      29.072 -22.518 -16.703  0.00  0.00    +0.000 C 
ATOM     10  C   UNL     1      28.330 -23.696 -16.794  0.00  0.00    +0.000 C 
ENDBRANCH   2   5
ENDBRANCH   1   2
BRANCH   1  11
ATOM     11  C   UNL     1      34.971 -23.887 -16.061  0.00  0.00    +0.142 C 
BRANCH  11  14
ATOM     12  O   UNL     1      35.681 -22.079 -14.613  0.00  0.00    -0.272 OA
ATOM     13  N   UNL     1      36.676 -22.298 -16.684  0.00  0.00    -0.196 N 
ATOM     14  C   UNL     1      35.803 -22.665 -15.687  0.00  0.00    +0.259 C 
ATOM     15  H   UNL     1      36.742 -22.796 -17.531  0.00  0.00    +0.182 HD
BRANCH  13  16
ATOM     16  O   UNL     1      37.465 -21.171 -16.418  0.00  0.00    -0.295 OA
ATOM     17  H   UNL     1      38.047 -21.355 -15.663  0.00  0.00    +0.241 HD
ENDBRANCH  13  16
ENDBRANCH  11  14
BRANCH  11  18
ATOM     18  C   UNL     1      35.094 -24.987 -14.992  0.00  0.00    +0.026 C 
BRANCH  18  19
ATOM     19  C   UNL     1      36.533 -25.426 -14.648  0.00  0.00    +0.002 C 
ATOM     20  C   UNL     1      36.782 -25.487 -13.141  0.00  0.00    +0.000 C 
ATOM     21  C   UNL     1      36.818 -26.795 -15.275  0.00  0.00    +0.000 C 
ENDBRANCH  18  19
ENDBRANCH  11  18
ENDBRANCH   1  11
BRANCH   1  22
ATOM     22  C   UNL     1      33.151 -23.681 -17.578  0.00  0.00    +0.106 C 
BRANCH  22  23
ATOM     23  C   UNL     1      33.510 -22.562 -18.518  0.00  0.00    -0.006 C 
ATOM     24  C   UNL     1      32.545 -21.625 -18.863  0.00  0.00    -0.003 C 
ATOM     25  C   UNL     1      34.798 -22.483 -19.027  0.00  0.00    -0.003 C 
ATOM     26  C   UNL     1      32.878 -20.588 -19.735  0.00  0.00    -0.000 C 
ATOM     27  C   UNL     1      35.131 -21.446 -19.898  0.00  0.00    -0.000 C 
ATOM     28  C   UNL     1      34.170 -20.498 -20.252  0.00  0.00    -0.000 C 
ENDBRANCH  22  23
ENDBRANCH   1  22
TORSDOF 9
ENDMDL
MODEL 3
REMARK VINA RESULT:      -7.1      2.534      5.500
REMARK  Name = 9543420
REMARK  9 active torsions:
REMARK  status: ('A' for Active; 'I' for Inactive)
REMARK    1  A    between atoms: N_1  and  P_2
REMARK    2  A    between atoms: N_1  and  C_11
REMARK    3  A    between atoms: N_1  and  C_22
REMARK    4  A    between atoms: P_2  and  C_5
REMARK    5  A    between atoms: C_11  and  C_14
REMARK    6  A    between atoms: C_11  and  C_18
REMARK    7  A    between atoms: N_13  and  O_16
REMARK    8  A    between atoms: C_18  and  C_19
REMARK    9  A    between atoms: C_22  and  C_23
REMARK                            x       y       z     vdW  Elec       q    Type
REMARK                         _______ _______ _______ _____ _____    ______ ____
ROOT
ATOM      1  N   UNL     1      33.231 -23.144 -15.687  0.00  0.00    -0.217 NA
ENDROOT
BRANCH   1   2
ATOM      2  P   UNL     1      32.031 -23.758 -14.687  0.00  0.00    +0.192 P 
ATOM      3  O   UNL     1      32.350 -25.111 -14.094  0.00  0.00    -0.299 OA
ATOM      4  C   UNL     1      31.874 -22.569 -13.328  0.00  0.00    +0.088 C 
BRANCH   2   5
ATOM      5  C   UNL     1      30.496 -23.675 -15.580  0.00  0.00    +0.043 C 
ATOM      6  C   UNL     1      29.962 -22.438 -15.915  0.00  0.00    +0.004 C 
ATOM      7  C   UNL     1      29.847 -24.851 -15.935  0.00  0.00    +0.004 C 
ATOM      8  C   UNL     1      28.759 -22.374 -16.616  0.00  0.00    +0.000 C 
ATOM      9  C   UNL     1      28.643 -24.787 -16.638  0.00  0.00    +0.000 C 
ATOM     10  C   UNL     1      28.099 -23.549 -16.977  0.00  0.00    +0.000 C 
ENDBRANCH   2   5
ENDBRANCH   1   2
BRANCH   1  11
ATOM     11  C   UNL     1      34.570 -22.977 -15.125  0.00  0.00    +0.142 C 
BRANCH  11  14
ATOM     12  O   UNL     1      35.125 -25.302 -14.729  0.00  0.00    -0.272 OA
ATOM     13  N   UNL     1      34.637 -23.953 -12.920  0.00  0.00    -0.196 N 
ATOM     14  C   UNL     1      34.816 -24.208 -14.259  0.00  0.00    +0.259 C 
ATOM     15  H   UNL     1      34.390 -23.061 -12.586  0.00  0.00    +0.182 HD
BRANCH  13  16
ATOM     16  O   UNL     1      34.831 -25.043 -12.061  0.00  0.00    -0.295 OA
ATOM     17  H   UNL     1      35.416 -25.690 -12.487  0.00  0.00    +0.241 HD
ENDBRANCH  13  16
ENDBRANCH  11  14
BRANCH  11  18
ATOM     18  C   UNL     1      35.647 -22.845 -16.216  0.00  0.00    +0.026 C 
BRANCH  18  19
ATOM     19  C   UNL     1      37.001 -22.271 -15.752  0.00  0.00    +0.002 C 
ATOM     20  C   UNL     1      38.079 -23.347 -15.618  0.00  0.00    +0.000 C 
ATOM     21  C   UNL     1      37.468 -21.192 -16.735  0.00  0.00    +0.000 C 
ENDBRANCH  18  19
ENDBRANCH  11  18
ENDBRANCH   1  11
BRANCH   1  22
ATOM     22  C   UNL     1      33.357 -23.764 -17.013  0.00  0.00    +0.106 C 
BRANCH  22  23
ATOM     23  C   UNL     1      33.516 -22.736 -18.101  0.00  0.00    -0.006 C 
ATOM     24  C   UNL     1      32.448 -21.906 -18.418  0.00  0.00    -0.003 C 
ATOM     25  C   UNL     1      34.726 -22.631 -18.772  0.00  0.00    -0.003 C 
ATOM     26  C   UNL     1      32.595 -20.953 -19.426  0.00  0.00    -0.000 C 
ATOM     27  C   UNL     1      34.873 -21.678 -19.780  0.00  0.00    -0.000 C 
ATOM     28  C   UNL     1      33.807 -20.838 -20.106  0.00  0.00    -0.000 C 
ENDBRANCH  22  23
ENDBRANCH   1  22
TORSDOF 9
ENDMDL
MODEL 4
REMARK VINA RESULT:      -6.9     13.083     16.885
REMARK  Name = 9543420
REMARK  9 active torsions:
REMARK  status: ('A' for Active; 'I' for Inactive)
REMARK    1  A    between atoms: N_1  and  P_2
REMARK    2  A    between atoms: N_1  and  C_11
REMARK    3  A    between atoms: N_1  and  C_22
REMARK    4  A    between atoms: P_2  and  C_5
REMARK    5  A    between atoms: C_11  and  C_14
REMARK    6  A    between atoms: C_11  and  C_18
REMARK    7  A    between atoms: N_13  and  O_16
REMARK    8  A    between atoms: C_18  and  C_19
REMARK    9  A    between atoms: C_22  and  C_23
REMARK                            x       y       z     vdW  Elec       q    Type
REMARK                         _______ _______ _______ _____ _____    ______ ____
ROOT
ATOM      1  N   UNL     1      32.335 -10.244 -22.563  0.00  0.00    -0.217 NA
ENDROOT
BRANCH   1   2
ATOM      2  P   UNL     1      31.681 -11.222 -21.366  0.00  0.00    +0.192 P 
ATOM      3  O   UNL     1      31.843 -10.679 -19.965  0.00  0.00    -0.299 OA
ATOM      4  C   UNL     1      29.908 -11.319 -21.731  0.00  0.00    +0.088 C 
BRANCH   2   5
ATOM      5  C   UNL     1      32.315 -12.865 -21.611  0.00  0.00    +0.043 C 
ATOM      6  C   UNL     1      32.352 -13.403 -22.891  0.00  0.00    +0.004 C 
ATOM      7  C   UNL     1      32.768 -13.593 -20.519  0.00  0.00    +0.004 C 
ATOM      8  C   UNL     1      32.850 -14.691 -23.082  0.00  0.00    +0.000 C 
ATOM      9  C   UNL     1      33.267 -14.882 -20.710  0.00  0.00    +0.000 C 
ATOM     10  C   UNL     1      33.307 -15.431 -21.992  0.00  0.00    +0.000 C 
ENDBRANCH   2   5
ENDBRANCH   1   2
BRANCH   1  11
ATOM     11  C   UNL     1      31.896  -8.851 -22.624  0.00  0.00    +0.142 C 
BRANCH  11  14
ATOM     12  O   UNL     1      33.914  -7.580 -22.196  0.00  0.00    -0.272 OA
ATOM     13  N   UNL     1      32.467  -7.987 -20.444  0.00  0.00    -0.196 N 
ATOM     14  C   UNL     1      32.874  -8.066 -21.755  0.00  0.00    +0.259 C 
ATOM     15  H   UNL     1      31.625  -8.392 -20.133  0.00  0.00    +0.182 HD
BRANCH  13  16
ATOM     16  O   UNL     1      33.324  -7.293 -19.581  0.00  0.00    -0.295 OA
ATOM     17  H   UNL     1      33.144  -6.341 -19.643  0.00  0.00    +0.241 HD
ENDBRANCH  13  16
ENDBRANCH  11  14
BRANCH  11  18
ATOM     18  C   UNL     1      31.879  -8.309 -24.063  0.00  0.00    +0.026 C 
BRANCH  18  19
ATOM     19  C   UNL     1      31.178  -6.948 -24.256  0.00  0.00    +0.002 C 
ATOM     20  C   UNL     1      30.545  -6.427 -22.966  0.00  0.00    +0.000 C 
ATOM     21  C   UNL     1      32.183  -5.922 -24.790  0.00  0.00    +0.000 C 
ENDBRANCH  18  19
ENDBRANCH  11  18
ENDBRANCH   1  11
BRANCH   1  22
ATOM     22  C   UNL     1      33.797 -10.278 -22.708  0.00  0.00    +0.106 C 
BRANCH  22  23
ATOM     23  C   UNL     1      34.215 -10.594 -24.119  0.00  0.00    -0.006 C 
ATOM     24  C   UNL     1      35.257  -9.883 -24.697  0.00  0.00    -0.003 C 
ATOM     25  C   UNL     1      33.552 -11.591 -24.822  0.00  0.00    -0.003 C 
ATOM     26  C   UNL     1      35.645 -10.176 -26.006  0.00  0.00    -0.000 C 
ATOM     27  C   UNL     1      33.939 -11.883 -26.129  0.00  0.00    -0.000 C 
ATOM     28  C   UNL     1      34.987 -11.176 -26.721  0.00  0.00    -0.000 C 
ENDBRANCH  22  23
ENDBRANCH   1  22
TORSDOF 9
ENDMDL
MODEL 5
REMARK VINA RESULT:      -6.8      8.935     12.635
REMARK  Name = 9543420
REMARK  9 active torsions:
REMARK  status: ('A' for Active; 'I' for Inactive)
REMARK    1  A    between atoms: N_1  and  P_2
REMARK    2  A    between atoms: N_1  and  C_11
REMARK    3  A    between atoms: N_1  and  C_22
REMARK    4  A    between atoms: P_2  and  C_5
REMARK    5  A    between atoms: C_11  and  C_14
REMARK    6  A    between atoms: C_11  and  C_18
REMARK    7  A    between atoms: N_13  and  O_16
REMARK    8  A    between atoms: C_18  and  C_19
REMARK    9  A    between atoms: C_22  and  C_23
REMARK                            x       y       z     vdW  Elec       q    Type
REMARK                         _______ _______ _______ _____ _____    ______ ____
ROOT
ATOM      1  N   UNL     1      33.816 -15.001 -22.494  0.00  0.00    -0.217 NA
ENDROOT
BRANCH   1   2
ATOM      2  P   UNL     1      34.021 -15.507 -20.906  0.00  0.00    +0.192 P 
ATOM      3  O   UNL     1      35.075 -14.740 -20.142  0.00  0.00    -0.299 OA
ATOM      4  C   UNL     1      32.423 -15.229 -20.097  0.00  0.00    +0.088 C 
BRANCH   2   5
ATOM      5  C   UNL     1      34.249 -17.270 -20.932  0.00  0.00    +0.043 C 
ATOM      6  C   UNL     1      35.517 -17.801 -20.737  0.00  0.00    +0.004 C 
ATOM      7  C   UNL     1      33.155 -18.098 -21.147  0.00  0.00    +0.004 C 
ATOM      8  C   UNL     1      35.695 -19.184 -20.757  0.00  0.00    +0.000 C 
ATOM      9  C   UNL     1      33.333 -19.482 -21.166  0.00  0.00    +0.000 C 
ATOM     10  C   UNL     1      34.603 -20.024 -20.971  0.00  0.00    +0.000 C 
ENDBRANCH   2   5
ENDBRANCH   1   2
BRANCH   1  11
ATOM     11  C   UNL     1      33.392 -13.620 -22.722  0.00  0.00    +0.142 C 
BRANCH  11  14
ATOM     12  O   UNL     1      32.397 -14.271 -24.832  0.00  0.00    -0.272 OA
ATOM     13  N   UNL     1      33.836 -12.467 -24.794  0.00  0.00    -0.196 N 
ATOM     14  C   UNL     1      33.137 -13.503 -24.221  0.00  0.00    +0.259 C 
ATOM     15  H   UNL     1      34.418 -11.874 -24.266  0.00  0.00    +0.182 HD
BRANCH  13  16
ATOM     16  O   UNL     1      33.664 -12.306 -26.175  0.00  0.00    -0.295 OA
ATOM     17  H   UNL     1      34.526 -12.148 -26.592  0.00  0.00    +0.241 HD
ENDBRANCH  13  16
ENDBRANCH  11  14
BRANCH  11  18
ATOM     18  C   UNL     1      32.131 -13.259 -21.918  0.00  0.00    +0.026 C 
BRANCH  18  19
ATOM     19  C   UNL     1      32.021 -11.785 -21.474  0.00  0.00    +0.002 C 
ATOM     20  C   UNL     1      31.079 -10.975 -22.364  0.00  0.00    +0.000 C 
ATOM     21  C   UNL     1      31.543 -11.719 -20.020  0.00  0.00    +0.000 C 
ENDBRANCH  18  19
ENDBRANCH  11  18
ENDBRANCH   1  11
BRANCH   1  22
ATOM     22  C   UNL     1      34.909 -15.312 -23.425  0.00  0.00    +0.106 C 
BRANCH  22  23
ATOM     23  C   UNL     1      34.741 -16.668 -24.056  0.00  0.00    -0.006 C 
ATOM     24  C   UNL     1      33.705 -16.878 -24.956  0.00  0.00    -0.003 C 
ATOM     25  C   UNL     1      35.622 -17.689 -23.729  0.00  0.00    -0.003 C 
ATOM     26  C   UNL     1      33.549 -18.135 -25.541  0.00  0.00    -0.000 C 
ATOM     27  C   UNL     1      35.466 -18.945 -24.313  0.00  0.00    -0.000 C 
ATOM     28  C   UNL     1      34.430 -19.168 -25.220  0.00  0.00    -0.000 C 
ENDBRANCH  22  23
ENDBRANCH   1  22
TORSDOF 9
ENDMDL
MODEL 6
REMARK VINA RESULT:      -6.8     12.127     15.344
REMARK  Name = 9543420
REMARK  9 active torsions:
REMARK  status: ('A' for Active; 'I' for Inactive)
REMARK    1  A    between atoms: N_1  and  P_2
REMARK    2  A    between atoms: N_1  and  C_11
REMARK    3  A    between atoms: N_1  and  C_22
REMARK    4  A    between atoms: P_2  and  C_5
REMARK    5  A    between atoms: C_11  and  C_14
REMARK    6  A    between atoms: C_11  and  C_18
REMARK    7  A    between atoms: N_13  and  O_16
REMARK    8  A    between atoms: C_18  and  C_19
REMARK    9  A    between atoms: C_22  and  C_23
REMARK                            x       y       z     vdW  Elec       q    Type
REMARK                         _______ _______ _______ _____ _____    ______ ____
ROOT
ATOM      1  N   UNL     1      32.439 -12.055 -22.443  0.00  0.00    -0.217 NA
ENDROOT
BRANCH   1   2
ATOM      2  P   UNL     1      31.422 -11.097 -21.512  0.00  0.00    +0.192 P 
ATOM      3  O   UNL     1      29.972 -11.523 -21.538  0.00  0.00    -0.299 OA
ATOM      4  C   UNL     1      32.026 -11.257 -19.810  0.00  0.00    +0.088 C 
BRANCH   2   5
ATOM      5  C   UNL     1      31.714  -9.404 -21.971  0.00  0.00    +0.043 C 
ATOM      6  C   UNL     1      31.076  -8.875 -23.085  0.00  0.00    +0.004 C 
ATOM      7  C   UNL     1      32.577  -8.628 -21.208  0.00  0.00    +0.004 C 
ATOM      8  C   UNL     1      31.304  -7.547 -23.443  0.00  0.00    +0.000 C 
ATOM      9  C   UNL     1      32.805  -7.299 -21.566  0.00  0.00    +0.000 C 
ATOM     10  C   UNL     1      32.169  -6.759 -22.684  0.00  0.00    +0.000 C 
ENDBRANCH   2   5
ENDBRANCH   1   2
BRANCH   1  11
ATOM     11  C   UNL     1      32.558 -13.468 -22.090  0.00  0.00    +0.142 C 
BRANCH  11  14
ATOM     12  O   UNL     1      34.783 -13.831 -22.979  0.00  0.00    -0.272 OA
ATOM     13  N   UNL     1      32.991 -14.839 -24.028  0.00  0.00    -0.196 N 
ATOM     14  C   UNL     1      33.577 -14.057 -23.061  0.00  0.00    +0.259 C 
ATOM     15  H   UNL     1      32.019 -14.995 -24.057  0.00  0.00    +0.182 HD
BRANCH  13  16
ATOM     16  O   UNL     1      33.864 -15.403 -24.968  0.00  0.00    -0.295 OA
ATOM     17  H   UNL     1      34.406 -14.703 -25.366  0.00  0.00    +0.241 HD
ENDBRANCH  13  16
ENDBRANCH  11  14
BRANCH  11  18
ATOM     18  C   UNL     1      33.006 -13.668 -20.632  0.00  0.00    +0.026 C 
BRANCH  18  19
ATOM     19  C   UNL     1      33.053 -15.130 -20.142  0.00  0.00    +0.002 C 
ATOM     20  C   UNL     1      32.014 -16.013 -20.833  0.00  0.00    +0.000 C 
ATOM     21  C   UNL     1      34.455 -15.706 -20.372  0.00  0.00    +0.000 C 
ENDBRANCH  18  19
ENDBRANCH  11  18
ENDBRANCH   1  11
BRANCH   1  22
ATOM     22  C   UNL     1      32.281 -11.951 -23.900  0.00  0.00    +0.106 C 
BRANCH  22  23
ATOM     23  C   UNL     1      33.476 -11.304 -24.549  0.00  0.00    -0.006 C 
ATOM     24  C   UNL     1      33.899 -11.748 -25.794  0.00  0.00    -0.003 C 
ATOM     25  C   UNL     1      34.136 -10.274 -23.894  0.00  0.00    -0.003 C 
ATOM     26  C   UNL     1      35.006 -11.149 -26.397  0.00  0.00    -0.000 C 
ATOM     27  C   UNL     1      35.243  -9.676 -24.496  0.00  0.00    -0.000 C 
ATOM     28  C   UNL     1      35.677 -10.113 -25.748  0.00  0.00    -0.000 C 
ENDBRANCH  22  23
ENDBRANCH   1  22
TORSDOF 9
ENDMDL
MODEL 7
REMARK VINA RESULT:      -6.8      1.862      4.547
REMARK  Name = 9543420
REMARK  9 active torsions:
REMARK  status: ('A' for Active; 'I' for Inactive)
REMARK    1  A    between atoms: N_1  and  P_2
REMARK    2  A    between atoms: N_1  and  C_11
REMARK    3  A    between atoms: N_1  and  C_22
REMARK    4  A    between atoms: P_2  and  C_5
REMARK    5  A    between atoms: C_11  and  C_14
REMARK    6  A    between atoms: C_11  and  C_18
REMARK    7  A    between atoms: N_13  and  O_16
REMARK    8  A    between atoms: C_18  and  C_19
REMARK    9  A    between atoms: C_22  and  C_23
REMARK                            x       y       z     vdW  Elec       q    Type
REMARK                         _______ _______ _______ _____ _____    ______ ____
ROOT
ATOM      1  N   UNL     1      34.044 -24.009 -14.589  0.00  0.00    -0.217 NA
ENDROOT
BRANCH   1   2
ATOM      2  P   UNL     1      32.592 -24.154 -13.759  0.00  0.00    +0.192 P 
ATOM      3  O   UNL     1      32.483 -25.400 -12.911  0.00  0.00    -0.299 OA
ATOM      4  C   UNL     1      32.513 -22.714 -12.660  0.00  0.00    +0.088 C 
BRANCH   2   5
ATOM      5  C   UNL     1      31.279 -23.933 -14.938  0.00  0.00    +0.043 C 
ATOM      6  C   UNL     1      31.077 -22.687 -15.517  0.00  0.00    +0.004 C 
ATOM      7  C   UNL     1      30.468 -25.012 -15.269  0.00  0.00    +0.004 C 
ATOM      8  C   UNL     1      30.048 -22.516 -16.442  0.00  0.00    +0.000 C 
ATOM      9  C   UNL     1      29.439 -24.840 -16.195  0.00  0.00    +0.000 C 
ATOM     10  C   UNL     1      29.229 -23.592 -16.781  0.00  0.00    +0.000 C 
ENDBRANCH   2   5
ENDBRANCH   1   2
BRANCH   1  11
ATOM     11  C   UNL     1      35.270 -24.391 -13.890  0.00  0.00    +0.142 C 
BRANCH  11  14
ATOM     12  O   UNL     1      37.057 -24.712 -15.495  0.00  0.00    -0.272 OA
ATOM     13  N   UNL     1      35.625 -26.470 -15.063  0.00  0.00    -0.196 N 
ATOM     14  C   UNL     1      36.094 -25.188 -14.897  0.00  0.00    +0.259 C 
ATOM     15  H   UNL     1      34.849 -26.812 -14.562  0.00  0.00    +0.182 HD
BRANCH  13  16
ATOM     16  O   UNL     1      36.323 -27.260 -15.986  0.00  0.00    -0.295 OA
ATOM     17  H   UNL     1      37.275 -27.200 -15.807  0.00  0.00    +0.241 HD
ENDBRANCH  13  16
ENDBRANCH  11  14
BRANCH  11  18
ATOM     18  C   UNL     1      36.054 -23.169 -13.380  0.00  0.00    +0.026 C 
BRANCH  18  19
ATOM     19  C   UNL     1      36.616 -23.286 -11.949  0.00  0.00    +0.002 C 
ATOM     20  C   UNL     1      35.760 -24.182 -11.054  0.00  0.00    +0.000 C 
ATOM     21  C   UNL     1      38.049 -23.828 -12.001  0.00  0.00    +0.000 C 
ENDBRANCH  18  19
ENDBRANCH  11  18
ENDBRANCH   1  11
BRANCH   1  22
ATOM     22  C   UNL     1      34.083 -24.578 -15.943  0.00  0.00    +0.106 C 
BRANCH  22  23
ATOM     23  C   UNL     1      34.294 -23.519 -16.991  0.00  0.00    -0.006 C 
ATOM     24  C   UNL     1      33.322 -23.316 -17.961  0.00  0.00    -0.003 C 
ATOM     25  C   UNL     1      35.456 -22.760 -16.973  0.00  0.00    -0.003 C 
ATOM     26  C   UNL     1      33.517 -22.334 -18.933  0.00  0.00    -0.000 C 
ATOM     27  C   UNL     1      35.651 -21.779 -17.944  0.00  0.00    -0.000 C 
ATOM     28  C   UNL     1      34.681 -21.565 -18.924  0.00  0.00    -0.000 C 
ENDBRANCH  22  23
ENDBRANCH   1  22
TORSDOF 9
ENDMDL
MODEL 8
REMARK VINA RESULT:      -6.6      2.217      5.258
REMARK  Name = 9543420
REMARK  9 active torsions:
REMARK  status: ('A' for Active; 'I' for Inactive)
REMARK    1  A    between atoms: N_1  and  P_2
REMARK    2  A    between atoms: N_1  and  C_11
REMARK    3  A    between atoms: N_1  and  C_22
REMARK    4  A    between atoms: P_2  and  C_5
REMARK    5  A    between atoms: C_11  and  C_14
REMARK    6  A    between atoms: C_11  and  C_18
REMARK    7  A    between atoms: N_13  and  O_16
REMARK    8  A    between atoms: C_18  and  C_19
REMARK    9  A    between atoms: C_22  and  C_23
REMARK                            x       y       z     vdW  Elec       q    Type
REMARK                         _______ _______ _______ _____ _____    ______ ____
ROOT
ATOM      1  N   UNL     1      35.691 -24.614 -14.160  0.00  0.00    -0.217 NA
ENDROOT
BRANCH   1   2
ATOM      2  P   UNL     1      36.670 -25.978 -14.118  0.00  0.00    +0.192 P 
ATOM      3  O   UNL     1      36.382 -26.912 -12.966  0.00  0.00    -0.299 OA
ATOM      4  C   UNL     1      36.334 -26.866 -15.662  0.00  0.00    +0.088 C 
BRANCH   2   5
ATOM      5  C   UNL     1      38.357 -25.429 -14.234  0.00  0.00    +0.043 C 
ATOM      6  C   UNL     1      39.010 -25.469 -15.459  0.00  0.00    +0.004 C 
ATOM      7  C   UNL     1      39.005 -24.964 -13.097  0.00  0.00    +0.004 C 
ATOM      8  C   UNL     1      40.332 -25.038 -15.549  0.00  0.00    +0.000 C 
ATOM      9  C   UNL     1      40.328 -24.532 -13.187  0.00  0.00    +0.000 C 
ATOM     10  C   UNL     1      40.992 -24.569 -14.413  0.00  0.00    +0.000 C 
ENDBRANCH   2   5
ENDBRANCH   1   2
BRANCH   1  11
ATOM     11  C   UNL     1      34.753 -24.413 -13.058  0.00  0.00    +0.142 C 
BRANCH  11  14
ATOM     12  O   UNL     1      36.265 -22.836 -12.010  0.00  0.00    -0.272 OA
ATOM     13  N   UNL     1      35.473 -24.609 -10.763  0.00  0.00    -0.196 N 
ATOM     14  C   UNL     1      35.578 -23.850 -11.904  0.00  0.00    +0.259 C 
ATOM     15  H   UNL     1      34.909 -25.415 -10.722  0.00  0.00    +0.182 HD
BRANCH  13  16
ATOM     16  O   UNL     1      36.217 -24.162  -9.663  0.00  0.00    -0.295 OA
ATOM     17  H   UNL     1      35.802 -23.365  -9.296  0.00  0.00    +0.241 HD
ENDBRANCH  13  16
ENDBRANCH  11  14
BRANCH  11  18
ATOM     18  C   UNL     1      33.608 -23.457 -13.435  0.00  0.00    +0.026 C 
BRANCH  18  19
ATOM     19  C   UNL     1      32.488 -24.066 -14.304  0.00  0.00    +0.002 C 
ATOM     20  C   UNL     1      31.655 -25.098 -13.546  0.00  0.00    +0.000 C 
ATOM     21  C   UNL     1      31.578 -22.950 -14.828  0.00  0.00    +0.000 C 
ENDBRANCH  18  19
ENDBRANCH  11  18
ENDBRANCH   1  11
BRANCH   1  22
ATOM     22  C   UNL     1      36.362 -23.337 -14.440  0.00  0.00    +0.106 C 
BRANCH  22  23
ATOM     23  C   UNL     1      36.105 -22.864 -15.846  0.00  0.00    -0.006 C 
ATOM     24  C   UNL     1      34.892 -23.157 -16.453  0.00  0.00    -0.003 C 
ATOM     25  C   UNL     1      37.084 -22.143 -16.514  0.00  0.00    -0.003 C 
ATOM     26  C   UNL     1      34.653 -22.718 -17.756  0.00  0.00    -0.000 C 
ATOM     27  C   UNL     1      36.846 -21.705 -17.816  0.00  0.00    -0.000 C 
ATOM     28  C   UNL     1      35.630 -21.992 -18.437  0.00  0.00    -0.000 C 
ENDBRANCH  22  23
ENDBRANCH   1  22
TORSDOF 9
ENDMDL
MODEL 9
REMARK VINA RESULT:      -6.6      2.285      5.168
REMARK  Name = 9543420
REMARK  9 active torsions:
REMARK  status: ('A' for Active; 'I' for Inactive)
REMARK    1  A    between atoms: N_1  and  P_2
REMARK    2  A    between atoms: N_1  and  C_11
REMARK    3  A    between atoms: N_1  and  C_22
REMARK    4  A    between atoms: P_2  and  C_5
REMARK    5  A    between atoms: C_11  and  C_14
REMARK    6  A    between atoms: C_11  and  C_18
REMARK    7  A    between atoms: N_13  and  O_16
REMARK    8  A    between atoms: C_18  and  C_19
REMARK    9  A    between atoms: C_22  and  C_23
REMARK                            x       y       z     vdW  Elec       q    Type
REMARK                         _______ _______ _______ _____ _____    ______ ____
ROOT
ATOM      1  N   UNL     1      33.947 -23.592 -14.920  0.00  0.00    -0.217 NA
ENDROOT
BRANCH   1   2
ATOM      2  P   UNL     1      32.638 -23.987 -13.945  0.00  0.00    +0.192 P 
ATOM      3  O   UNL     1      32.821 -25.257 -13.147  0.00  0.00    -0.299 OA
ATOM      4  C   UNL     1      32.464 -22.609 -12.781  0.00  0.00    +0.088 C 
BRANCH   2   5
ATOM      5  C   UNL     1      31.181 -23.946 -14.964  0.00  0.00    +0.043 C 
ATOM      6  C   UNL     1      30.430 -25.101 -15.135  0.00  0.00    +0.004 C 
ATOM      7  C   UNL     1      30.809 -22.757 -15.577  0.00  0.00    +0.004 C 
ATOM      8  C   UNL     1      29.287 -25.068 -15.933  0.00  0.00    +0.000 C 
ATOM      9  C   UNL     1      29.665 -22.723 -16.375  0.00  0.00    +0.000 C 
ATOM     10  C   UNL     1      28.905 -23.879 -16.553  0.00  0.00    +0.000 C 
ENDBRANCH   2   5
ENDBRANCH   1   2
BRANCH   1  11
ATOM     11  C   UNL     1      35.252 -24.150 -14.570  0.00  0.00    +0.142 C 
BRANCH  11  14
ATOM     12  O   UNL     1      35.754 -22.825 -12.604  0.00  0.00    -0.272 OA
ATOM     13  N   UNL     1      35.174 -25.042 -12.330  0.00  0.00    -0.196 N 
ATOM     14  C   UNL     1      35.420 -23.912 -13.072  0.00  0.00    +0.259 C 
ATOM     15  H   UNL     1      34.908 -25.894 -12.746  0.00  0.00    +0.182 HD
BRANCH  13  16
ATOM     16  O   UNL     1      35.324 -24.905 -10.943  0.00  0.00    -0.295 OA
ATOM     17  H   UNL     1      35.930 -25.588 -10.615  0.00  0.00    +0.241 HD
ENDBRANCH  13  16
ENDBRANCH  11  14
BRANCH  11  18
ATOM     18  C   UNL     1      35.354 -25.648 -14.905  0.00  0.00    +0.026 C 
BRANCH  18  19
ATOM     19  C   UNL     1      36.772 -26.168 -15.217  0.00  0.00    +0.002 C 
ATOM     20  C   UNL     1      37.838 -25.080 -15.080  0.00  0.00    +0.000 C 
ATOM     21  C   UNL     1      37.108 -27.339 -14.287  0.00  0.00    +0.000 C 
ENDBRANCH  18  19
ENDBRANCH  11  18
ENDBRANCH   1  11
BRANCH   1  22
ATOM     22  C   UNL     1      33.751 -23.740 -16.369  0.00  0.00    +0.106 C 
BRANCH  22  23
ATOM     23  C   UNL     1      34.714 -22.892 -17.155  0.00  0.00    -0.006 C 
ATOM     24  C   UNL     1      35.912 -22.502 -16.572  0.00  0.00    -0.003 C 
ATOM     25  C   UNL     1      34.392 -22.513 -18.451  0.00  0.00    -0.003 C 
ATOM     26  C   UNL     1      36.806 -21.716 -17.301  0.00  0.00    -0.000 C 
ATOM     27  C   UNL     1      35.285 -21.728 -19.179  0.00  0.00    -0.000 C 
ATOM     28  C   UNL     1      36.492 -21.330 -18.604  0.00  0.00    -0.000 C 
ENDBRANCH  22  23
ENDBRANCH   1  22
TORSDOF 9
ENDMDL
