MODEL 1
REMARK VINA RESULT:     -11.6      0.000      0.000
REMARK  Name = 46892373
REMARK  3 active torsions:
REMARK  status: ('A' for Active; 'I' for Inactive)
REMARK    1  A    between atoms: C_7  and  C_20
REMARK    2  A    between atoms: C_20  and  C_22
REMARK    3  A    between atoms: C_20  and  O_28
REMARK                            x       y       z     vdW  Elec       q    Type
REMARK                         _______ _______ _______ _____ _____    ______ ____
ROOT
ATOM      1  N   UNL     1      34.152 -23.703 -17.223  0.00  0.00    -0.326 NA
ATOM      2  N   UNL     1      34.793 -24.318 -15.043  0.00  0.00    -0.271 N 
ATOM      3  N   UNL     1      31.956 -22.809 -17.653  0.00  0.00    -0.345 NA
ATOM      4  N   UNL     1      38.203 -23.927 -15.561  0.00  0.00    -0.239 N 
ATOM      5  N   UNL     1      36.953 -23.691 -15.991  0.00  0.00    -0.166 NA
ATOM      6  C   UNL     1      32.570 -23.424 -15.417  0.00  0.00    +0.072 C 
ATOM      7  C   UNL     1      33.192 -23.207 -18.018  0.00  0.00    +0.146 C 
ATOM      8  C   UNL     1      33.811 -23.799 -15.924  0.00  0.00    +0.199 C 
ATOM      9  C   UNL     1      31.648 -22.919 -16.348  0.00  0.00    +0.129 C 
ATOM     10  C   UNL     1      32.236 -23.534 -14.057  0.00  0.00    +0.006 C 
ATOM     11  C   UNL     1      30.395 -22.531 -15.878  0.00  0.00    +0.086 C 
ATOM     12  C   UNL     1      36.196 -24.279 -15.061  0.00  0.00    +0.152 C 
ATOM     13  C   UNL     1      30.977 -23.140 -13.614  0.00  0.00    -0.004 C 
ATOM     14  C   UNL     1      30.056 -22.638 -14.526  0.00  0.00    -0.019 C 
ATOM     15  C   UNL     1      36.957 -24.885 -14.044  0.00  0.00    +0.048 C 
ATOM     16  C   UNL     1      38.261 -24.638 -14.399  0.00  0.00    +0.046 C 
ATOM     17  C   UNL     1      39.538 -25.001 -13.763  0.00  0.00    +0.049 C 
ATOM     18  H   UNL     1      34.419 -24.800 -14.271  0.00  0.00    +0.156 HD
ATOM     19  H   UNL     1      39.005 -23.615 -16.041  0.00  0.00    +0.174 HD
ENDROOT
BRANCH   7  20
ATOM     20  C   UNL     1      33.526 -23.082 -19.467  0.00  0.00    +0.243 C 
BRANCH  20  22
ATOM     21  F   UNL     1      36.508 -18.447 -20.729  0.00  0.00    -0.204 F 
ATOM     22  C   UNL     1      34.330 -21.832 -19.807  0.00  0.00    +0.021 C 
ATOM     23  C   UNL     1      33.689 -20.716 -20.344  0.00  0.00    +0.001 C 
ATOM     24  C   UNL     1      35.706 -21.805 -19.582  0.00  0.00    +0.001 C 
ATOM     25  C   UNL     1      34.424 -19.572 -20.655  0.00  0.00    +0.029 C 
ATOM     26  C   UNL     1      36.442 -20.661 -19.893  0.00  0.00    +0.029 C 
ATOM     27  C   UNL     1      35.801 -19.545 -20.430  0.00  0.00    +0.140 C 
ENDBRANCH  20  22
BRANCH  20  28
ATOM     28  O   UNL     1      34.217 -24.241 -19.968  0.00  0.00    -0.366 OA
ATOM     29  H   UNL     1      33.581 -24.838 -20.393  0.00  0.00    +0.212 HD
ENDBRANCH  20  28
ENDBRANCH   7  20
TORSDOF 3
ENDMDL
MODEL 2
REMARK VINA RESULT:     -11.5      1.691      5.353
REMARK  Name = 46892373
REMARK  3 active torsions:
REMARK  status: ('A' for Active; 'I' for Inactive)
REMARK    1  A    between atoms: C_7  and  C_20
REMARK    2  A    between atoms: C_20  and  C_22
REMARK    3  A    between atoms: C_20  and  O_28
REMARK                            x       y       z     vdW  Elec       q    Type
REMARK                         _______ _______ _______ _____ _____    ______ ____
ROOT
ATOM      1  N   UNL     1      32.172 -22.780 -17.408  0.00  0.00    -0.326 NA
ATOM      2  N   UNL     1      30.819 -22.538 -15.498  0.00  0.00    -0.271 N 
ATOM      3  N   UNL     1      34.410 -23.655 -17.227  0.00  0.00    -0.345 NA
ATOM      4  N   UNL     1      27.793 -22.722 -17.190  0.00  0.00    -0.239 N 
ATOM      5  N   UNL     1      29.122 -22.918 -17.211  0.00  0.00    -0.166 NA
ATOM      6  C   UNL     1      33.063 -23.423 -15.255  0.00  0.00    +0.072 C 
ATOM      7  C   UNL     1      33.358 -23.160 -17.909  0.00  0.00    +0.146 C 
ATOM      8  C   UNL     1      32.055 -22.925 -16.075  0.00  0.00    +0.199 C 
ATOM      9  C   UNL     1      34.259 -23.786 -15.896  0.00  0.00    +0.129 C 
ATOM     10  C   UNL     1      32.917 -23.564 -13.865  0.00  0.00    +0.006 C 
ATOM     11  C   UNL     1      35.292 -24.290 -15.109  0.00  0.00    +0.086 C 
ATOM     12  C   UNL     1      29.505 -22.528 -15.992  0.00  0.00    +0.152 C 
ATOM     13  C   UNL     1      33.965 -24.070 -13.102  0.00  0.00    -0.004 C 
ATOM     14  C   UNL     1      35.154 -24.433 -13.726  0.00  0.00    -0.019 C 
ATOM     15  C   UNL     1      28.429 -22.086 -15.200  0.00  0.00    +0.048 C 
ATOM     16  C   UNL     1      27.328 -22.224 -16.009  0.00  0.00    +0.046 C 
ATOM     17  C   UNL     1      25.901 -21.938 -15.786  0.00  0.00    +0.049 C 
ATOM     18  H   UNL     1      30.897 -22.211 -14.573  0.00  0.00    +0.156 HD
ATOM     19  H   UNL     1      27.209 -22.919 -17.959  0.00  0.00    +0.174 HD
ENDROOT
BRANCH   7  20
ATOM     20  C   UNL     1      33.533 -23.017 -19.384  0.00  0.00    +0.243 C 
BRANCH  20  22
ATOM     21  F   UNL     1      36.413 -18.395 -20.903  0.00  0.00    -0.204 F 
ATOM     22  C   UNL     1      34.310 -21.771 -19.793  0.00  0.00    +0.021 C 
ATOM     23  C   UNL     1      33.634 -20.671 -20.321  0.00  0.00    +0.001 C 
ATOM     24  C   UNL     1      35.696 -21.731 -19.641  0.00  0.00    +0.001 C 
ATOM     25  C   UNL     1      34.344 -19.530 -20.695  0.00  0.00    +0.029 C 
ATOM     26  C   UNL     1      36.407 -20.591 -20.017  0.00  0.00    +0.029 C 
ATOM     27  C   UNL     1      35.730 -19.490 -20.543  0.00  0.00    +0.140 C 
ENDBRANCH  20  22
BRANCH  20  28
ATOM     28  O   UNL     1      34.151 -24.176 -19.973  0.00  0.00    -0.366 OA
ATOM     29  H   UNL     1      33.857 -24.267 -20.893  0.00  0.00    +0.212 HD
ENDBRANCH  20  28
ENDBRANCH   7  20
TORSDOF 3
ENDMDL
MODEL 3
REMARK VINA RESULT:     -10.8      3.039      7.244
REMARK  Name = 46892373
REMARK  3 active torsions:
REMARK  status: ('A' for Active; 'I' for Inactive)
REMARK    1  A    between atoms: C_7  and  C_20
REMARK    2  A    between atoms: C_20  and  C_22
REMARK    3  A    between atoms: C_20  and  O_28
REMARK                            x       y       z     vdW  Elec       q    Type
REMARK                         _______ _______ _______ _____ _____    ______ ____
ROOT
ATOM      1  N   UNL     1      33.197 -23.532 -15.792  0.00  0.00    -0.326 NA
ATOM      2  N   UNL     1      31.488 -22.796 -17.232  0.00  0.00    -0.271 N 
ATOM      3  N   UNL     1      35.514 -23.171 -16.347  0.00  0.00    -0.345 NA
ATOM      4  N   UNL     1      29.051 -22.532 -14.774  0.00  0.00    -0.239 N 
ATOM      5  N   UNL     1      30.354 -22.657 -15.075  0.00  0.00    -0.166 NA
ATOM      6  C   UNL     1      33.802 -22.405 -17.843  0.00  0.00    +0.072 C 
ATOM      7  C   UNL     1      34.516 -23.622 -15.561  0.00  0.00    +0.146 C 
ATOM      8  C   UNL     1      32.871 -22.916 -16.943  0.00  0.00    +0.199 C 
ATOM      9  C   UNL     1      35.153 -22.561 -17.491  0.00  0.00    +0.129 C 
ATOM     10  C   UNL     1      33.437 -21.767 -19.041  0.00  0.00    +0.006 C 
ATOM     11  C   UNL     1      36.115 -22.062 -18.366  0.00  0.00    +0.086 C 
ATOM     12  C   UNL     1      30.355 -22.680 -16.411  0.00  0.00    +0.152 C 
ATOM     13  C   UNL     1      34.418 -21.279 -19.897  0.00  0.00    -0.004 C 
ATOM     14  C   UNL     1      35.758 -21.426 -19.559  0.00  0.00    -0.019 C 
ATOM     15  C   UNL     1      29.063 -22.572 -16.958  0.00  0.00    +0.048 C 
ATOM     16  C   UNL     1      28.236 -22.477 -15.865  0.00  0.00    +0.046 C 
ATOM     17  C   UNL     1      26.775 -22.343 -15.747  0.00  0.00    +0.049 C 
ATOM     18  H   UNL     1      31.282 -22.794 -18.195  0.00  0.00    +0.156 HD
ATOM     19  H   UNL     1      28.715 -22.485 -13.849  0.00  0.00    +0.174 HD
ENDROOT
BRANCH   7  20
ATOM     20  C   UNL     1      34.925 -24.297 -14.294  0.00  0.00    +0.243 C 
BRANCH  20  22
ATOM     21  F   UNL     1      40.156 -26.437 -14.436  0.00  0.00    -0.204 F 
ATOM     22  C   UNL     1      36.335 -24.874 -14.333  0.00  0.00    +0.021 C 
ATOM     23  C   UNL     1      36.572 -26.096 -14.962  0.00  0.00    +0.001 C 
ATOM     24  C   UNL     1      37.389 -24.180 -13.738  0.00  0.00    +0.001 C 
ATOM     25  C   UNL     1      37.863 -26.624 -14.998  0.00  0.00    +0.029 C 
ATOM     26  C   UNL     1      38.680 -24.708 -13.773  0.00  0.00    +0.029 C 
ATOM     27  C   UNL     1      38.917 -25.930 -14.403  0.00  0.00    +0.140 C 
ENDBRANCH  20  22
BRANCH  20  28
ATOM     28  O   UNL     1      34.797 -23.432 -13.150  0.00  0.00    -0.366 OA
ATOM     29  H   UNL     1      33.995 -23.665 -12.657  0.00  0.00    +0.212 HD
ENDBRANCH  20  28
ENDBRANCH   7  20
TORSDOF 3
ENDMDL
MODEL 4
REMARK VINA RESULT:     -10.6      1.370      1.750
REMARK  Name = 46892373
REMARK  3 active torsions:
REMARK  status: ('A' for Active; 'I' for Inactive)
REMARK    1  A    between atoms: C_7  and  C_20
REMARK    2  A    between atoms: C_20  and  C_22
REMARK    3  A    between atoms: C_20  and  O_28
REMARK                            x       y       z     vdW  Elec       q    Type
REMARK                         _______ _______ _______ _____ _____    ______ ____
ROOT
ATOM      1  N   UNL     1      34.341 -23.220 -16.944  0.00  0.00    -0.326 NA
ATOM      2  N   UNL     1      34.281 -23.914 -14.696  0.00  0.00    -0.271 N 
ATOM      3  N   UNL     1      32.329 -22.521 -18.070  0.00  0.00    -0.345 NA
ATOM      4  N   UNL     1      37.597 -23.152 -14.008  0.00  0.00    -0.239 N 
ATOM      5  N   UNL     1      36.545 -23.013 -14.832  0.00  0.00    -0.166 NA
ATOM      6  C   UNL     1      32.224 -23.222 -15.778  0.00  0.00    +0.072 C 
ATOM      7  C   UNL     1      33.652 -22.769 -18.004  0.00  0.00    +0.146 C 
ATOM      8  C   UNL     1      33.598 -23.437 -15.844  0.00  0.00    +0.199 C 
ATOM      9  C   UNL     1      31.615 -22.749 -16.953  0.00  0.00    +0.129 C 
ATOM     10  C   UNL     1      31.468 -23.456 -14.617  0.00  0.00    +0.006 C 
ATOM     11  C   UNL     1      30.241 -22.521 -16.927  0.00  0.00    +0.086 C 
ATOM     12  C   UNL     1      35.594 -23.734 -14.233  0.00  0.00    +0.152 C 
ATOM     13  C   UNL     1      30.097 -23.220 -14.619  0.00  0.00    -0.004 C 
ATOM     14  C   UNL     1      29.484 -22.751 -15.775  0.00  0.00    -0.019 C 
ATOM     15  C   UNL     1      36.035 -24.329 -13.036  0.00  0.00    +0.048 C 
ATOM     16  C   UNL     1      37.344 -23.930 -12.918  0.00  0.00    +0.046 C 
ATOM     17  C   UNL     1      38.367 -24.206 -11.897  0.00  0.00    +0.049 C 
ATOM     18  H   UNL     1      33.728 -24.481 -14.112  0.00  0.00    +0.156 HD
ATOM     19  H   UNL     1      38.471 -22.730 -14.177  0.00  0.00    +0.174 HD
ENDROOT
BRANCH   7  20
ATOM     20  C   UNL     1      34.437 -22.514 -19.248  0.00  0.00    +0.243 C 
BRANCH  20  22
ATOM     21  F   UNL     1      33.458 -17.448 -21.559  0.00  0.00    -0.204 F 
ATOM     22  C   UNL     1      34.173 -21.148 -19.872  0.00  0.00    +0.021 C 
ATOM     23  C   UNL     1      35.239 -20.366 -20.315  0.00  0.00    +0.001 C 
ATOM     24  C   UNL     1      32.865 -20.680 -19.998  0.00  0.00    +0.001 C 
ATOM     25  C   UNL     1      34.998 -19.117 -20.886  0.00  0.00    +0.029 C 
ATOM     26  C   UNL     1      32.623 -19.429 -20.568  0.00  0.00    +0.029 C 
ATOM     27  C   UNL     1      33.690 -18.648 -21.012  0.00  0.00    +0.140 C 
ENDBRANCH  20  22
BRANCH  20  28
ATOM     28  O   UNL     1      35.852 -22.677 -19.043  0.00  0.00    -0.366 OA
ATOM     29  H   UNL     1      36.220 -23.229 -19.750  0.00  0.00    +0.212 HD
ENDBRANCH  20  28
ENDBRANCH   7  20
TORSDOF 3
ENDMDL
MODEL 5
REMARK VINA RESULT:     -10.6      3.169      6.927
REMARK  Name = 46892373
REMARK  3 active torsions:
REMARK  status: ('A' for Active; 'I' for Inactive)
REMARK    1  A    between atoms: C_7  and  C_20
REMARK    2  A    between atoms: C_20  and  C_22
REMARK    3  A    between atoms: C_20  and  O_28
REMARK                            x       y       z     vdW  Elec       q    Type
REMARK                         _______ _______ _______ _____ _____    ______ ____
ROOT
ATOM      1  N   UNL     1      35.459 -23.178 -16.197  0.00  0.00    -0.326 NA
ATOM      2  N   UNL     1      33.260 -23.269 -17.031  0.00  0.00    -0.271 N 
ATOM      3  N   UNL     1      37.174 -21.970 -17.382  0.00  0.00    -0.345 NA
ATOM      4  N   UNL     1      31.746 -23.831 -13.957  0.00  0.00    -0.239 N 
ATOM      5  N   UNL     1      32.844 -23.451 -14.632  0.00  0.00    -0.166 NA
ATOM      6  C   UNL     1      34.945 -22.039 -18.266  0.00  0.00    +0.072 C 
ATOM      7  C   UNL     1      36.711 -22.726 -16.367  0.00  0.00    +0.146 C 
ATOM      8  C   UNL     1      34.597 -22.817 -17.165  0.00  0.00    +0.199 C 
ATOM      9  C   UNL     1      36.286 -21.627 -18.333  0.00  0.00    +0.129 C 
ATOM     10  C   UNL     1      34.027 -21.675 -19.265  0.00  0.00    +0.006 C 
ATOM     11  C   UNL     1      36.674 -20.846 -19.420  0.00  0.00    +0.086 C 
ATOM     12  C   UNL     1      32.466 -23.557 -15.909  0.00  0.00    +0.152 C 
ATOM     13  C   UNL     1      34.440 -20.895 -20.340  0.00  0.00    -0.004 C 
ATOM     14  C   UNL     1      35.765 -20.480 -20.417  0.00  0.00    -0.019 C 
ATOM     15  C   UNL     1      31.138 -24.002 -16.048  0.00  0.00    +0.048 C 
ATOM     16  C   UNL     1      30.697 -24.172 -14.758  0.00  0.00    +0.046 C 
ATOM     17  C   UNL     1      29.405 -24.617 -14.212  0.00  0.00    +0.049 C 
ATOM     18  H   UNL     1      32.800 -23.411 -17.889  0.00  0.00    +0.156 HD
ATOM     19  H   UNL     1      31.704 -23.861 -12.974  0.00  0.00    +0.174 HD
ENDROOT
BRANCH   7  20
ATOM     20  C   UNL     1      37.702 -23.103 -15.316  0.00  0.00    +0.243 C 
BRANCH  20  22
ATOM     21  F   UNL     1      35.352 -24.677 -10.422  0.00  0.00    -0.204 F 
ATOM     22  C   UNL     1      37.068 -23.527 -13.997  0.00  0.00    +0.021 C 
ATOM     23  C   UNL     1      37.304 -22.784 -12.840  0.00  0.00    +0.001 C 
ATOM     24  C   UNL     1      36.254 -24.658 -13.946  0.00  0.00    +0.001 C 
ATOM     25  C   UNL     1      36.723 -23.172 -11.632  0.00  0.00    +0.029 C 
ATOM     26  C   UNL     1      35.674 -25.047 -12.738  0.00  0.00    +0.029 C 
ATOM     27  C   UNL     1      35.909 -24.304 -11.581  0.00  0.00    +0.140 C 
ENDBRANCH  20  22
BRANCH  20  28
ATOM     28  O   UNL     1      38.604 -24.132 -15.762  0.00  0.00    -0.366 OA
ATOM     29  H   UNL     1      38.096 -24.865 -16.145  0.00  0.00    +0.212 HD
ENDBRANCH  20  28
ENDBRANCH   7  20
TORSDOF 3
ENDMDL
MODEL 6
REMARK VINA RESULT:     -10.4      2.910      5.548
REMARK  Name = 46892373
REMARK  3 active torsions:
REMARK  status: ('A' for Active; 'I' for Inactive)
REMARK    1  A    between atoms: C_7  and  C_20
REMARK    2  A    between atoms: C_20  and  C_22
REMARK    3  A    between atoms: C_20  and  O_28
REMARK                            x       y       z     vdW  Elec       q    Type
REMARK                         _______ _______ _______ _____ _____    ______ ____
ROOT
ATOM      1  N   UNL     1      34.447 -23.718 -15.399  0.00  0.00    -0.326 NA
ATOM      2  N   UNL     1      36.700 -23.380 -15.987  0.00  0.00    -0.271 N 
ATOM      3  N   UNL     1      32.672 -22.960 -16.843  0.00  0.00    -0.345 NA
ATOM      4  N   UNL     1      37.947 -26.027 -14.119  0.00  0.00    -0.239 N 
ATOM      5  N   UNL     1      36.878 -25.424 -14.664  0.00  0.00    -0.166 NA
ATOM      6  C   UNL     1      34.957 -22.596 -17.479  0.00  0.00    +0.072 C 
ATOM      7  C   UNL     1      33.158 -23.552 -15.733  0.00  0.00    +0.146 C 
ATOM      8  C   UNL     1      35.325 -23.229 -16.295  0.00  0.00    +0.199 C 
ATOM      9  C   UNL     1      33.577 -22.481 -17.716  0.00  0.00    +0.129 C 
ATOM     10  C   UNL     1      35.892 -22.092 -18.398  0.00  0.00    +0.006 C 
ATOM     11  C   UNL     1      33.169 -21.854 -18.891  0.00  0.00    +0.086 C 
ATOM     12  C   UNL     1      37.407 -24.352 -15.261  0.00  0.00    +0.152 C 
ATOM     13  C   UNL     1      35.458 -21.469 -19.564  0.00  0.00    -0.004 C 
ATOM     14  C   UNL     1      34.094 -21.351 -19.810  0.00  0.00    -0.019 C 
ATOM     15  C   UNL     1      38.803 -24.272 -15.098  0.00  0.00    +0.048 C 
ATOM     16  C   UNL     1      39.124 -25.378 -14.349  0.00  0.00    +0.046 C 
ATOM     17  C   UNL     1      40.409 -25.877 -13.834  0.00  0.00    +0.049 C 
ATOM     18  H   UNL     1      37.270 -22.666 -16.352  0.00  0.00    +0.156 HD
ATOM     19  H   UNL     1      37.886 -26.862 -13.599  0.00  0.00    +0.174 HD
ENDROOT
BRANCH   7  20
ATOM     20  C   UNL     1      32.148 -24.080 -14.769  0.00  0.00    +0.243 C 
BRANCH  20  22
ATOM     21  F   UNL     1      26.811 -22.822 -16.146  0.00  0.00    -0.204 F 
ATOM     22  C   UNL     1      30.709 -23.742 -15.140  0.00  0.00    +0.021 C 
ATOM     23  C   UNL     1      29.937 -24.660 -15.853  0.00  0.00    +0.001 C 
ATOM     24  C   UNL     1      30.163 -22.513 -14.768  0.00  0.00    +0.001 C 
ATOM     25  C   UNL     1      28.620 -24.350 -16.192  0.00  0.00    +0.029 C 
ATOM     26  C   UNL     1      28.846 -22.202 -15.108  0.00  0.00    +0.029 C 
ATOM     27  C   UNL     1      28.075 -23.121 -15.820  0.00  0.00    +0.140 C 
ENDBRANCH  20  22
BRANCH  20  28
ATOM     28  O   UNL     1      32.267 -25.502 -14.580  0.00  0.00    -0.366 OA
ATOM     29  H   UNL     1      31.383 -25.895 -14.510  0.00  0.00    +0.212 HD
ENDBRANCH  20  28
ENDBRANCH   7  20
TORSDOF 3
ENDMDL
MODEL 7
REMARK VINA RESULT:     -10.3      1.978      5.337
REMARK  Name = 46892373
REMARK  3 active torsions:
REMARK  status: ('A' for Active; 'I' for Inactive)
REMARK    1  A    between atoms: C_7  and  C_20
REMARK    2  A    between atoms: C_20  and  C_22
REMARK    3  A    between atoms: C_20  and  O_28
REMARK                            x       y       z     vdW  Elec       q    Type
REMARK                         _______ _______ _______ _____ _____    ______ ____
ROOT
ATOM      1  N   UNL     1      35.532 -22.655 -15.773  0.00  0.00    -0.326 NA
ATOM      2  N   UNL     1      33.955 -23.469 -14.227  0.00  0.00    -0.271 N 
ATOM      3  N   UNL     1      37.843 -23.325 -15.640  0.00  0.00    -0.345 NA
ATOM      4  N   UNL     1      31.198 -23.063 -16.297  0.00  0.00    -0.239 N 
ATOM      5  N   UNL     1      32.535 -23.117 -16.181  0.00  0.00    -0.166 NA
ATOM      6  C   UNL     1      36.267 -24.177 -14.045  0.00  0.00    +0.072 C 
ATOM      7  C   UNL     1      36.809 -22.650 -16.184  0.00  0.00    +0.146 C 
ATOM      8  C   UNL     1      35.291 -23.430 -14.699  0.00  0.00    +0.199 C 
ATOM      9  C   UNL     1      37.567 -24.089 -14.568  0.00  0.00    +0.129 C 
ATOM     10  C   UNL     1      35.991 -24.979 -12.924  0.00  0.00    +0.006 C 
ATOM     11  C   UNL     1      38.572 -24.823 -13.941  0.00  0.00    +0.086 C 
ATOM     12  C   UNL     1      32.717 -23.330 -14.875  0.00  0.00    +0.152 C 
ATOM     13  C   UNL     1      37.013 -25.701 -12.316  0.00  0.00    -0.004 C 
ATOM     14  C   UNL     1      38.304 -25.623 -12.826  0.00  0.00    -0.019 C 
ATOM     15  C   UNL     1      31.506 -23.410 -14.163  0.00  0.00    +0.048 C 
ATOM     16  C   UNL     1      30.535 -23.233 -15.118  0.00  0.00    +0.046 C 
ATOM     17  C   UNL     1      29.066 -23.205 -15.033  0.00  0.00    +0.049 C 
ATOM     18  H   UNL     1      33.880 -23.620 -13.257  0.00  0.00    +0.156 HD
ATOM     19  H   UNL     1      30.739 -22.915 -17.156  0.00  0.00    +0.174 HD
ENDROOT
BRANCH   7  20
ATOM     20  C   UNL     1      37.123 -21.804 -17.372  0.00  0.00    +0.243 C 
BRANCH  20  22
ATOM     21  F   UNL     1      32.757 -21.122 -20.898  0.00  0.00    -0.204 F 
ATOM     22  C   UNL     1      35.946 -21.620 -18.324  0.00  0.00    +0.021 C 
ATOM     23  C   UNL     1      36.041 -20.719 -19.383  0.00  0.00    +0.001 C 
ATOM     24  C   UNL     1      34.775 -22.353 -18.133  0.00  0.00    +0.001 C 
ATOM     25  C   UNL     1      34.964 -20.551 -20.254  0.00  0.00    +0.029 C 
ATOM     26  C   UNL     1      33.697 -22.184 -19.003  0.00  0.00    +0.029 C 
ATOM     27  C   UNL     1      33.792 -21.283 -20.064  0.00  0.00    +0.140 C 
ENDBRANCH  20  22
BRANCH  20  28
ATOM     28  O   UNL     1      37.640 -20.514 -17.001  0.00  0.00    -0.366 OA
ATOM     29  H   UNL     1      38.546 -20.610 -16.668  0.00  0.00    +0.212 HD
ENDBRANCH  20  28
ENDBRANCH   7  20
TORSDOF 3
ENDMDL
MODEL 8
REMARK VINA RESULT:     -10.2      3.186      7.365
REMARK  Name = 46892373
REMARK  3 active torsions:
REMARK  status: ('A' for Active; 'I' for Inactive)
REMARK    1  A    between atoms: C_7  and  C_20
REMARK    2  A    between atoms: C_20  and  C_22
REMARK    3  A    between atoms: C_20  and  O_28
REMARK                            x       y       z     vdW  Elec       q    Type
REMARK                         _______ _______ _______ _____ _____    ______ ____
ROOT
ATOM      1  N   UNL     1      32.761 -23.807 -15.646  0.00  0.00    -0.326 NA
ATOM      2  N   UNL     1      31.199 -22.856 -17.127  0.00  0.00    -0.271 N 
ATOM      3  N   UNL     1      35.127 -23.593 -16.049  0.00  0.00    -0.345 NA
ATOM      4  N   UNL     1      28.647 -22.553 -14.793  0.00  0.00    -0.239 N 
ATOM      5  N   UNL     1      29.953 -22.760 -15.030  0.00  0.00    -0.166 NA
ATOM      6  C   UNL     1      33.568 -22.610 -17.585  0.00  0.00    +0.072 C 
ATOM      7  C   UNL     1      34.054 -24.012 -15.349  0.00  0.00    +0.146 C 
ATOM      8  C   UNL     1      32.550 -23.101 -16.771  0.00  0.00    +0.199 C 
ATOM      9  C   UNL     1      34.880 -22.891 -17.170  0.00  0.00    +0.129 C 
ATOM     10  C   UNL     1      33.322 -21.875 -18.757  0.00  0.00    +0.006 C 
ATOM     11  C   UNL     1      35.927 -22.416 -17.957  0.00  0.00    +0.086 C 
ATOM     12  C   UNL     1      30.031 -22.703 -16.363  0.00  0.00    +0.152 C 
ATOM     13  C   UNL     1      34.386 -21.413 -19.525  0.00  0.00    -0.004 C 
ATOM     14  C   UNL     1      35.689 -21.684 -19.124  0.00  0.00    -0.019 C 
ATOM     15  C   UNL     1      28.786 -22.463 -16.971  0.00  0.00    +0.048 C 
ATOM     16  C   UNL     1      27.904 -22.370 -15.922  0.00  0.00    +0.046 C 
ATOM     17  C   UNL     1      26.453 -22.131 -15.875  0.00  0.00    +0.049 C 
ATOM     18  H   UNL     1      31.051 -22.781 -18.097  0.00  0.00    +0.156 HD
ATOM     19  H   UNL     1      28.262 -22.536 -13.887  0.00  0.00    +0.174 HD
ENDROOT
BRANCH   7  20
ATOM     20  C   UNL     1      34.336 -24.792 -14.108  0.00  0.00    +0.243 C 
BRANCH  20  22
ATOM     21  F   UNL     1      39.267 -23.485 -11.671  0.00  0.00    -0.204 F 
ATOM     22  C   UNL     1      35.666 -24.439 -13.450  0.00  0.00    +0.021 C 
ATOM     23  C   UNL     1      35.711 -23.479 -12.440  0.00  0.00    +0.001 C 
ATOM     24  C   UNL     1      36.837 -25.077 -13.860  0.00  0.00    +0.001 C 
ATOM     25  C   UNL     1      36.928 -23.157 -11.838  0.00  0.00    +0.029 C 
ATOM     26  C   UNL     1      38.054 -24.754 -13.259  0.00  0.00    +0.029 C 
ATOM     27  C   UNL     1      38.099 -23.794 -12.248  0.00  0.00    +0.140 C 
ENDBRANCH  20  22
BRANCH  20  28
ATOM     28  O   UNL     1      33.280 -24.672 -13.138  0.00  0.00    -0.366 OA
ATOM     29  H   UNL     1      33.097 -25.542 -12.749  0.00  0.00    +0.212 HD
ENDBRANCH  20  28
ENDBRANCH   7  20
TORSDOF 3
ENDMDL
MODEL 9
REMARK VINA RESULT:     -10.2      2.712      5.558
REMARK  Name = 46892373
REMARK  3 active torsions:
REMARK  status: ('A' for Active; 'I' for Inactive)
REMARK    1  A    between atoms: C_7  and  C_20
REMARK    2  A    between atoms: C_20  and  C_22
REMARK    3  A    between atoms: C_20  and  O_28
REMARK                            x       y       z     vdW  Elec       q    Type
REMARK                         _______ _______ _______ _____ _____    ______ ____
ROOT
ATOM      1  N   UNL     1      33.229 -23.415 -15.382  0.00  0.00    -0.326 NA
ATOM      2  N   UNL     1      32.305 -22.471 -17.329  0.00  0.00    -0.271 N 
ATOM      3  N   UNL     1      31.888 -24.789 -13.926  0.00  0.00    -0.345 NA
ATOM      4  N   UNL     1      35.313 -22.184 -19.038  0.00  0.00    -0.239 N 
ATOM      5  N   UNL     1      34.636 -22.718 -18.008  0.00  0.00    -0.166 NA
ATOM      6  C   UNL     1      30.907 -23.845 -15.901  0.00  0.00    +0.072 C 
ATOM      7  C   UNL     1      33.031 -24.177 -14.295  0.00  0.00    +0.146 C 
ATOM      8  C   UNL     1      32.146 -23.268 -16.168  0.00  0.00    +0.199 C 
ATOM      9  C   UNL     1      30.825 -24.620 -14.733  0.00  0.00    +0.129 C 
ATOM     10  C   UNL     1      29.790 -23.676 -16.736  0.00  0.00    +0.006 C 
ATOM     11  C   UNL     1      29.602 -25.215 -14.432  0.00  0.00    +0.086 C 
ATOM     12  C   UNL     1      33.408 -22.215 -18.159  0.00  0.00    +0.152 C 
ATOM     13  C   UNL     1      28.580 -24.280 -16.412  0.00  0.00    -0.004 C 
ATOM     14  C   UNL     1      28.487 -25.051 -15.259  0.00  0.00    -0.019 C 
ATOM     15  C   UNL     1      33.302 -21.367 -19.277  0.00  0.00    +0.048 C 
ATOM     16  C   UNL     1      34.560 -21.367 -19.828  0.00  0.00    +0.046 C 
ATOM     17  C   UNL     1      35.117 -20.684 -21.007  0.00  0.00    +0.049 C 
ATOM     18  H   UNL     1      31.483 -22.006 -17.608  0.00  0.00    +0.156 HD
ATOM     19  H   UNL     1      36.267 -22.366 -19.206  0.00  0.00    +0.174 HD
ENDROOT
BRANCH   7  20
ATOM     20  C   UNL     1      34.206 -24.369 -13.394  0.00  0.00    +0.243 C 
BRANCH  20  22
ATOM     21  F   UNL     1      39.192 -23.731 -15.981  0.00  0.00    -0.204 F 
ATOM     22  C   UNL     1      35.550 -24.198 -14.092  0.00  0.00    +0.021 C 
ATOM     23  C   UNL     1      36.379 -25.301 -14.289  0.00  0.00    +0.001 C 
ATOM     24  C   UNL     1      35.951 -22.936 -14.532  0.00  0.00    +0.001 C 
ATOM     25  C   UNL     1      37.609 -25.145 -14.928  0.00  0.00    +0.029 C 
ATOM     26  C   UNL     1      37.182 -22.778 -15.170  0.00  0.00    +0.029 C 
ATOM     27  C   UNL     1      38.011 -23.883 -15.368  0.00  0.00    +0.140 C 
ENDBRANCH  20  22
BRANCH  20  28
ATOM     28  O   UNL     1      34.155 -23.507 -12.243  0.00  0.00    -0.366 OA
ATOM     29  H   UNL     1      34.727 -22.738 -12.389  0.00  0.00    +0.212 HD
ENDBRANCH  20  28
ENDBRANCH   7  20
TORSDOF 3
ENDMDL
