MODEL 1
REMARK VINA RESULT:     -12.6      0.000      0.000
REMARK  Name = 10074640
REMARK  6 active torsions:
REMARK  status: ('A' for Active; 'I' for Inactive)
REMARK    1  A    between atoms: N_2  and  C_5
REMARK    2  A    between atoms: C_3  and  C_30
REMARK    3  A    between atoms: C_6  and  N_13
REMARK    4  A    between atoms: C_16  and  C_20
REMARK    5  A    between atoms: C_25  and  C_31
REMARK    6  A    between atoms: C_31  and  N_32
REMARK                            x       y       z     vdW  Elec       q    Type
REMARK                         _______ _______ _______ _____ _____    ______ ____
ROOT
ATOM      1  O   UNL     1      33.857 -23.745 -19.072  0.00  0.00    -0.270 OA
ATOM      2  N   UNL     1      33.157 -22.133 -17.518  0.00  0.00    -0.280 N 
ATOM      3  C   UNL     1      33.734 -22.561 -18.721  0.00  0.00    +0.249 C 
ATOM      4  H   UNL     1      33.130 -21.158 -17.380  0.00  0.00    +0.155 HD
ENDROOT
BRANCH   2   5
ATOM      5  C   UNL     1      32.607 -22.918 -16.476  0.00  0.00    +0.052 C 
ATOM      6  C   UNL     1      32.729 -23.772 -14.239  0.00  0.00    +0.048 C 
ATOM      7  C   UNL     1      33.272 -22.998 -15.265  0.00  0.00    +0.029 C 
ATOM      8  C   UNL     1      31.529 -24.452 -14.439  0.00  0.00    -0.008 C 
ATOM      9  C   UNL     1      31.414 -23.588 -16.692  0.00  0.00    +0.014 C 
ATOM     10  C   UNL     1      30.871 -24.361 -15.667  0.00  0.00    -0.002 C 
ATOM     11  C   UNL     1      30.925 -25.288 -13.358  0.00  0.00    +0.032 C 
BRANCH   6  13
ATOM     12  S   UNL     1      35.214 -24.340 -11.112  0.00  0.00    -0.059 S 
ATOM     13  N   UNL     1      33.407 -23.853 -13.003  0.00  0.00    -0.283 N 
ATOM     14  N   UNL     1      35.639 -24.274 -13.661  0.00  0.00    -0.384 NA
ATOM     15  C   UNL     1      34.718 -24.139 -12.739  0.00  0.00    +0.211 C 
ATOM     16  C   UNL     1      36.842 -24.559 -13.044  0.00  0.00    +0.124 C 
ATOM     17  C   UNL     1      36.809 -24.635 -11.667  0.00  0.00    +0.125 C 
ATOM     18  H   UNL     1      32.852 -23.676 -12.210  0.00  0.00    +0.155 HD
BRANCH  16  20
ATOM     19  N   UNL     1      39.390 -24.200 -15.726  0.00  0.00    -0.242 NA
ATOM     20  C   UNL     1      38.044 -24.762 -13.799  0.00  0.00    +0.046 C 
ATOM     21  C   UNL     1      39.008 -25.672 -13.381  0.00  0.00    +0.005 C 
ATOM     22  C   UNL     1      38.280 -24.056 -14.968  0.00  0.00    +0.101 C 
ATOM     23  C   UNL     1      40.163 -25.847 -14.134  0.00  0.00    +0.021 C 
ATOM     24  C   UNL     1      40.305 -25.093 -15.288  0.00  0.00    +0.099 C 
ENDBRANCH  16  20
ENDBRANCH   6  13
ENDBRANCH   2   5
BRANCH   3  30
ATOM     25  C   UNL     1      35.209 -19.506 -21.249  0.00  0.00    -0.043 C 
ATOM     26  C   UNL     1      36.103 -20.305 -20.549  0.00  0.00    -0.006 C 
ATOM     27  C   UNL     1      33.839 -19.695 -21.133  0.00  0.00    -0.006 C 
ATOM     28  C   UNL     1      35.616 -21.313 -19.716  0.00  0.00    +0.004 C 
ATOM     29  C   UNL     1      33.353 -20.702 -20.300  0.00  0.00    +0.004 C 
ATOM     30  C   UNL     1      34.241 -21.511 -19.592  0.00  0.00    +0.054 C 
BRANCH  25  31
ATOM     31  C   UNL     1      35.735 -18.420 -22.150  0.00  0.00    -0.050 C 
BRANCH  31  32
ATOM     32  N   UNL     1      34.775 -17.327 -22.301  0.00  0.00    +0.387 N 
ATOM     33  N   UNL     1      34.072 -14.545 -22.648  0.00  0.00    +0.383 N 
ATOM     34  C   UNL     1      34.900 -16.367 -21.198  0.00  0.00    -0.100 C 
ATOM     35  C   UNL     1      34.953 -16.651 -23.591  0.00  0.00    -0.100 C 
ATOM     36  C   UNL     1      33.896 -15.220 -21.357  0.00  0.00    -0.101 C 
ATOM     37  C   UNL     1      33.948 -15.506 -23.751  0.00  0.00    -0.101 C 
ATOM     38  C   UNL     1      33.111 -13.454 -22.800  0.00  0.00    -0.101 C 
ATOM     39  H   UNL     1      33.837 -17.728 -22.274  0.00  0.00    -0.079 HD
ATOM     40  H   UNL     1      35.010 -14.143 -22.675  0.00  0.00    -0.080 HD
ENDBRANCH  31  32
ENDBRANCH  25  31
ENDBRANCH   3  30
TORSDOF 6
ENDMDL
MODEL 2
REMARK VINA RESULT:     -10.5      2.768      5.895
REMARK  Name = 10074640
REMARK  6 active torsions:
REMARK  status: ('A' for Active; 'I' for Inactive)
REMARK    1  A    between atoms: N_2  and  C_5
REMARK    2  A    between atoms: C_3  and  C_30
REMARK    3  A    between atoms: C_6  and  N_13
REMARK    4  A    between atoms: C_16  and  C_20
REMARK    5  A    between atoms: C_25  and  C_31
REMARK    6  A    between atoms: C_31  and  N_32
REMARK                            x       y       z     vdW  Elec       q    Type
REMARK                         _______ _______ _______ _____ _____    ______ ____
ROOT
ATOM      1  O   UNL     1      35.490 -17.152 -20.276  0.00  0.00    -0.270 OA
ATOM      2  N   UNL     1      33.853 -18.489 -21.295  0.00  0.00    -0.280 N 
ATOM      3  C   UNL     1      34.551 -17.293 -21.076  0.00  0.00    +0.249 C 
ATOM      4  H   UNL     1      33.131 -18.446 -21.963  0.00  0.00    +0.155 HD
ENDROOT
BRANCH   2   5
ATOM      5  C   UNL     1      34.051 -19.750 -20.682  0.00  0.00    +0.052 C 
ATOM      6  C   UNL     1      33.248 -21.522 -19.280  0.00  0.00    +0.048 C 
ATOM      7  C   UNL     1      33.052 -20.279 -19.883  0.00  0.00    +0.029 C 
ATOM      8  C   UNL     1      34.439 -22.217 -19.486  0.00  0.00    -0.008 C 
ATOM      9  C   UNL     1      35.240 -20.427 -20.897  0.00  0.00    +0.014 C 
ATOM     10  C   UNL     1      35.437 -21.669 -20.294  0.00  0.00    -0.002 C 
ATOM     11  C   UNL     1      34.676 -23.548 -18.852  0.00  0.00    +0.032 C 
BRANCH   6  13
ATOM     12  S   UNL     1      30.908 -23.379 -16.569  0.00  0.00    -0.059 S 
ATOM     13  N   UNL     1      32.229 -22.062 -18.466  0.00  0.00    -0.283 N 
ATOM     14  N   UNL     1      33.407 -22.717 -16.523  0.00  0.00    -0.384 NA
ATOM     15  C   UNL     1      32.310 -22.658 -17.238  0.00  0.00    +0.211 C 
ATOM     16  C   UNL     1      33.130 -23.387 -15.346  0.00  0.00    +0.124 C 
ATOM     17  C   UNL     1      31.830 -23.820 -15.192  0.00  0.00    +0.125 C 
ATOM     18  H   UNL     1      31.320 -21.999 -18.839  0.00  0.00    +0.155 HD
BRANCH  16  20
ATOM     19  N   UNL     1      34.728 -24.418 -12.153  0.00  0.00    -0.242 NA
ATOM     20  C   UNL     1      34.140 -23.609 -14.353  0.00  0.00    +0.046 C 
ATOM     21  C   UNL     1      35.464 -23.257 -14.587  0.00  0.00    +0.005 C 
ATOM     22  C   UNL     1      33.825 -24.181 -13.132  0.00  0.00    +0.101 C 
ATOM     23  C   UNL     1      36.422 -23.485 -13.605  0.00  0.00    +0.021 C 
ATOM     24  C   UNL     1      36.006 -24.063 -12.416  0.00  0.00    +0.099 C 
ENDBRANCH  16  20
ENDBRANCH   6  13
ENDBRANCH   2   5
BRANCH   3  30
ATOM     25  C   UNL     1      33.238 -13.948 -23.307  0.00  0.00    -0.043 C 
ATOM     26  C   UNL     1      34.192 -14.798 -23.848  0.00  0.00    -0.006 C 
ATOM     27  C   UNL     1      32.707 -14.179 -22.046  0.00  0.00    -0.006 C 
ATOM     28  C   UNL     1      34.624 -15.902 -23.112  0.00  0.00    +0.004 C 
ATOM     29  C   UNL     1      33.139 -15.282 -21.310  0.00  0.00    +0.004 C 
ATOM     30  C   UNL     1      34.098 -16.143 -21.843  0.00  0.00    +0.054 C 
BRANCH  25  31
ATOM     31  C   UNL     1      32.769 -12.758 -24.103  0.00  0.00    -0.050 C 
BRANCH  31  32
ATOM     32  N   UNL     1      33.455 -11.531 -23.700  0.00  0.00    +0.387 N 
ATOM     33  N   UNL     1      34.020  -8.705 -23.921  0.00  0.00    +0.383 N 
ATOM     34  C   UNL     1      34.265 -11.001 -24.802  0.00  0.00    -0.100 C 
ATOM     35  C   UNL     1      32.492 -10.523 -23.241  0.00  0.00    -0.100 C 
ATOM     36  C   UNL     1      34.982  -9.713 -24.382  0.00  0.00    -0.101 C 
ATOM     37  C   UNL     1      33.209  -9.237 -22.818  0.00  0.00    -0.101 C 
ATOM     38  C   UNL     1      34.706  -7.479 -23.516  0.00  0.00    -0.101 C 
ATOM     39  H   UNL     1      34.077 -11.759 -22.924  0.00  0.00    -0.079 HD
ATOM     40  H   UNL     1      33.399  -8.476 -24.696  0.00  0.00    -0.080 HD
ENDBRANCH  31  32
ENDBRANCH  25  31
ENDBRANCH   3  30
TORSDOF 6
ENDMDL
MODEL 3
REMARK VINA RESULT:     -10.3      4.726     13.183
REMARK  Name = 10074640
REMARK  6 active torsions:
REMARK  status: ('A' for Active; 'I' for Inactive)
REMARK    1  A    between atoms: N_2  and  C_5
REMARK    2  A    between atoms: C_3  and  C_30
REMARK    3  A    between atoms: C_6  and  N_13
REMARK    4  A    between atoms: C_16  and  C_20
REMARK    5  A    between atoms: C_25  and  C_31
REMARK    6  A    between atoms: C_31  and  N_32
REMARK                            x       y       z     vdW  Elec       q    Type
REMARK                         _______ _______ _______ _____ _____    ______ ____
ROOT
ATOM      1  O   UNL     1      33.388 -15.828 -21.872  0.00  0.00    -0.270 OA
ATOM      2  N   UNL     1      34.279 -16.546 -23.920  0.00  0.00    -0.280 N 
ATOM      3  C   UNL     1      34.048 -16.639 -22.541  0.00  0.00    +0.249 C 
ATOM      4  H   UNL     1      34.823 -17.267 -24.312  0.00  0.00    +0.155 HD
ENDROOT
BRANCH   2   5
ATOM      5  C   UNL     1      33.833 -15.551 -24.823  0.00  0.00    +0.052 C 
ATOM      6  C   UNL     1      33.825 -13.266 -25.551  0.00  0.00    +0.048 C 
ATOM      7  C   UNL     1      34.265 -14.246 -24.660  0.00  0.00    +0.029 C 
ATOM      8  C   UNL     1      32.962 -13.606 -26.591  0.00  0.00    -0.008 C 
ATOM      9  C   UNL     1      32.976 -15.906 -25.851  0.00  0.00    +0.014 C 
ATOM     10  C   UNL     1      32.536 -14.927 -26.741  0.00  0.00    -0.002 C 
ATOM     11  C   UNL     1      32.475 -12.578 -27.559  0.00  0.00    +0.032 C 
BRANCH   6  13
ATOM     12  S   UNL     1      34.500  -9.405 -24.597  0.00  0.00    -0.059 S 
ATOM     13  N   UNL     1      34.266 -11.935 -25.384  0.00  0.00    -0.283 N 
ATOM     14  N   UNL     1      33.183 -11.273 -23.390  0.00  0.00    -0.384 NA
ATOM     15  C   UNL     1      33.928 -11.011 -24.435  0.00  0.00    +0.211 C 
ATOM     16  C   UNL     1      33.044 -10.116 -22.647  0.00  0.00    +0.124 C 
ATOM     17  C   UNL     1      33.686  -9.001 -23.143  0.00  0.00    +0.125 C 
ATOM     18  H   UNL     1      34.917 -11.625 -26.055  0.00  0.00    +0.155 HD
BRANCH  16  20
ATOM     19  N   UNL     1      31.640  -8.914 -19.422  0.00  0.00    -0.242 NA
ATOM     20  C   UNL     1      32.277 -10.089 -21.435  0.00  0.00    +0.046 C 
ATOM     21  C   UNL     1      31.452 -11.152 -21.086  0.00  0.00    +0.005 C 
ATOM     22  C   UNL     1      32.336  -9.003 -20.578  0.00  0.00    +0.101 C 
ATOM     23  C   UNL     1      30.721 -11.098 -19.905  0.00  0.00    +0.021 C 
ATOM     24  C   UNL     1      30.849  -9.966 -19.115  0.00  0.00    +0.099 C 
ENDBRANCH  16  20
ENDBRANCH   6  13
ENDBRANCH   2   5
BRANCH   3  30
ATOM     25  C   UNL     1      35.841 -19.937 -20.590  0.00  0.00    -0.043 C 
ATOM     26  C   UNL     1      36.645 -18.988 -21.207  0.00  0.00    -0.006 C 
ATOM     27  C   UNL     1      34.458 -19.819 -20.602  0.00  0.00    -0.006 C 
ATOM     28  C   UNL     1      36.053 -17.901 -21.850  0.00  0.00    +0.004 C 
ATOM     29  C   UNL     1      33.867 -18.732 -21.245  0.00  0.00    +0.004 C 
ATOM     30  C   UNL     1      34.665 -17.773 -21.869  0.00  0.00    +0.054 C 
BRANCH  25  31
ATOM     31  C   UNL     1      36.480 -21.110 -19.894  0.00  0.00    -0.050 C 
BRANCH  31  32
ATOM     32  N   UNL     1      35.811 -21.423 -18.633  0.00  0.00    +0.387 N 
ATOM     33  N   UNL     1      35.072 -23.209 -16.483  0.00  0.00    +0.383 N 
ATOM     34  C   UNL     1      34.799 -22.469 -18.825  0.00  0.00    -0.100 C 
ATOM     35  C   UNL     1      36.785 -21.835 -17.615  0.00  0.00    -0.100 C 
ATOM     36  C   UNL     1      34.099 -22.800 -17.502  0.00  0.00    -0.101 C 
ATOM     37  C   UNL     1      36.085 -22.163 -16.292  0.00  0.00    -0.101 C 
ATOM     38  C   UNL     1      34.404 -23.520 -15.221  0.00  0.00    -0.101 C 
ATOM     39  H   UNL     1      35.342 -20.578 -18.307  0.00  0.00    -0.079 HD
ATOM     40  H   UNL     1      35.540 -24.055 -16.807  0.00  0.00    -0.080 HD
ENDBRANCH  31  32
ENDBRANCH  25  31
ENDBRANCH   3  30
TORSDOF 6
ENDMDL
MODEL 4
REMARK VINA RESULT:     -10.2      5.596     11.210
REMARK  Name = 10074640
REMARK  6 active torsions:
REMARK  status: ('A' for Active; 'I' for Inactive)
REMARK    1  A    between atoms: N_2  and  C_5
REMARK    2  A    between atoms: C_3  and  C_30
REMARK    3  A    between atoms: C_6  and  N_13
REMARK    4  A    between atoms: C_16  and  C_20
REMARK    5  A    between atoms: C_25  and  C_31
REMARK    6  A    between atoms: C_31  and  N_32
REMARK                            x       y       z     vdW  Elec       q    Type
REMARK                         _______ _______ _______ _____ _____    ______ ____
ROOT
ATOM      1  O   UNL     1      34.339 -12.025 -25.485  0.00  0.00    -0.270 OA
ATOM      2  N   UNL     1      33.441 -13.310 -23.740  0.00  0.00    -0.280 N 
ATOM      3  C   UNL     1      33.739 -12.111 -24.402  0.00  0.00    +0.249 C 
ATOM      4  H   UNL     1      32.958 -13.219 -22.887  0.00  0.00    +0.155 HD
ENDROOT
BRANCH   2   5
ATOM      5  C   UNL     1      33.743 -14.635 -24.138  0.00  0.00    +0.052 C 
ATOM      6  C   UNL     1      35.108 -16.597 -23.943  0.00  0.00    +0.048 C 
ATOM      7  C   UNL     1      34.812 -15.291 -23.551  0.00  0.00    +0.029 C 
ATOM      8  C   UNL     1      34.331 -17.227 -24.915  0.00  0.00    -0.008 C 
ATOM      9  C   UNL     1      32.962 -15.246 -25.104  0.00  0.00    +0.014 C 
ATOM     10  C   UNL     1      33.258 -16.550 -25.496  0.00  0.00    -0.002 C 
ATOM     11  C   UNL     1      34.627 -18.623 -25.354  0.00  0.00    +0.032 C 
BRANCH   6  13
ATOM     12  S   UNL     1      37.714 -18.718 -21.711  0.00  0.00    -0.059 S 
ATOM     13  N   UNL     1      36.198 -17.266 -23.345  0.00  0.00    -0.283 N 
ATOM     14  N   UNL     1      35.134 -18.777 -21.869  0.00  0.00    -0.384 NA
ATOM     15  C   UNL     1      36.211 -18.215 -22.360  0.00  0.00    +0.211 C 
ATOM     16  C   UNL     1      35.515 -19.682 -20.897  0.00  0.00    +0.124 C 
ATOM     17  C   UNL     1      36.871 -19.790 -20.671  0.00  0.00    +0.125 C 
ATOM     18  H   UNL     1      37.084 -17.011 -23.690  0.00  0.00    +0.155 HD
BRANCH  16  20
ATOM     19  N   UNL     1      32.247 -20.799 -19.522  0.00  0.00    -0.242 NA
ATOM     20  C   UNL     1      34.549 -20.458 -20.175  0.00  0.00    +0.046 C 
ATOM     21  C   UNL     1      34.930 -21.579 -19.447  0.00  0.00    +0.005 C 
ATOM     22  C   UNL     1      33.207 -20.112 -20.180  0.00  0.00    +0.101 C 
ATOM     23  C   UNL     1      33.971 -22.312 -18.757  0.00  0.00    +0.021 C 
ATOM     24  C   UNL     1      32.655 -21.883 -18.825  0.00  0.00    +0.099 C 
ENDBRANCH  16  20
ENDBRANCH   6  13
ENDBRANCH   2   5
BRANCH   3  30
ATOM     25  C   UNL     1      32.516  -8.566 -22.444  0.00  0.00    -0.043 C 
ATOM     26  C   UNL     1      31.826  -9.748 -22.212  0.00  0.00    -0.006 C 
ATOM     27  C   UNL     1      33.602  -8.530 -23.309  0.00  0.00    -0.006 C 
ATOM     28  C   UNL     1      32.231 -10.917 -22.858  0.00  0.00    +0.004 C 
ATOM     29  C   UNL     1      34.005  -9.698 -23.953  0.00  0.00    +0.004 C 
ATOM     30  C   UNL     1      33.320 -10.891 -23.728  0.00  0.00    +0.054 C 
BRANCH  25  31
ATOM     31  C   UNL     1      32.082  -7.304 -21.746  0.00  0.00    -0.050 C 
BRANCH  31  32
ATOM     32  N   UNL     1      32.025  -6.168 -22.664  0.00  0.00    +0.387 N 
ATOM     33  N   UNL     1      30.624  -4.103 -24.124  0.00  0.00    +0.383 N 
ATOM     34  C   UNL     1      31.209  -6.488 -23.841  0.00  0.00    -0.100 C 
ATOM     35  C   UNL     1      31.500  -4.976 -21.986  0.00  0.00    -0.100 C 
ATOM     36  C   UNL     1      31.147  -5.296 -24.802  0.00  0.00    -0.101 C 
ATOM     37  C   UNL     1      31.440  -3.784 -22.946  0.00  0.00    -0.101 C 
ATOM     38  C   UNL     1      30.569  -2.966 -25.041  0.00  0.00    -0.101 C 
ATOM     39  H   UNL     1      32.975  -5.967 -22.975  0.00  0.00    -0.079 HD
ATOM     40  H   UNL     1      29.673  -4.302 -23.813  0.00  0.00    -0.080 HD
ENDBRANCH  31  32
ENDBRANCH  25  31
ENDBRANCH   3  30
TORSDOF 6
ENDMDL
MODEL 5
REMARK VINA RESULT:     -10.1      4.156     13.051
REMARK  Name = 10074640
REMARK  6 active torsions:
REMARK  status: ('A' for Active; 'I' for Inactive)
REMARK    1  A    between atoms: N_2  and  C_5
REMARK    2  A    between atoms: C_3  and  C_30
REMARK    3  A    between atoms: C_6  and  N_13
REMARK    4  A    between atoms: C_16  and  C_20
REMARK    5  A    between atoms: C_25  and  C_31
REMARK    6  A    between atoms: C_31  and  N_32
REMARK                            x       y       z     vdW  Elec       q    Type
REMARK                         _______ _______ _______ _____ _____    ______ ____
ROOT
ATOM      1  O   UNL     1      34.512 -19.279 -22.919  0.00  0.00    -0.270 OA
ATOM      2  N   UNL     1      34.126 -17.693 -21.234  0.00  0.00    -0.280 N 
ATOM      3  C   UNL     1      34.391 -18.981 -21.720  0.00  0.00    +0.249 C 
ATOM      4  H   UNL     1      34.057 -17.612 -20.255  0.00  0.00    +0.155 HD
ENDROOT
BRANCH   2   5
ATOM      5  C   UNL     1      33.943 -16.495 -21.966  0.00  0.00    +0.052 C 
ATOM      6  C   UNL     1      32.806 -14.406 -22.272  0.00  0.00    +0.048 C 
ATOM      7  C   UNL     1      32.985 -15.587 -21.550  0.00  0.00    +0.029 C 
ATOM      8  C   UNL     1      33.589 -14.151 -23.397  0.00  0.00    -0.008 C 
ATOM      9  C   UNL     1      34.729 -16.258 -23.081  0.00  0.00    +0.014 C 
ATOM     10  C   UNL     1      34.552 -15.078 -23.802  0.00  0.00    -0.002 C 
ATOM     11  C   UNL     1      33.419 -12.896 -24.188  0.00  0.00    +0.032 C 
BRANCH   6  13
ATOM     12  S   UNL     1      30.555 -11.243 -21.176  0.00  0.00    -0.059 S 
ATOM     13  N   UNL     1      31.829 -13.480 -21.848  0.00  0.00    -0.283 N 
ATOM     14  N   UNL     1      32.701 -11.418 -22.608  0.00  0.00    -0.384 NA
ATOM     15  C   UNL     1      31.810 -12.116 -21.949  0.00  0.00    +0.211 C 
ATOM     16  C   UNL     1      32.377 -10.078 -22.501  0.00  0.00    +0.124 C 
ATOM     17  C   UNL     1      31.248  -9.789 -21.764  0.00  0.00    +0.125 C 
ATOM     18  H   UNL     1      31.039 -13.877 -21.413  0.00  0.00    +0.155 HD
BRANCH  16  20
ATOM     19  N   UNL     1      33.558  -6.714 -23.551  0.00  0.00    -0.242 NA
ATOM     20  C   UNL     1      33.174  -9.061 -23.123  0.00  0.00    +0.046 C 
ATOM     21  C   UNL     1      34.294  -9.391 -23.877  0.00  0.00    +0.005 C 
ATOM     22  C   UNL     1      32.850  -7.721 -22.991  0.00  0.00    +0.101 C 
ATOM     23  C   UNL     1      35.048  -8.383 -24.468  0.00  0.00    +0.021 C 
ATOM     24  C   UNL     1      34.640  -7.072 -24.277  0.00  0.00    +0.099 C 
ENDBRANCH  16  20
ENDBRANCH   6  13
ENDBRANCH   2   5
BRANCH   3  30
ATOM     25  C   UNL     1      34.715 -22.025 -18.800  0.00  0.00    -0.043 C 
ATOM     26  C   UNL     1      33.458 -21.601 -19.209  0.00  0.00    -0.006 C 
ATOM     27  C   UNL     1      35.867 -21.466 -19.336  0.00  0.00    -0.006 C 
ATOM     28  C   UNL     1      33.352 -20.597 -20.172  0.00  0.00    +0.004 C 
ATOM     29  C   UNL     1      35.761 -20.463 -20.299  0.00  0.00    +0.004 C 
ATOM     30  C   UNL     1      34.503 -20.029 -20.717  0.00  0.00    +0.054 C 
BRANCH  25  31
ATOM     31  C   UNL     1      34.830 -23.109 -17.762  0.00  0.00    -0.050 C 
BRANCH  31  32
ATOM     32  N   UNL     1      33.864 -22.930 -16.680  0.00  0.00    +0.387 N 
ATOM     33  N   UNL     1      31.987 -23.915 -14.713  0.00  0.00    +0.383 N 
ATOM     34  C   UNL     1      32.542 -23.433 -17.073  0.00  0.00    -0.100 C 
ATOM     35  C   UNL     1      34.322 -23.599 -15.456  0.00  0.00    -0.100 C 
ATOM     36  C   UNL     1      31.528 -23.248 -15.938  0.00  0.00    -0.101 C 
ATOM     37  C   UNL     1      33.309 -23.412 -14.321  0.00  0.00    -0.101 C 
ATOM     38  C   UNL     1      31.021 -23.734 -13.631  0.00  0.00    -0.101 C 
ATOM     39  H   UNL     1      33.785 -21.931 -16.491  0.00  0.00    -0.079 HD
ATOM     40  H   UNL     1      32.065 -24.914 -14.901  0.00  0.00    -0.080 HD
ENDBRANCH  31  32
ENDBRANCH  25  31
ENDBRANCH   3  30
TORSDOF 6
ENDMDL
MODEL 6
REMARK VINA RESULT:     -10.0      9.277     18.288
REMARK  Name = 10074640
REMARK  6 active torsions:
REMARK  status: ('A' for Active; 'I' for Inactive)
REMARK    1  A    between atoms: N_2  and  C_5
REMARK    2  A    between atoms: C_3  and  C_30
REMARK    3  A    between atoms: C_6  and  N_13
REMARK    4  A    between atoms: C_16  and  C_20
REMARK    5  A    between atoms: C_25  and  C_31
REMARK    6  A    between atoms: C_31  and  N_32
REMARK                            x       y       z     vdW  Elec       q    Type
REMARK                         _______ _______ _______ _____ _____    ______ ____
ROOT
ATOM      1  O   UNL     1      34.542  -8.617 -23.449  0.00  0.00    -0.270 OA
ATOM      2  N   UNL     1      32.204  -8.526 -23.618  0.00  0.00    -0.280 N 
ATOM      3  C   UNL     1      33.445  -9.175 -23.613  0.00  0.00    +0.249 C 
ATOM      4  H   UNL     1      31.419  -9.104 -23.760  0.00  0.00    +0.155 HD
ENDROOT
BRANCH   2   5
ATOM      5  C   UNL     1      31.930  -7.147 -23.446  0.00  0.00    +0.052 C 
ATOM      6  C   UNL     1      31.464  -4.993 -24.391  0.00  0.00    +0.048 C 
ATOM      7  C   UNL     1      31.735  -6.351 -24.561  0.00  0.00    +0.029 C 
ATOM      8  C   UNL     1      31.391  -4.452 -23.108  0.00  0.00    -0.008 C 
ATOM      9  C   UNL     1      31.861  -6.626 -22.164  0.00  0.00    +0.014 C 
ATOM     10  C   UNL     1      31.590  -5.269 -21.993  0.00  0.00    -0.002 C 
ATOM     11  C   UNL     1      31.104  -3.002 -22.896  0.00  0.00    +0.032 C 
BRANCH   6  13
ATOM     12  S   UNL     1      31.645  -2.564 -27.607  0.00  0.00    -0.059 S 
ATOM     13  N   UNL     1      31.266  -4.181 -25.529  0.00  0.00    -0.283 N 
ATOM     14  N   UNL     1      33.449  -3.981 -26.414  0.00  0.00    -0.384 NA
ATOM     15  C   UNL     1      32.175  -3.673 -26.414  0.00  0.00    +0.211 C 
ATOM     16  C   UNL     1      34.069  -3.290 -27.437  0.00  0.00    +0.124 C 
ATOM     17  C   UNL     1      33.255  -2.472 -28.192  0.00  0.00    +0.125 C 
ATOM     18  H   UNL     1      30.328  -3.945 -25.713  0.00  0.00    +0.155 HD
BRANCH  16  20
ATOM     19  N   UNL     1      37.619  -2.362 -28.031  0.00  0.00    -0.242 NA
ATOM     20  C   UNL     1      35.475  -3.423 -27.689  0.00  0.00    +0.046 C 
ATOM     21  C   UNL     1      36.061  -4.674 -27.835  0.00  0.00    +0.005 C 
ATOM     22  C   UNL     1      36.289  -2.307 -27.794  0.00  0.00    +0.101 C 
ATOM     23  C   UNL     1      37.426  -4.772 -28.079  0.00  0.00    +0.021 C 
ATOM     24  C   UNL     1      38.154  -3.596 -28.167  0.00  0.00    +0.099 C 
ENDBRANCH  16  20
ENDBRANCH   6  13
ENDBRANCH   2   5
BRANCH   3  30
ATOM     25  C   UNL     1      33.351 -13.351 -24.282  0.00  0.00    -0.043 C 
ATOM     26  C   UNL     1      32.676 -12.818 -23.192  0.00  0.00    -0.006 C 
ATOM     27  C   UNL     1      34.056 -12.535 -25.155  0.00  0.00    -0.006 C 
ATOM     28  C   UNL     1      32.707 -11.441 -22.973  0.00  0.00    +0.004 C 
ATOM     29  C   UNL     1      34.087 -11.158 -24.936  0.00  0.00    +0.004 C 
ATOM     30  C   UNL     1      33.412 -10.612 -23.844  0.00  0.00    +0.054 C 
BRANCH  25  31
ATOM     31  C   UNL     1      33.317 -14.838 -24.521  0.00  0.00    -0.050 C 
BRANCH  31  32
ATOM     32  N   UNL     1      34.263 -15.548 -23.662  0.00  0.00    +0.387 N 
ATOM     33  N   UNL     1      35.036 -17.736 -21.937  0.00  0.00    +0.383 N 
ATOM     34  C   UNL     1      33.745 -15.659 -22.294  0.00  0.00    -0.100 C 
ATOM     35  C   UNL     1      34.561 -16.879 -24.205  0.00  0.00    -0.100 C 
ATOM     36  C   UNL     1      34.735 -16.406 -21.394  0.00  0.00    -0.101 C 
ATOM     37  C   UNL     1      35.553 -17.625 -23.307  0.00  0.00    -0.101 C 
ATOM     38  C   UNL     1      35.983 -18.445 -21.080  0.00  0.00    -0.101 C 
ATOM     39  H   UNL     1      35.129 -15.010 -23.636  0.00  0.00    -0.079 HD
ATOM     40  H   UNL     1      34.170 -18.275 -21.962  0.00  0.00    -0.080 HD
ENDBRANCH  31  32
ENDBRANCH  25  31
ENDBRANCH   3  30
TORSDOF 6
ENDMDL
MODEL 7
REMARK VINA RESULT:      -9.8      4.523     13.359
REMARK  Name = 10074640
REMARK  6 active torsions:
REMARK  status: ('A' for Active; 'I' for Inactive)
REMARK    1  A    between atoms: N_2  and  C_5
REMARK    2  A    between atoms: C_3  and  C_30
REMARK    3  A    between atoms: C_6  and  N_13
REMARK    4  A    between atoms: C_16  and  C_20
REMARK    5  A    between atoms: C_25  and  C_31
REMARK    6  A    between atoms: C_31  and  N_32
REMARK                            x       y       z     vdW  Elec       q    Type
REMARK                         _______ _______ _______ _____ _____    ______ ____
ROOT
ATOM      1  O   UNL     1      35.672 -17.599 -22.453  0.00  0.00    -0.270 OA
ATOM      2  N   UNL     1      33.648 -16.958 -21.455  0.00  0.00    -0.280 N 
ATOM      3  C   UNL     1      34.723 -17.827 -21.686  0.00  0.00    +0.249 C 
ATOM      4  H   UNL     1      32.969 -17.277 -20.817  0.00  0.00    +0.155 HD
ENDROOT
BRANCH   2   5
ATOM      5  C   UNL     1      33.410 -15.681 -22.019  0.00  0.00    +0.052 C 
ATOM      6  C   UNL     1      32.601 -13.435 -21.797  0.00  0.00    +0.048 C 
ATOM      7  C   UNL     1      32.833 -14.693 -21.240  0.00  0.00    +0.029 C 
ATOM      8  C   UNL     1      32.949 -13.184 -23.124  0.00  0.00    -0.008 C 
ATOM      9  C   UNL     1      33.763 -15.449 -23.338  0.00  0.00    +0.014 C 
ATOM     10  C   UNL     1      33.530 -14.192 -23.895  0.00  0.00    -0.002 C 
ATOM     11  C   UNL     1      32.711 -11.847 -23.745  0.00  0.00    +0.032 C 
BRANCH   6  13
ATOM     12  S   UNL     1      31.381 -10.088 -19.904  0.00  0.00    -0.059 S 
ATOM     13  N   UNL     1      32.012 -12.427 -21.002  0.00  0.00    -0.283 N 
ATOM     14  N   UNL     1      32.580 -10.449 -22.166  0.00  0.00    -0.384 NA
ATOM     15  C   UNL     1      32.053 -11.067 -21.138  0.00  0.00    +0.211 C 
ATOM     16  C   UNL     1      32.448  -9.086 -21.975  0.00  0.00    +0.124 C 
ATOM     17  C   UNL     1      31.825  -8.700 -20.807  0.00  0.00    +0.125 C 
ATOM     18  H   UNL     1      31.492 -12.754 -20.232  0.00  0.00    +0.155 HD
BRANCH  16  20
ATOM     19  N   UNL     1      32.475  -6.308 -24.443  0.00  0.00    -0.242 NA
ATOM     20  C   UNL     1      32.934  -8.142 -22.938  0.00  0.00    +0.046 C 
ATOM     21  C   UNL     1      34.273  -8.123 -23.310  0.00  0.00    +0.005 C 
ATOM     22  C   UNL     1      32.082  -7.223 -23.529  0.00  0.00    +0.101 C 
ATOM     23  C   UNL     1      34.715  -7.196 -24.247  0.00  0.00    +0.021 C 
ATOM     24  C   UNL     1      33.784  -6.318 -24.779  0.00  0.00    +0.099 C 
ENDBRANCH  16  20
ENDBRANCH   6  13
ENDBRANCH   2   5
BRANCH   3  30
ATOM     25  C   UNL     1      34.598 -21.515 -19.617  0.00  0.00    -0.043 C 
ATOM     26  C   UNL     1      35.826 -20.952 -19.937  0.00  0.00    -0.006 C 
ATOM     27  C   UNL     1      33.410 -20.886 -19.965  0.00  0.00    -0.006 C 
ATOM     28  C   UNL     1      35.866 -19.735 -20.619  0.00  0.00    +0.004 C 
ATOM     29  C   UNL     1      33.451 -19.670 -20.646  0.00  0.00    +0.004 C 
ATOM     30  C   UNL     1      34.679 -19.095 -20.973  0.00  0.00    +0.054 C 
BRANCH  25  31
ATOM     31  C   UNL     1      34.553 -22.827 -18.880  0.00  0.00    -0.050 C 
BRANCH  31  32
ATOM     32  N   UNL     1      33.965 -22.683 -17.549  0.00  0.00    +0.387 N 
ATOM     33  N   UNL     1      32.904 -23.735 -15.074  0.00  0.00    +0.383 N 
ATOM     34  C   UNL     1      32.639 -23.312 -17.495  0.00  0.00    -0.100 C 
ATOM     35  C   UNL     1      34.846 -23.256 -16.525  0.00  0.00    -0.100 C 
ATOM     36  C   UNL     1      32.022 -23.163 -16.100  0.00  0.00    -0.101 C 
ATOM     37  C   UNL     1      34.229 -23.106 -15.130  0.00  0.00    -0.101 C 
ATOM     38  C   UNL     1      32.316 -23.588 -13.744  0.00  0.00    -0.101 C 
ATOM     39  H   UNL     1      33.856 -21.687 -17.360  0.00  0.00    -0.079 HD
ATOM     40  H   UNL     1      33.012 -24.731 -15.262  0.00  0.00    -0.080 HD
ENDBRANCH  31  32
ENDBRANCH  25  31
ENDBRANCH   3  30
TORSDOF 6
ENDMDL
MODEL 8
REMARK VINA RESULT:      -9.6      3.194      6.465
REMARK  Name = 10074640
REMARK  6 active torsions:
REMARK  status: ('A' for Active; 'I' for Inactive)
REMARK    1  A    between atoms: N_2  and  C_5
REMARK    2  A    between atoms: C_3  and  C_30
REMARK    3  A    between atoms: C_6  and  N_13
REMARK    4  A    between atoms: C_16  and  C_20
REMARK    5  A    between atoms: C_25  and  C_31
REMARK    6  A    between atoms: C_31  and  N_32
REMARK                            x       y       z     vdW  Elec       q    Type
REMARK                         _______ _______ _______ _____ _____    ______ ____
ROOT
ATOM      1  O   UNL     1      35.302 -16.325 -20.182  0.00  0.00    -0.270 OA
ATOM      2  N   UNL     1      33.744 -17.625 -21.360  0.00  0.00    -0.280 N 
ATOM      3  C   UNL     1      34.340 -16.421 -20.962  0.00  0.00    +0.249 C 
ATOM      4  H   UNL     1      32.988 -17.542 -21.986  0.00  0.00    +0.155 HD
ENDROOT
BRANCH   2   5
ATOM      5  C   UNL     1      34.087 -18.946 -20.981  0.00  0.00    +0.052 C 
ATOM      6  C   UNL     1      33.571 -20.957 -19.782  0.00  0.00    +0.048 C 
ATOM      7  C   UNL     1      33.233 -19.655 -20.154  0.00  0.00    +0.029 C 
ATOM      8  C   UNL     1      34.756 -21.529 -20.242  0.00  0.00    -0.008 C 
ATOM      9  C   UNL     1      35.268 -19.498 -21.447  0.00  0.00    +0.014 C 
ATOM     10  C   UNL     1      35.606 -20.799 -21.075  0.00  0.00    -0.002 C 
ATOM     11  C   UNL     1      35.143 -22.919 -19.858  0.00  0.00    +0.032 C 
BRANCH   6  13
ATOM     12  S   UNL     1      31.720 -23.303 -17.072  0.00  0.00    -0.059 S 
ATOM     13  N   UNL     1      32.700 -21.681 -18.938  0.00  0.00    -0.283 N 
ATOM     14  N   UNL     1      34.124 -22.357 -17.176  0.00  0.00    -0.384 NA
ATOM     15  C   UNL     1      32.964 -22.367 -17.785  0.00  0.00    +0.211 C 
ATOM     16  C   UNL     1      34.036 -23.153 -16.049  0.00  0.00    +0.124 C 
ATOM     17  C   UNL     1      32.813 -23.749 -15.827  0.00  0.00    +0.125 C 
ATOM     18  H   UNL     1      31.758 -21.694 -19.225  0.00  0.00    +0.155 HD
BRANCH  16  20
ATOM     19  N   UNL     1      37.546 -23.250 -14.831  0.00  0.00    -0.242 NA
ATOM     20  C   UNL     1      35.155 -23.339 -15.173  0.00  0.00    +0.046 C 
ATOM     21  C   UNL     1      34.976 -23.772 -13.864  0.00  0.00    +0.005 C 
ATOM     22  C   UNL     1      36.448 -23.094 -15.605  0.00  0.00    +0.101 C 
ATOM     23  C   UNL     1      36.081 -23.943 -13.037  0.00  0.00    +0.021 C 
ATOM     24  C   UNL     1      37.333 -23.672 -13.565  0.00  0.00    +0.099 C 
ENDBRANCH  16  20
ENDBRANCH   6  13
ENDBRANCH   2   5
BRANCH   3  30
ATOM     25  C   UNL     1      32.611 -12.897 -22.538  0.00  0.00    -0.043 C 
ATOM     26  C   UNL     1      32.133 -13.417 -21.343  0.00  0.00    -0.006 C 
ATOM     27  C   UNL     1      33.647 -13.515 -23.224  0.00  0.00    -0.006 C 
ATOM     28  C   UNL     1      32.705 -14.579 -20.823  0.00  0.00    +0.004 C 
ATOM     29  C   UNL     1      34.218 -14.676 -22.704  0.00  0.00    +0.004 C 
ATOM     30  C   UNL     1      33.747 -15.208 -21.504  0.00  0.00    +0.054 C 
BRANCH  25  31
ATOM     31  C   UNL     1      31.996 -11.641 -23.098  0.00  0.00    -0.050 C 
BRANCH  31  32
ATOM     32  N   UNL     1      32.413 -10.454 -22.355  0.00  0.00    +0.387 N 
ATOM     33  N   UNL     1      31.982  -7.805 -21.279  0.00  0.00    +0.383 N 
ATOM     34  C   UNL     1      32.415  -9.270 -23.222  0.00  0.00    -0.100 C 
ATOM     35  C   UNL     1      31.543 -10.235 -21.193  0.00  0.00    -0.100 C 
ATOM     36  C   UNL     1      32.850  -8.024 -22.443  0.00  0.00    -0.101 C 
ATOM     37  C   UNL     1      31.979  -8.990 -20.413  0.00  0.00    -0.101 C 
ATOM     38  C   UNL     1      32.400  -6.619 -20.535  0.00  0.00    -0.101 C 
ATOM     39  H   UNL     1      33.364 -10.610 -22.020  0.00  0.00    -0.079 HD
ATOM     40  H   UNL     1      31.031  -7.648 -21.613  0.00  0.00    -0.080 HD
ENDBRANCH  31  32
ENDBRANCH  25  31
ENDBRANCH   3  30
TORSDOF 6
ENDMDL
