MODEL 1
REMARK VINA RESULT:     -10.2      0.000      0.000
REMARK  Name = 10286462
REMARK  3 active torsions:
REMARK  status: ('A' for Active; 'I' for Inactive)
REMARK    1  A    between atoms: C_3  and  C_12
REMARK    2  A    between atoms: C_10  and  O_20
REMARK    3  A    between atoms: C_17  and  O_18
REMARK                            x       y       z     vdW  Elec       q    Type
REMARK                         _______ _______ _______ _____ _____    ______ ____
ROOT
ATOM      1 BR   UNL     1      34.523 -19.088 -24.443  0.00  0.00    -0.049 Br
ATOM      2  O   UNL     1      34.876 -16.121 -20.146  0.00  0.00    -0.287 OA
ATOM      3  C   UNL     1      34.760 -17.825 -21.871  0.00  0.00    +0.045 C 
ATOM      4  C   UNL     1      34.445 -15.546 -22.415  0.00  0.00    +0.042 C 
ATOM      5  C   UNL     1      34.333 -16.327 -23.558  0.00  0.00    +0.010 C 
ATOM      6  C   UNL     1      34.720 -16.446 -21.305  0.00  0.00    +0.196 C 
ATOM      7  C   UNL     1      34.537 -17.725 -23.196  0.00  0.00    +0.038 C 
ATOM      8  C   UNL     1      34.306 -14.171 -22.411  0.00  0.00    +0.040 C 
ATOM      9  C   UNL     1      34.068 -15.715 -24.774  0.00  0.00    +0.004 C 
ATOM     10  C   UNL     1      34.039 -13.556 -23.633  0.00  0.00    +0.134 C 
ATOM     11  C   UNL     1      33.920 -14.322 -24.806  0.00  0.00    +0.037 C 
ENDROOT
BRANCH   3  12
ATOM     12  C   UNL     1      35.032 -19.020 -21.073  0.00  0.00    +0.004 C 
ATOM     13  C   UNL     1      36.347 -19.361 -20.737  0.00  0.00    +0.003 C 
ATOM     14  C   UNL     1      33.980 -19.834 -20.639  0.00  0.00    +0.003 C 
ATOM     15  C   UNL     1      36.607 -20.501 -19.976  0.00  0.00    +0.037 C 
ATOM     16  C   UNL     1      34.239 -20.973 -19.878  0.00  0.00    +0.037 C 
ATOM     17  C   UNL     1      35.552 -21.307 -19.547  0.00  0.00    +0.134 C 
BRANCH  17  18
ATOM     18  O   UNL     1      35.805 -22.419 -18.804  0.00  0.00    -0.506 OA
ATOM     19  H   UNL     1      35.266 -22.621 -18.065  0.00  0.00    +0.292 HD
ENDBRANCH  17  18
ENDBRANCH   3  12
BRANCH  10  20
ATOM     20  O   UNL     1      33.895 -12.203 -23.695  0.00  0.00    -0.506 OA
ATOM     21  H   UNL     1      33.996 -11.758 -24.514  0.00  0.00    +0.292 HD
ENDBRANCH  10  20
TORSDOF 3
ENDMDL
MODEL 2
REMARK VINA RESULT:      -9.9      2.082      2.519
REMARK  Name = 10286462
REMARK  3 active torsions:
REMARK  status: ('A' for Active; 'I' for Inactive)
REMARK    1  A    between atoms: C_3  and  C_12
REMARK    2  A    between atoms: C_10  and  O_20
REMARK    3  A    between atoms: C_17  and  O_18
REMARK                            x       y       z     vdW  Elec       q    Type
REMARK                         _______ _______ _______ _____ _____    ______ ____
ROOT
ATOM      1 BR   UNL     1      34.458 -15.335 -20.464  0.00  0.00    -0.049 Br
ATOM      2  O   UNL     1      34.531 -18.428 -24.686  0.00  0.00    -0.287 OA
ATOM      3  C   UNL     1      34.641 -17.337 -22.520  0.00  0.00    +0.045 C 
ATOM      4  C   UNL     1      34.036 -16.112 -24.449  0.00  0.00    +0.042 C 
ATOM      5  C   UNL     1      34.029 -15.280 -23.338  0.00  0.00    +0.010 C 
ATOM      6  C   UNL     1      34.416 -17.440 -23.990  0.00  0.00    +0.196 C 
ATOM      7  C   UNL     1      34.400 -16.060 -22.162  0.00  0.00    +0.038 C 
ATOM      8  C   UNL     1      33.727 -15.685 -25.727  0.00  0.00    +0.040 C 
ATOM      9  C   UNL     1      33.698 -13.943 -23.493  0.00  0.00    +0.004 C 
ATOM     10  C   UNL     1      33.394 -14.340 -25.883  0.00  0.00    +0.134 C 
ATOM     11  C   UNL     1      33.380 -13.475 -24.775  0.00  0.00    +0.037 C 
ENDROOT
BRANCH   3  12
ATOM     12  C   UNL     1      35.021 -18.471 -21.678  0.00  0.00    +0.004 C 
ATOM     13  C   UNL     1      36.366 -18.700 -21.367  0.00  0.00    +0.003 C 
ATOM     14  C   UNL     1      34.043 -19.337 -21.177  0.00  0.00    +0.003 C 
ATOM     15  C   UNL     1      36.729 -19.782 -20.563  0.00  0.00    +0.037 C 
ATOM     16  C   UNL     1      34.405 -20.418 -20.374  0.00  0.00    +0.037 C 
ATOM     17  C   UNL     1      35.748 -20.640 -20.067  0.00  0.00    +0.134 C 
BRANCH  17  18
ATOM     18  O   UNL     1      36.102 -21.696 -19.283  0.00  0.00    -0.506 OA
ATOM     19  H   UNL     1      35.808 -22.558 -19.499  0.00  0.00    +0.292 HD
ENDBRANCH  17  18
ENDBRANCH   3  12
BRANCH  10  20
ATOM     20  O   UNL     1      33.076 -13.859 -27.117  0.00  0.00    -0.506 OA
ATOM     21  H   UNL     1      33.720 -13.403 -27.623  0.00  0.00    +0.292 HD
ENDBRANCH  10  20
TORSDOF 3
ENDMDL
MODEL 3
REMARK VINA RESULT:      -9.7      2.374      7.004
REMARK  Name = 10286462
REMARK  3 active torsions:
REMARK  status: ('A' for Active; 'I' for Inactive)
REMARK    1  A    between atoms: C_3  and  C_12
REMARK    2  A    between atoms: C_10  and  O_20
REMARK    3  A    between atoms: C_17  and  O_18
REMARK                            x       y       z     vdW  Elec       q    Type
REMARK                         _______ _______ _______ _____ _____    ______ ____
ROOT
ATOM      1 BR   UNL     1      37.485 -19.425 -21.015  0.00  0.00    -0.049 Br
ATOM      2  O   UNL     1      32.319 -20.228 -21.264  0.00  0.00    -0.287 OA
ATOM      3  C   UNL     1      34.648 -19.573 -21.460  0.00  0.00    +0.045 C 
ATOM      4  C   UNL     1      33.971 -21.103 -19.790  0.00  0.00    +0.042 C 
ATOM      5  C   UNL     1      35.340 -20.883 -19.706  0.00  0.00    +0.010 C 
ATOM      6  C   UNL     1      33.474 -20.296 -20.894  0.00  0.00    +0.196 C 
ATOM      7  C   UNL     1      35.732 -19.942 -20.749  0.00  0.00    +0.038 C 
ATOM      8  C   UNL     1      33.278 -21.948 -18.944  0.00  0.00    +0.040 C 
ATOM      9  C   UNL     1      36.073 -21.537 -18.727  0.00  0.00    +0.004 C 
ATOM     10  C   UNL     1      34.015 -22.604 -17.959  0.00  0.00    +0.134 C 
ATOM     11  C   UNL     1      35.402 -22.401 -17.851  0.00  0.00    +0.037 C 
ENDROOT
BRANCH   3  12
ATOM     12  C   UNL     1      34.566 -18.667 -22.606  0.00  0.00    +0.004 C 
ATOM     13  C   UNL     1      34.533 -17.283 -22.410  0.00  0.00    +0.003 C 
ATOM     14  C   UNL     1      34.519 -19.179 -23.908  0.00  0.00    +0.003 C 
ATOM     15  C   UNL     1      34.455 -16.419 -23.504  0.00  0.00    +0.037 C 
ATOM     16  C   UNL     1      34.441 -18.316 -25.000  0.00  0.00    +0.037 C 
ATOM     17  C   UNL     1      34.409 -16.936 -24.798  0.00  0.00    +0.134 C 
BRANCH  17  18
ATOM     18  O   UNL     1      34.333 -16.093 -25.865  0.00  0.00    -0.506 OA
ATOM     19  H   UNL     1      35.025 -15.483 -26.029  0.00  0.00    +0.292 HD
ENDBRANCH  17  18
ENDBRANCH   3  12
BRANCH  10  20
ATOM     20  O   UNL     1      33.390 -23.454 -17.097  0.00  0.00    -0.506 OA
ATOM     21  H   UNL     1      32.539 -23.789 -17.304  0.00  0.00    +0.292 HD
ENDBRANCH  10  20
TORSDOF 3
ENDMDL
MODEL 4
REMARK VINA RESULT:      -9.2      4.964      7.231
REMARK  Name = 10286462
REMARK  3 active torsions:
REMARK  status: ('A' for Active; 'I' for Inactive)
REMARK    1  A    between atoms: C_3  and  C_12
REMARK    2  A    between atoms: C_10  and  O_20
REMARK    3  A    between atoms: C_17  and  O_18
REMARK                            x       y       z     vdW  Elec       q    Type
REMARK                         _______ _______ _______ _____ _____    ______ ____
ROOT
ATOM      1 BR   UNL     1      35.376 -10.497 -25.695  0.00  0.00    -0.049 Br
ATOM      2  O   UNL     1      31.752 -11.934 -22.202  0.00  0.00    -0.287 OA
ATOM      3  C   UNL     1      33.416 -11.673 -23.951  0.00  0.00    +0.045 C 
ATOM      4  C   UNL     1      32.703  -9.806 -22.688  0.00  0.00    +0.042 C 
ATOM      5  C   UNL     1      33.651  -9.412 -23.623  0.00  0.00    +0.010 C 
ATOM      6  C   UNL     1      32.512 -11.240 -22.847  0.00  0.00    +0.196 C 
ATOM      7  C   UNL     1      34.078 -10.582 -24.383  0.00  0.00    +0.038 C 
ATOM      8  C   UNL     1      32.094  -8.937 -21.802  0.00  0.00    +0.040 C 
ATOM      9  C   UNL     1      34.025  -8.079 -23.689  0.00  0.00    +0.004 C 
ATOM     10  C   UNL     1      32.470  -7.596 -21.871  0.00  0.00    +0.134 C 
ATOM     11  C   UNL     1      33.427  -7.170 -22.807  0.00  0.00    +0.037 C 
ENDROOT
BRANCH   3  12
ATOM     12  C   UNL     1      33.532 -13.059 -24.405  0.00  0.00    +0.004 C 
ATOM     13  C   UNL     1      33.092 -13.422 -25.683  0.00  0.00    +0.003 C 
ATOM     14  C   UNL     1      34.084 -14.033 -23.565  0.00  0.00    +0.003 C 
ATOM     15  C   UNL     1      33.204 -14.744 -26.116  0.00  0.00    +0.037 C 
ATOM     16  C   UNL     1      34.195 -15.353 -23.998  0.00  0.00    +0.037 C 
ATOM     17  C   UNL     1      33.755 -15.709 -25.273  0.00  0.00    +0.134 C 
BRANCH  17  18
ATOM     18  O   UNL     1      33.864 -16.999 -25.696  0.00  0.00    -0.506 OA
ATOM     19  H   UNL     1      34.551 -17.543 -25.365  0.00  0.00    +0.292 HD
ENDBRANCH  17  18
ENDBRANCH   3  12
BRANCH  10  20
ATOM     20  O   UNL     1      31.908  -6.690 -21.021  0.00  0.00    -0.506 OA
ATOM     21  H   UNL     1      32.374  -6.413 -20.257  0.00  0.00    +0.292 HD
ENDBRANCH  10  20
TORSDOF 3
ENDMDL
MODEL 5
REMARK VINA RESULT:      -9.1      2.617      7.174
REMARK  Name = 10286462
REMARK  3 active torsions:
REMARK  status: ('A' for Active; 'I' for Inactive)
REMARK    1  A    between atoms: C_3  and  C_12
REMARK    2  A    between atoms: C_10  and  O_20
REMARK    3  A    between atoms: C_17  and  O_18
REMARK                            x       y       z     vdW  Elec       q    Type
REMARK                         _______ _______ _______ _____ _____    ______ ____
ROOT
ATOM      1 BR   UNL     1      33.061 -14.573 -26.092  0.00  0.00    -0.049 Br
ATOM      2  O   UNL     1      34.407 -14.383 -21.037  0.00  0.00    -0.287 OA
ATOM      3  C   UNL     1      33.688 -14.058 -23.333  0.00  0.00    +0.045 C 
ATOM      4  C   UNL     1      34.570 -16.138 -22.636  0.00  0.00    +0.042 C 
ATOM      5  C   UNL     1      34.232 -16.193 -23.982  0.00  0.00    +0.010 C 
ATOM      6  C   UNL     1      34.244 -14.800 -22.166  0.00  0.00    +0.196 C 
ATOM      7  C   UNL     1      33.685 -14.901 -24.384  0.00  0.00    +0.038 C 
ATOM      8  C   UNL     1      35.115 -17.201 -21.940  0.00  0.00    +0.040 C 
ATOM      9  C   UNL     1      34.442 -17.368 -24.687  0.00  0.00    +0.004 C 
ATOM     10  C   UNL     1      35.327 -18.382 -22.650  0.00  0.00    +0.134 C 
ATOM     11  C   UNL     1      34.994 -18.465 -24.013  0.00  0.00    +0.037 C 
ENDROOT
BRANCH   3  12
ATOM     12  C   UNL     1      33.219 -12.674 -23.264  0.00  0.00    +0.004 C 
ATOM     13  C   UNL     1      33.841 -11.679 -24.026  0.00  0.00    +0.003 C 
ATOM     14  C   UNL     1      32.145 -12.334 -22.435  0.00  0.00    +0.003 C 
ATOM     15  C   UNL     1      33.393 -10.359 -23.960  0.00  0.00    +0.037 C 
ATOM     16  C   UNL     1      31.697 -11.015 -22.369  0.00  0.00    +0.037 C 
ATOM     17  C   UNL     1      32.322 -10.027 -23.131  0.00  0.00    +0.134 C 
BRANCH  17  18
ATOM     18  O   UNL     1      31.885  -8.740 -23.067  0.00  0.00    -0.506 OA
ATOM     19  H   UNL     1      31.427  -8.438 -22.307  0.00  0.00    +0.292 HD
ENDBRANCH  17  18
ENDBRANCH   3  12
BRANCH  10  20
ATOM     20  O   UNL     1      35.857 -19.466 -22.018  0.00  0.00    -0.506 OA
ATOM     21  H   UNL     1      36.777 -19.637 -22.073  0.00  0.00    +0.292 HD
ENDBRANCH  10  20
TORSDOF 3
ENDMDL
MODEL 6
REMARK VINA RESULT:      -8.9      3.188      7.228
REMARK  Name = 10286462
REMARK  3 active torsions:
REMARK  status: ('A' for Active; 'I' for Inactive)
REMARK    1  A    between atoms: C_3  and  C_12
REMARK    2  A    between atoms: C_10  and  O_20
REMARK    3  A    between atoms: C_17  and  O_18
REMARK                            x       y       z     vdW  Elec       q    Type
REMARK                         _______ _______ _______ _____ _____    ______ ____
ROOT
ATOM      1 BR   UNL     1      34.474 -14.952 -20.639  0.00  0.00    -0.049 Br
ATOM      2  O   UNL     1      33.404 -15.136 -25.759  0.00  0.00    -0.287 OA
ATOM      3  C   UNL     1      33.750 -14.652 -23.405  0.00  0.00    +0.045 C 
ATOM      4  C   UNL     1      34.198 -16.809 -24.263  0.00  0.00    +0.042 C 
ATOM      5  C   UNL     1      34.469 -16.774 -22.902  0.00  0.00    +0.010 C 
ATOM      6  C   UNL     1      33.738 -15.482 -24.644  0.00  0.00    +0.196 C 
ATOM      7  C   UNL     1      34.191 -15.433 -22.399  0.00  0.00    +0.038 C 
ATOM      8  C   UNL     1      34.360 -17.936 -25.047  0.00  0.00    +0.040 C 
ATOM      9  C   UNL     1      34.929 -17.921 -22.272  0.00  0.00    +0.004 C 
ATOM     10  C   UNL     1      34.821 -19.089 -24.414  0.00  0.00    +0.134 C 
ATOM     11  C   UNL     1      35.103 -19.082 -23.037  0.00  0.00    +0.037 C 
ENDROOT
BRANCH   3  12
ATOM     12  C   UNL     1      33.370 -13.240 -23.373  0.00  0.00    +0.004 C 
ATOM     13  C   UNL     1      34.033 -12.312 -24.183  0.00  0.00    +0.003 C 
ATOM     14  C   UNL     1      32.341 -12.806 -22.530  0.00  0.00    +0.003 C 
ATOM     15  C   UNL     1      33.670 -10.965 -24.152  0.00  0.00    +0.037 C 
ATOM     16  C   UNL     1      31.979 -11.459 -22.498  0.00  0.00    +0.037 C 
ATOM     17  C   UNL     1      32.643 -10.539 -23.309  0.00  0.00    +0.134 C 
BRANCH  17  18
ATOM     18  O   UNL     1      32.289  -9.225 -23.279  0.00  0.00    -0.506 OA
ATOM     19  H   UNL     1      31.990  -8.803 -24.060  0.00  0.00    +0.292 HD
ENDBRANCH  17  18
ENDBRANCH   3  12
BRANCH  10  20
ATOM     20  O   UNL     1      35.004 -20.231 -25.133  0.00  0.00    -0.506 OA
ATOM     21  H   UNL     1      34.421 -20.956 -25.019  0.00  0.00    +0.292 HD
ENDBRANCH  10  20
TORSDOF 3
ENDMDL
MODEL 7
REMARK VINA RESULT:      -8.9      2.202      6.918
REMARK  Name = 10286462
REMARK  3 active torsions:
REMARK  status: ('A' for Active; 'I' for Inactive)
REMARK    1  A    between atoms: C_3  and  C_12
REMARK    2  A    between atoms: C_10  and  O_20
REMARK    3  A    between atoms: C_17  and  O_18
REMARK                            x       y       z     vdW  Elec       q    Type
REMARK                         _______ _______ _______ _____ _____    ______ ____
ROOT
ATOM      1 BR   UNL     1      32.351 -20.147 -21.133  0.00  0.00    -0.049 Br
ATOM      2  O   UNL     1      37.520 -19.320 -21.132  0.00  0.00    -0.287 OA
ATOM      3  C   UNL     1      35.122 -19.464 -21.485  0.00  0.00    +0.045 C 
ATOM      4  C   UNL     1      36.148 -20.663 -19.724  0.00  0.00    +0.042 C 
ATOM      5  C   UNL     1      34.780 -20.902 -19.727  0.00  0.00    +0.010 C 
ATOM      6  C   UNL     1      36.427 -19.750 -20.823  0.00  0.00    +0.196 C 
ATOM      7  C   UNL     1      34.171 -20.146 -20.817  0.00  0.00    +0.038 C 
ATOM      8  C   UNL     1      37.021 -21.227 -18.813  0.00  0.00    +0.040 C 
ATOM      9  C   UNL     1      34.237 -21.748 -18.772  0.00  0.00    +0.004 C 
ATOM     10  C   UNL     1      36.475 -22.079 -17.855  0.00  0.00    +0.134 C 
ATOM     11  C   UNL     1      35.094 -22.338 -17.834  0.00  0.00    +0.037 C 
ENDROOT
BRANCH   3  12
ATOM     12  C   UNL     1      34.975 -18.566 -22.630  0.00  0.00    +0.004 C 
ATOM     13  C   UNL     1      34.736 -19.084 -23.907  0.00  0.00    +0.003 C 
ATOM     14  C   UNL     1      35.074 -17.181 -22.457  0.00  0.00    +0.003 C 
ATOM     15  C   UNL     1      34.596 -18.226 -24.999  0.00  0.00    +0.037 C 
ATOM     16  C   UNL     1      34.933 -16.324 -23.548  0.00  0.00    +0.037 C 
ATOM     17  C   UNL     1      34.694 -16.847 -24.820  0.00  0.00    +0.134 C 
BRANCH  17  18
ATOM     18  O   UNL     1      34.557 -16.010 -25.885  0.00  0.00    -0.506 OA
ATOM     19  H   UNL     1      34.827 -15.116 -25.816  0.00  0.00    +0.292 HD
ENDBRANCH  17  18
ENDBRANCH   3  12
BRANCH  10  20
ATOM     20  O   UNL     1      37.284 -22.662 -16.927  0.00  0.00    -0.506 OA
ATOM     21  H   UNL     1      38.137 -22.965 -17.172  0.00  0.00    +0.292 HD
ENDBRANCH  10  20
TORSDOF 3
ENDMDL
MODEL 8
REMARK VINA RESULT:      -8.9      1.612      6.731
REMARK  Name = 10286462
REMARK  3 active torsions:
REMARK  status: ('A' for Active; 'I' for Inactive)
REMARK    1  A    between atoms: C_3  and  C_12
REMARK    2  A    between atoms: C_10  and  O_20
REMARK    3  A    between atoms: C_17  and  O_18
REMARK                            x       y       z     vdW  Elec       q    Type
REMARK                         _______ _______ _______ _____ _____    ______ ____
ROOT
ATOM      1 BR   UNL     1      37.354 -18.717 -21.819  0.00  0.00    -0.049 Br
ATOM      2  O   UNL     1      32.238 -18.521 -20.732  0.00  0.00    -0.287 OA
ATOM      3  C   UNL     1      34.556 -18.217 -21.387  0.00  0.00    +0.045 C 
ATOM      4  C   UNL     1      33.876 -20.185 -20.267  0.00  0.00    +0.042 C 
ATOM      5  C   UNL     1      35.237 -20.239 -20.537  0.00  0.00    +0.010 C 
ATOM      6  C   UNL     1      33.384 -18.919 -20.789  0.00  0.00    +0.196 C 
ATOM      7  C   UNL     1      35.629 -19.017 -21.232  0.00  0.00    +0.038 C 
ATOM      8  C   UNL     1      33.184 -21.190 -19.617  0.00  0.00    +0.040 C 
ATOM      9  C   UNL     1      35.963 -21.352 -20.142  0.00  0.00    +0.004 C 
ATOM     10  C   UNL     1      33.915 -22.308 -19.219  0.00  0.00    +0.134 C 
ATOM     11  C   UNL     1      35.294 -22.389 -19.479  0.00  0.00    +0.037 C 
ENDROOT
BRANCH   3  12
ATOM     12  C   UNL     1      34.471 -16.910 -22.038  0.00  0.00    +0.004 C 
ATOM     13  C   UNL     1      34.472 -16.816 -23.434  0.00  0.00    +0.003 C 
ATOM     14  C   UNL     1      34.391 -15.743 -21.270  0.00  0.00    +0.003 C 
ATOM     15  C   UNL     1      34.392 -15.568 -24.055  0.00  0.00    +0.037 C 
ATOM     16  C   UNL     1      34.310 -14.497 -21.891  0.00  0.00    +0.037 C 
ATOM     17  C   UNL     1      34.311 -14.410 -23.283  0.00  0.00    +0.134 C 
BRANCH  17  18
ATOM     18  O   UNL     1      34.232 -13.193 -23.889  0.00  0.00    -0.506 OA
ATOM     19  H   UNL     1      34.522 -13.092 -24.774  0.00  0.00    +0.292 HD
ENDBRANCH  17  18
ENDBRANCH   3  12
BRANCH  10  20
ATOM     20  O   UNL     1      33.289 -23.334 -18.577  0.00  0.00    -0.506 OA
ATOM     21  H   UNL     1      32.643 -23.843 -19.027  0.00  0.00    +0.292 HD
ENDBRANCH  10  20
TORSDOF 3
ENDMDL
MODEL 9
REMARK VINA RESULT:      -8.8      5.194      9.817
REMARK  Name = 10286462
REMARK  3 active torsions:
REMARK  status: ('A' for Active; 'I' for Inactive)
REMARK    1  A    between atoms: C_3  and  C_12
REMARK    2  A    between atoms: C_10  and  O_20
REMARK    3  A    between atoms: C_17  and  O_18
REMARK                            x       y       z     vdW  Elec       q    Type
REMARK                         _______ _______ _______ _____ _____    ______ ____
ROOT
ATOM      1 BR   UNL     1      30.871 -11.059 -20.190  0.00  0.00    -0.049 Br
ATOM      2  O   UNL     1      33.669 -10.254 -24.540  0.00  0.00    -0.287 OA
ATOM      3  C   UNL     1      32.286 -10.210 -22.545  0.00  0.00    +0.045 C 
ATOM      4  C   UNL     1      33.166 -12.252 -23.348  0.00  0.00    +0.042 C 
ATOM      5  C   UNL     1      32.412 -12.478 -22.204  0.00  0.00    +0.010 C 
ATOM      6  C   UNL     1      33.125 -10.822 -23.614  0.00  0.00    +0.196 C 
ATOM      7  C   UNL     1      31.886 -11.203 -21.726  0.00  0.00    +0.038 C 
ATOM      8  C   UNL     1      33.808 -13.254 -24.052  0.00  0.00    +0.040 C 
ATOM      9  C   UNL     1      32.282 -13.771 -21.722  0.00  0.00    +0.004 C 
ATOM     10  C   UNL     1      33.676 -14.555 -23.567  0.00  0.00    +0.134 C 
ATOM     11  C   UNL     1      32.918 -14.812 -22.411  0.00  0.00    +0.037 C 
ENDROOT
BRANCH   3  12
ATOM     12  C   UNL     1      32.016  -8.776 -22.448  0.00  0.00    +0.004 C 
ATOM     13  C   UNL     1      32.580  -8.020 -21.415  0.00  0.00    +0.003 C 
ATOM     14  C   UNL     1      31.191  -8.148 -23.388  0.00  0.00    +0.003 C 
ATOM     15  C   UNL     1      32.322  -6.652 -21.323  0.00  0.00    +0.037 C 
ATOM     16  C   UNL     1      30.934  -6.781 -23.296  0.00  0.00    +0.037 C 
ATOM     17  C   UNL     1      31.499  -6.032 -22.263  0.00  0.00    +0.134 C 
BRANCH  17  18
ATOM     18  O   UNL     1      31.248  -4.697 -22.174  0.00  0.00    -0.506 OA
ATOM     19  H   UNL     1      30.958  -4.224 -22.928  0.00  0.00    +0.292 HD
ENDBRANCH  17  18
ENDBRANCH   3  12
BRANCH  10  20
ATOM     20  O   UNL     1      34.288 -15.585 -24.214  0.00  0.00    -0.506 OA
ATOM     21  H   UNL     1      35.138 -15.870 -23.942  0.00  0.00    +0.292 HD
ENDBRANCH  10  20
TORSDOF 3
ENDMDL
