MODEL 1
REMARK VINA RESULT:      -3.9      0.000      0.000
REMARK  Name = 8060
REMARK  4 active torsions:
REMARK  status: ('A' for Active; 'I' for Inactive)
REMARK    1  A    between atoms: C_1  and  N_2
REMARK    2  A    between atoms: C_1  and  C_6
REMARK    3  A    between atoms: C_6  and  C_7
REMARK    4  A    between atoms: C_7  and  C_8
REMARK                            x       y       z     vdW  Elec       q    Type
REMARK                         _______ _______ _______ _____ _____    ______ ____
ROOT
ATOM      1  C   UNL     1      34.228 -18.153 -21.346  0.00  0.00    -0.086 C 
ENDROOT
BRANCH   1   2
ATOM      2  N   UNL     1      35.511 -17.812 -20.743  0.00  0.00    +0.380 N 
ATOM      3  H   UNL     1      35.450 -17.920 -19.731  0.00  0.00    -0.089 HD
ATOM      4  H   UNL     1      35.746 -16.846 -20.969  0.00  0.00    -0.089 HD
ATOM      5  H   UNL     1      36.233 -18.432 -21.109  0.00  0.00    -0.089 HD
ENDBRANCH   1   2
BRANCH   1   6
ATOM      6  C   UNL     1      34.059 -19.671 -21.412  0.00  0.00    -0.024 C 
BRANCH   6   7
ATOM      7  C   UNL     1      32.941 -20.144 -20.481  0.00  0.00    -0.002 C 
BRANCH   7   8
ATOM      8  C   UNL     1      33.415 -21.284 -19.580  0.00  0.00    -0.000 C 
ATOM      9  C   UNL     1      34.931 -21.408 -19.590  0.00  0.00    -0.000 C 
ENDBRANCH   7   8
ENDBRANCH   6   7
ENDBRANCH   1   6
TORSDOF 4
ENDMDL
MODEL 2
REMARK VINA RESULT:      -3.9      2.519      3.406
REMARK  Name = 8060
REMARK  4 active torsions:
REMARK  status: ('A' for Active; 'I' for Inactive)
REMARK    1  A    between atoms: C_1  and  N_2
REMARK    2  A    between atoms: C_1  and  C_6
REMARK    3  A    between atoms: C_6  and  C_7
REMARK    4  A    between atoms: C_7  and  C_8
REMARK                            x       y       z     vdW  Elec       q    Type
REMARK                         _______ _______ _______ _____ _____    ______ ____
ROOT
ATOM      1  C   UNL     1      33.645 -21.499 -19.545  0.00  0.00    -0.086 C 
ENDROOT
BRANCH   1   2
ATOM      2  N   UNL     1      32.771 -22.283 -18.681  0.00  0.00    +0.380 N 
ATOM      3  H   UNL     1      32.630 -23.207 -19.089  0.00  0.00    -0.089 HD
ATOM      4  H   UNL     1      31.872 -21.810 -18.589  0.00  0.00    -0.089 HD
ATOM      5  H   UNL     1      33.200 -22.379 -17.761  0.00  0.00    -0.089 HD
ENDBRANCH   1   2
BRANCH   1   6
ATOM      6  C   UNL     1      32.870 -20.342 -20.176  0.00  0.00    -0.024 C 
BRANCH   6   7
ATOM      7  C   UNL     1      33.774 -19.498 -21.077  0.00  0.00    -0.002 C 
BRANCH   7   8
ATOM      8  C   UNL     1      35.236 -19.930 -20.956  0.00  0.00    -0.000 C 
ATOM      9  C   UNL     1      36.183 -18.766 -21.205  0.00  0.00    -0.000 C 
ENDBRANCH   7   8
ENDBRANCH   6   7
ENDBRANCH   1   6
TORSDOF 4
ENDMDL
MODEL 3
REMARK VINA RESULT:      -3.9      2.405      3.530
REMARK  Name = 8060
REMARK  4 active torsions:
REMARK  status: ('A' for Active; 'I' for Inactive)
REMARK    1  A    between atoms: C_1  and  N_2
REMARK    2  A    between atoms: C_1  and  C_6
REMARK    3  A    between atoms: C_6  and  C_7
REMARK    4  A    between atoms: C_7  and  C_8
REMARK                            x       y       z     vdW  Elec       q    Type
REMARK                         _______ _______ _______ _____ _____    ______ ____
ROOT
ATOM      1  C   UNL     1      33.740 -21.170 -19.771  0.00  0.00    -0.086 C 
ENDROOT
BRANCH   1   2
ATOM      2  N   UNL     1      32.865 -22.100 -19.068  0.00  0.00    +0.380 N 
ATOM      3  H   UNL     1      32.906 -21.914 -18.067  0.00  0.00    -0.089 HD
ATOM      4  H   UNL     1      33.171 -23.056 -19.250  0.00  0.00    -0.089 HD
ATOM      5  H   UNL     1      31.908 -21.981 -19.398  0.00  0.00    -0.089 HD
ENDBRANCH   1   2
BRANCH   1   6
ATOM      6  C   UNL     1      32.913 -20.123 -20.517  0.00  0.00    -0.024 C 
BRANCH   6   7
ATOM      7  C   UNL     1      33.802 -19.006 -21.068  0.00  0.00    -0.002 C 
BRANCH   7   8
ATOM      8  C   UNL     1      34.947 -19.572 -21.907  0.00  0.00    -0.000 C 
ATOM      9  C   UNL     1      34.828 -19.153 -23.365  0.00  0.00    -0.000 C 
ENDBRANCH   7   8
ENDBRANCH   6   7
ENDBRANCH   1   6
TORSDOF 4
ENDMDL
MODEL 4
REMARK VINA RESULT:      -3.8      1.929      2.527
REMARK  Name = 8060
REMARK  4 active torsions:
REMARK  status: ('A' for Active; 'I' for Inactive)
REMARK    1  A    between atoms: C_1  and  N_2
REMARK    2  A    between atoms: C_1  and  C_6
REMARK    3  A    between atoms: C_6  and  C_7
REMARK    4  A    between atoms: C_7  and  C_8
REMARK                            x       y       z     vdW  Elec       q    Type
REMARK                         _______ _______ _______ _____ _____    ______ ____
ROOT
ATOM      1  C   UNL     1      34.923 -17.996 -24.178  0.00  0.00    -0.086 C 
ENDROOT
BRANCH   1   2
ATOM      2  N   UNL     1      35.581 -16.871 -23.525  0.00  0.00    +0.380 N 
ATOM      3  H   UNL     1      36.525 -16.766 -23.897  0.00  0.00    -0.089 HD
ATOM      4  H   UNL     1      35.628 -17.042 -22.520  0.00  0.00    -0.089 HD
ATOM      5  H   UNL     1      35.050 -16.018 -23.700  0.00  0.00    -0.089 HD
ENDBRANCH   1   2
BRANCH   1   6
ATOM      6  C   UNL     1      34.829 -19.184 -23.222  0.00  0.00    -0.024 C 
BRANCH   6   7
ATOM      7  C   UNL     1      34.501 -18.725 -21.800  0.00  0.00    -0.002 C 
BRANCH   7   8
ATOM      8  C   UNL     1      34.353 -19.915 -20.852  0.00  0.00    -0.000 C 
ATOM      9  C   UNL     1      32.901 -20.137 -20.458  0.00  0.00    -0.000 C 
ENDBRANCH   7   8
ENDBRANCH   6   7
ENDBRANCH   1   6
TORSDOF 4
ENDMDL
MODEL 5
REMARK VINA RESULT:      -3.8      2.524      3.830
REMARK  Name = 8060
REMARK  4 active torsions:
REMARK  status: ('A' for Active; 'I' for Inactive)
REMARK    1  A    between atoms: C_1  and  N_2
REMARK    2  A    between atoms: C_1  and  C_6
REMARK    3  A    between atoms: C_6  and  C_7
REMARK    4  A    between atoms: C_7  and  C_8
REMARK                            x       y       z     vdW  Elec       q    Type
REMARK                         _______ _______ _______ _____ _____    ______ ____
ROOT
ATOM      1  C   UNL     1      36.546 -21.761 -17.769  0.00  0.00    -0.086 C 
ENDROOT
BRANCH   1   2
ATOM      2  N   UNL     1      37.341 -20.901 -16.902  0.00  0.00    +0.380 N 
ATOM      3  H   UNL     1      38.263 -21.315 -16.766  0.00  0.00    -0.089 HD
ATOM      4  H   UNL     1      36.875 -20.803 -16.000  0.00  0.00    -0.089 HD
ATOM      5  H   UNL     1      37.441 -19.983 -17.335  0.00  0.00    -0.089 HD
ENDBRANCH   1   2
BRANCH   1   6
ATOM      6  C   UNL     1      36.531 -21.211 -19.195  0.00  0.00    -0.024 C 
BRANCH   6   7
ATOM      7  C   UNL     1      35.214 -21.542 -19.901  0.00  0.00    -0.002 C 
BRANCH   7   8
ATOM      8  C   UNL     1      34.557 -20.284 -20.469  0.00  0.00    -0.000 C 
ATOM      9  C   UNL     1      33.045 -20.326 -20.312  0.00  0.00    -0.000 C 
ENDBRANCH   7   8
ENDBRANCH   6   7
ENDBRANCH   1   6
TORSDOF 4
ENDMDL
MODEL 6
REMARK VINA RESULT:      -3.8      1.409      1.766
REMARK  Name = 8060
REMARK  4 active torsions:
REMARK  status: ('A' for Active; 'I' for Inactive)
REMARK    1  A    between atoms: C_1  and  N_2
REMARK    2  A    between atoms: C_1  and  C_6
REMARK    3  A    between atoms: C_6  and  C_7
REMARK    4  A    between atoms: C_7  and  C_8
REMARK                            x       y       z     vdW  Elec       q    Type
REMARK                         _______ _______ _______ _____ _____    ______ ____
ROOT
ATOM      1  C   UNL     1      34.693 -17.491 -22.338  0.00  0.00    -0.086 C 
ENDROOT
BRANCH   1   2
ATOM      2  N   UNL     1      35.708 -17.019 -23.272  0.00  0.00    +0.380 N 
ATOM      3  H   UNL     1      35.547 -16.034 -23.480  0.00  0.00    -0.089 HD
ATOM      4  H   UNL     1      35.656 -17.562 -24.134  0.00  0.00    -0.089 HD
ATOM      5  H   UNL     1      36.632 -17.131 -22.855  0.00  0.00    -0.089 HD
ENDBRANCH   1   2
BRANCH   1   6
ATOM      6  C   UNL     1      34.583 -19.014 -22.400  0.00  0.00    -0.024 C 
BRANCH   6   7
ATOM      7  C   UNL     1      34.607 -19.626 -20.997  0.00  0.00    -0.002 C 
BRANCH   7   8
ATOM      8  C   UNL     1      33.222 -20.128 -20.588  0.00  0.00    -0.000 C 
ATOM      9  C   UNL     1      33.316 -21.256 -19.572  0.00  0.00    -0.000 C 
ENDBRANCH   7   8
ENDBRANCH   6   7
ENDBRANCH   1   6
TORSDOF 4
ENDMDL
MODEL 7
REMARK VINA RESULT:      -3.6     12.140     12.949
REMARK  Name = 8060
REMARK  4 active torsions:
REMARK  status: ('A' for Active; 'I' for Inactive)
REMARK    1  A    between atoms: C_1  and  N_2
REMARK    2  A    between atoms: C_1  and  C_6
REMARK    3  A    between atoms: C_6  and  C_7
REMARK    4  A    between atoms: C_7  and  C_8
REMARK                            x       y       z     vdW  Elec       q    Type
REMARK                         _______ _______ _______ _____ _____    ______ ____
ROOT
ATOM      1  C   UNL     1      32.169  -6.806 -20.684  0.00  0.00    -0.086 C 
ENDROOT
BRANCH   1   2
ATOM      2  N   UNL     1      33.008  -7.750 -19.957  0.00  0.00    +0.380 N 
ATOM      3  H   UNL     1      33.343  -7.315 -19.098  0.00  0.00    -0.089 HD
ATOM      4  H   UNL     1      33.804  -8.013 -20.538  0.00  0.00    -0.089 HD
ATOM      5  H   UNL     1      32.465  -8.582 -19.729  0.00  0.00    -0.089 HD
ENDBRANCH   1   2
BRANCH   1   6
ATOM      6  C   UNL     1      32.602  -6.727 -22.148  0.00  0.00    -0.024 C 
BRANCH   6   7
ATOM      7  C   UNL     1      33.416  -7.959 -22.550  0.00  0.00    -0.002 C 
BRANCH   7   8
ATOM      8  C   UNL     1      34.699  -7.562 -23.279  0.00  0.00    -0.000 C 
ATOM      9  C   UNL     1      34.398  -6.830 -24.578  0.00  0.00    -0.000 C 
ENDBRANCH   7   8
ENDBRANCH   6   7
ENDBRANCH   1   6
TORSDOF 4
ENDMDL
MODEL 8
REMARK VINA RESULT:      -3.6      1.585      2.236
REMARK  Name = 8060
REMARK  4 active torsions:
REMARK  status: ('A' for Active; 'I' for Inactive)
REMARK    1  A    between atoms: C_1  and  N_2
REMARK    2  A    between atoms: C_1  and  C_6
REMARK    3  A    between atoms: C_6  and  C_7
REMARK    4  A    between atoms: C_7  and  C_8
REMARK                            x       y       z     vdW  Elec       q    Type
REMARK                         _______ _______ _______ _____ _____    ______ ____
ROOT
ATOM      1  C   UNL     1      34.804 -17.019 -21.347  0.00  0.00    -0.086 C 
ENDROOT
BRANCH   1   2
ATOM      2  N   UNL     1      34.777 -15.742 -22.050  0.00  0.00    +0.380 N 
ATOM      3  H   UNL     1      34.747 -15.908 -23.056  0.00  0.00    -0.089 HD
ATOM      4  H   UNL     1      35.616 -15.209 -21.819  0.00  0.00    -0.089 HD
ATOM      5  H   UNL     1      33.951 -15.216 -21.766  0.00  0.00    -0.089 HD
ENDBRANCH   1   2
BRANCH   1   6
ATOM      6  C   UNL     1      35.398 -18.106 -22.243  0.00  0.00    -0.024 C 
BRANCH   6   7
ATOM      7  C   UNL     1      34.541 -19.373 -22.215  0.00  0.00    -0.002 C 
BRANCH   7   8
ATOM      8  C   UNL     1      34.367 -19.894 -20.788  0.00  0.00    -0.000 C 
ATOM      9  C   UNL     1      32.902 -20.147 -20.463  0.00  0.00    -0.000 C 
ENDBRANCH   7   8
ENDBRANCH   6   7
ENDBRANCH   1   6
TORSDOF 4
ENDMDL
MODEL 9
REMARK VINA RESULT:      -3.5      2.211      3.959
REMARK  Name = 8060
REMARK  4 active torsions:
REMARK  status: ('A' for Active; 'I' for Inactive)
REMARK    1  A    between atoms: C_1  and  N_2
REMARK    2  A    between atoms: C_1  and  C_6
REMARK    3  A    between atoms: C_6  and  C_7
REMARK    4  A    between atoms: C_7  and  C_8
REMARK                            x       y       z     vdW  Elec       q    Type
REMARK                         _______ _______ _______ _____ _____    ______ ____
ROOT
ATOM      1  C   UNL     1      34.993 -20.002 -20.683  0.00  0.00    -0.086 C 
ENDROOT
BRANCH   1   2
ATOM      2  N   UNL     1      36.294 -19.406 -20.406  0.00  0.00    +0.380 N 
ATOM      3  H   UNL     1      36.581 -18.833 -21.200  0.00  0.00    -0.089 HD
ATOM      4  H   UNL     1      36.980 -20.144 -20.253  0.00  0.00    -0.089 HD
ATOM      5  H   UNL     1      36.229 -18.823 -19.572  0.00  0.00    -0.089 HD
ENDBRANCH   1   2
BRANCH   1   6
ATOM      6  C   UNL     1      34.227 -19.157 -21.701  0.00  0.00    -0.024 C 
BRANCH   6   7
ATOM      7  C   UNL     1      34.829 -19.299 -23.101  0.00  0.00    -0.002 C 
BRANCH   7   8
ATOM      8  C   UNL     1      35.162 -17.933 -23.702  0.00  0.00    -0.000 C 
ATOM      9  C   UNL     1      34.523 -17.757 -25.072  0.00  0.00    -0.000 C 
ENDBRANCH   7   8
ENDBRANCH   6   7
ENDBRANCH   1   6
TORSDOF 4
ENDMDL
