MODEL 1
REMARK VINA RESULT:      -8.6      0.000      0.000
REMARK  Name = 444650
REMARK  9 active torsions:
REMARK  status: ('A' for Active; 'I' for Inactive)
REMARK    1  A    between atoms: N_1  and  S_3
REMARK    2  A    between atoms: N_1  and  C_13
REMARK    3  A    between atoms: S_3  and  C_6
REMARK    4  A    between atoms: C_13  and  C_15
REMARK    5  A    between atoms: C_13  and  C_18
REMARK    6  A    between atoms: C_15  and  O_16
REMARK    7  A    between atoms: C_18  and  C_20
REMARK    8  A    between atoms: C_18  and  C_23
REMARK    9  A    between atoms: C_20  and  O_21
REMARK                            x       y       z     vdW  Elec       q    Type
REMARK                         _______ _______ _______ _____ _____    ______ ____
ROOT
ATOM      1  N   UNL     1      37.842 -24.313 -15.711  0.00  0.00    -0.169 NA
ATOM      2  H   UNL     1      38.537 -24.245 -16.455  0.00  0.00    +0.149 HD
ENDROOT
BRANCH   1   3
ATOM      3  S   UNL     1      37.225 -22.748 -15.471  0.00  0.00    +0.061 S 
ATOM      4  O   UNL     1      37.656 -21.889 -16.557  0.00  0.00    -0.153 OA
ATOM      5  O   UNL     1      37.458 -22.358 -14.094  0.00  0.00    -0.153 OA
BRANCH   3   6
ATOM      6  C   UNL     1      35.486 -23.014 -15.643  0.00  0.00    +0.122 C 
ATOM      7  C   UNL     1      34.730 -23.294 -14.517  0.00  0.00    +0.020 C 
ATOM      8  C   UNL     1      34.911 -22.936 -16.900  0.00  0.00    +0.020 C 
ATOM      9  C   UNL     1      32.762 -23.430 -15.912  0.00  0.00    -0.022 C 
ATOM     10  C   UNL     1      33.358 -23.505 -14.653  0.00  0.00    -0.003 C 
ATOM     11  C   UNL     1      33.539 -23.146 -17.036  0.00  0.00    -0.003 C 
ATOM     12  C   UNL     1      31.295 -23.654 -16.058  0.00  0.00    +0.031 C 
ENDBRANCH   3   6
ENDBRANCH   1   3
BRANCH   1  13
ATOM     13  C   UNL     1      38.485 -25.034 -14.591  0.00  0.00    +0.184 C 
BRANCH  13  15
ATOM     14  O   UNL     1      40.889 -24.794 -14.270  0.00  0.00    -0.249 OA
ATOM     15  C   UNL     1      39.949 -25.191 -14.948  0.00  0.00    +0.330 C 
BRANCH  15  16
ATOM     16  O   UNL     1      40.120 -25.840 -16.129  0.00  0.00    -0.479 OA
ATOM     17  H   UNL     1      40.960 -25.849 -16.542  0.00  0.00    +0.295 HD
ENDBRANCH  15  16
ENDBRANCH  13  15
BRANCH  13  18
ATOM     18  C   UNL     1      37.819 -26.391 -14.290  0.00  0.00    +0.126 C 
BRANCH  18  20
ATOM     19  O   UNL     1      37.015 -27.466 -16.341  0.00  0.00    -0.250 OA
ATOM     20  C   UNL     1      36.780 -26.833 -15.321  0.00  0.00    +0.315 C 
BRANCH  20  21
ATOM     21  O   UNL     1      35.523 -26.443 -14.979  0.00  0.00    -0.480 OA
ATOM     22  H   UNL     1      35.375 -25.577 -14.653  0.00  0.00    +0.295 HD
ENDBRANCH  20  21
ENDBRANCH  18  20
BRANCH  18  23
ATOM     23  C   UNL     1      37.246 -26.478 -12.861  0.00  0.00    +0.013 C 
ATOM     24  C   UNL     1      37.115 -25.159 -12.113  0.00  0.00    +0.001 C 
ENDBRANCH  18  23
ENDBRANCH  13  18
ENDBRANCH   1  13
TORSDOF 9
ENDMDL
MODEL 2
REMARK VINA RESULT:      -8.5      8.037     11.026
REMARK  Name = 444650
REMARK  9 active torsions:
REMARK  status: ('A' for Active; 'I' for Inactive)
REMARK    1  A    between atoms: N_1  and  S_3
REMARK    2  A    between atoms: N_1  and  C_13
REMARK    3  A    between atoms: S_3  and  C_6
REMARK    4  A    between atoms: C_13  and  C_15
REMARK    5  A    between atoms: C_13  and  C_18
REMARK    6  A    between atoms: C_15  and  O_16
REMARK    7  A    between atoms: C_18  and  C_20
REMARK    8  A    between atoms: C_18  and  C_23
REMARK    9  A    between atoms: C_20  and  O_21
REMARK                            x       y       z     vdW  Elec       q    Type
REMARK                         _______ _______ _______ _____ _____    ______ ____
ROOT
ATOM      1  N   UNL     1      34.106 -17.613 -22.001  0.00  0.00    -0.169 NA
ATOM      2  H   UNL     1      33.787 -17.700 -21.037  0.00  0.00    +0.149 HD
ENDROOT
BRANCH   1   3
ATOM      3  S   UNL     1      35.217 -18.870 -22.268  0.00  0.00    +0.061 S 
ATOM      4  O   UNL     1      36.557 -18.398 -21.975  0.00  0.00    -0.153 OA
ATOM      5  O   UNL     1      34.925 -19.493 -23.544  0.00  0.00    -0.153 OA
BRANCH   3   6
ATOM      6  C   UNL     1      34.762 -20.030 -21.013  0.00  0.00    +0.122 C 
ATOM      7  C   UNL     1      33.430 -20.153 -20.659  0.00  0.00    +0.020 C 
ATOM      8  C   UNL     1      35.746 -20.793 -20.408  0.00  0.00    +0.020 C 
ATOM      9  C   UNL     1      34.049 -21.845 -19.049  0.00  0.00    -0.022 C 
ATOM     10  C   UNL     1      33.071 -21.067 -19.668  0.00  0.00    -0.003 C 
ATOM     11  C   UNL     1      35.388 -21.707 -19.418  0.00  0.00    -0.003 C 
ATOM     12  C   UNL     1      33.666 -22.822 -17.990  0.00  0.00    +0.031 C 
ENDBRANCH   3   6
ENDBRANCH   1   3
BRANCH   1  13
ATOM     13  C   UNL     1      34.523 -16.205 -22.187  0.00  0.00    +0.184 C 
BRANCH  13  15
ATOM     14  O   UNL     1      34.981 -14.861 -20.207  0.00  0.00    -0.249 OA
ATOM     15  C   UNL     1      34.182 -15.470 -20.907  0.00  0.00    +0.330 C 
BRANCH  15  16
ATOM     16  O   UNL     1      32.860 -15.555 -20.606  0.00  0.00    -0.479 OA
ATOM     17  H   UNL     1      32.384 -16.338 -20.803  0.00  0.00    +0.295 HD
ENDBRANCH  15  16
ENDBRANCH  13  15
BRANCH  13  18
ATOM     18  C   UNL     1      33.874 -15.545 -23.418  0.00  0.00    +0.126 C 
BRANCH  18  20
ATOM     19  O   UNL     1      33.593 -16.123 -25.784  0.00  0.00    -0.250 OA
ATOM     20  C   UNL     1      34.256 -16.177 -24.757  0.00  0.00    +0.315 C 
BRANCH  20  21
ATOM     21  O   UNL     1      35.449 -16.825 -24.694  0.00  0.00    -0.480 OA
ATOM     22  H   UNL     1      35.693 -17.282 -23.913  0.00  0.00    +0.295 HD
ENDBRANCH  20  21
ENDBRANCH  18  20
BRANCH  18  23
ATOM     23  C   UNL     1      34.072 -14.016 -23.457  0.00  0.00    +0.013 C 
ATOM     24  C   UNL     1      32.803 -13.178 -23.401  0.00  0.00    +0.001 C 
ENDBRANCH  18  23
ENDBRANCH  13  18
ENDBRANCH   1  13
TORSDOF 9
ENDMDL
MODEL 3
REMARK VINA RESULT:      -8.1      3.561      5.447
REMARK  Name = 444650
REMARK  9 active torsions:
REMARK  status: ('A' for Active; 'I' for Inactive)
REMARK    1  A    between atoms: N_1  and  S_3
REMARK    2  A    between atoms: N_1  and  C_13
REMARK    3  A    between atoms: S_3  and  C_6
REMARK    4  A    between atoms: C_13  and  C_15
REMARK    5  A    between atoms: C_13  and  C_18
REMARK    6  A    between atoms: C_15  and  O_16
REMARK    7  A    between atoms: C_18  and  C_20
REMARK    8  A    between atoms: C_18  and  C_23
REMARK    9  A    between atoms: C_20  and  O_21
REMARK                            x       y       z     vdW  Elec       q    Type
REMARK                         _______ _______ _______ _____ _____    ______ ____
ROOT
ATOM      1  N   UNL     1      34.594 -22.725 -16.723  0.00  0.00    -0.169 NA
ATOM      2  H   UNL     1      34.274 -21.921 -16.184  0.00  0.00    +0.149 HD
ENDROOT
BRANCH   1   3
ATOM      3  S   UNL     1      33.478 -22.947 -17.984  0.00  0.00    +0.061 S 
ATOM      4  O   UNL     1      32.153 -22.577 -17.524  0.00  0.00    -0.153 OA
ATOM      5  O   UNL     1      33.703 -24.246 -18.588  0.00  0.00    -0.153 OA
BRANCH   3   6
ATOM      6  C   UNL     1      34.007 -21.736 -19.157  0.00  0.00    +0.122 C 
ATOM      7  C   UNL     1      35.358 -21.601 -19.426  0.00  0.00    +0.020 C 
ATOM      8  C   UNL     1      33.060 -20.944 -19.785  0.00  0.00    +0.020 C 
ATOM      9  C   UNL     1      34.836 -19.838 -20.994  0.00  0.00    -0.022 C 
ATOM     10  C   UNL     1      35.775 -20.644 -20.351  0.00  0.00    -0.003 C 
ATOM     11  C   UNL     1      33.478 -19.987 -20.710  0.00  0.00    -0.003 C 
ATOM     12  C   UNL     1      35.282 -18.815 -21.983  0.00  0.00    +0.031 C 
ENDBRANCH   3   6
ENDBRANCH   1   3
BRANCH   1  13
ATOM     13  C   UNL     1      34.845 -23.816 -15.756  0.00  0.00    +0.184 C 
BRANCH  13  15
ATOM     14  O   UNL     1      33.176 -24.863 -14.321  0.00  0.00    -0.249 OA
ATOM     15  C   UNL     1      33.661 -23.850 -14.811  0.00  0.00    +0.330 C 
BRANCH  15  16
ATOM     16  O   UNL     1      33.179 -22.606 -14.552  0.00  0.00    -0.479 OA
ATOM     17  H   UNL     1      33.677 -21.851 -14.795  0.00  0.00    +0.295 HD
ENDBRANCH  15  16
ENDBRANCH  13  15
BRANCH  13  18
ATOM     18  C   UNL     1      36.178 -23.654 -15.000  0.00  0.00    +0.126 C 
BRANCH  18  20
ATOM     19  O   UNL     1      37.092 -21.728 -16.210  0.00  0.00    -0.250 OA
ATOM     20  C   UNL     1      37.242 -22.851 -15.749  0.00  0.00    +0.315 C 
BRANCH  20  21
ATOM     21  O   UNL     1      38.415 -23.531 -15.855  0.00  0.00    -0.480 OA
ATOM     22  H   UNL     1      38.816 -23.645 -16.694  0.00  0.00    +0.295 HD
ENDBRANCH  20  21
ENDBRANCH  18  20
BRANCH  18  23
ATOM     23  C   UNL     1      36.753 -24.993 -14.497  0.00  0.00    +0.013 C 
ATOM     24  C   UNL     1      36.345 -26.231 -15.282  0.00  0.00    +0.001 C 
ENDBRANCH  18  23
ENDBRANCH  13  18
ENDBRANCH   1  13
TORSDOF 9
ENDMDL
MODEL 4
REMARK VINA RESULT:      -7.9      2.208      3.448
REMARK  Name = 444650
REMARK  9 active torsions:
REMARK  status: ('A' for Active; 'I' for Inactive)
REMARK    1  A    between atoms: N_1  and  S_3
REMARK    2  A    between atoms: N_1  and  C_13
REMARK    3  A    between atoms: S_3  and  C_6
REMARK    4  A    between atoms: C_13  and  C_15
REMARK    5  A    between atoms: C_13  and  C_18
REMARK    6  A    between atoms: C_15  and  O_16
REMARK    7  A    between atoms: C_18  and  C_20
REMARK    8  A    between atoms: C_18  and  C_23
REMARK    9  A    between atoms: C_20  and  O_21
REMARK                            x       y       z     vdW  Elec       q    Type
REMARK                         _______ _______ _______ _____ _____    ______ ____
ROOT
ATOM      1  N   UNL     1      34.883 -24.855 -14.666  0.00  0.00    -0.169 NA
ATOM      2  H   UNL     1      34.585 -25.672 -15.200  0.00  0.00    +0.149 HD
ENDROOT
BRANCH   1   3
ATOM      3  S   UNL     1      34.493 -23.490 -15.599  0.00  0.00    +0.061 S 
ATOM      4  O   UNL     1      34.847 -23.737 -16.984  0.00  0.00    -0.153 OA
ATOM      5  O   UNL     1      34.980 -22.304 -14.922  0.00  0.00    -0.153 OA
BRANCH   3   6
ATOM      6  C   UNL     1      32.730 -23.462 -15.484  0.00  0.00    +0.122 C 
ATOM      7  C   UNL     1      31.987 -23.067 -16.583  0.00  0.00    +0.020 C 
ATOM      8  C   UNL     1      32.124 -23.835 -14.296  0.00  0.00    +0.020 C 
ATOM      9  C   UNL     1      29.968 -23.417 -15.303  0.00  0.00    -0.022 C 
ATOM     10  C   UNL     1      30.595 -23.044 -16.492  0.00  0.00    -0.003 C 
ATOM     11  C   UNL     1      30.732 -23.811 -14.204  0.00  0.00    -0.003 C 
ATOM     12  C   UNL     1      28.480 -23.392 -15.205  0.00  0.00    +0.031 C 
ENDBRANCH   3   6
ENDBRANCH   1   3
BRANCH   1  13
ATOM     13  C   UNL     1      36.285 -25.098 -14.261  0.00  0.00    +0.184 C 
BRANCH  13  15
ATOM     14  O   UNL     1      36.208 -27.062 -15.701  0.00  0.00    -0.249 OA
ATOM     15  C   UNL     1      36.846 -26.140 -15.208  0.00  0.00    +0.330 C 
BRANCH  15  16
ATOM     16  O   UNL     1      38.164 -25.938 -15.466  0.00  0.00    -0.479 OA
ATOM     17  H   UNL     1      38.795 -26.024 -14.779  0.00  0.00    +0.295 HD
ENDBRANCH  15  16
ENDBRANCH  13  15
BRANCH  13  18
ATOM     18  C   UNL     1      36.417 -25.532 -12.788  0.00  0.00    +0.126 C 
BRANCH  18  20
ATOM     19  O   UNL     1      35.211 -25.075 -10.704  0.00  0.00    -0.250 OA
ATOM     20  C   UNL     1      35.597 -24.699 -11.802  0.00  0.00    +0.315 C 
BRANCH  20  21
ATOM     21  O   UNL     1      35.333 -23.454 -12.281  0.00  0.00    -0.480 OA
ATOM     22  H   UNL     1      34.496 -23.062 -12.128  0.00  0.00    +0.295 HD
ENDBRANCH  20  21
ENDBRANCH  18  20
BRANCH  18  23
ATOM     23  C   UNL     1      37.883 -25.648 -12.322  0.00  0.00    +0.013 C 
ATOM     24  C   UNL     1      38.652 -24.340 -12.210  0.00  0.00    +0.001 C 
ENDBRANCH  18  23
ENDBRANCH  13  18
ENDBRANCH   1  13
TORSDOF 9
ENDMDL
MODEL 5
REMARK VINA RESULT:      -7.8      3.720      5.460
REMARK  Name = 444650
REMARK  9 active torsions:
REMARK  status: ('A' for Active; 'I' for Inactive)
REMARK    1  A    between atoms: N_1  and  S_3
REMARK    2  A    between atoms: N_1  and  C_13
REMARK    3  A    between atoms: S_3  and  C_6
REMARK    4  A    between atoms: C_13  and  C_15
REMARK    5  A    between atoms: C_13  and  C_18
REMARK    6  A    between atoms: C_15  and  O_16
REMARK    7  A    between atoms: C_18  and  C_20
REMARK    8  A    between atoms: C_18  and  C_23
REMARK    9  A    between atoms: C_20  and  O_21
REMARK                            x       y       z     vdW  Elec       q    Type
REMARK                         _______ _______ _______ _____ _____    ______ ____
ROOT
ATOM      1  N   UNL     1      34.594 -22.796 -17.001  0.00  0.00    -0.169 NA
ATOM      2  H   UNL     1      34.266 -22.013 -16.437  0.00  0.00    +0.149 HD
ENDROOT
BRANCH   1   3
ATOM      3  S   UNL     1      33.597 -22.863 -18.376  0.00  0.00    +0.061 S 
ATOM      4  O   UNL     1      32.253 -22.454 -18.016  0.00  0.00    -0.153 OA
ATOM      5  O   UNL     1      33.819 -24.124 -19.056  0.00  0.00    -0.153 OA
BRANCH   3   6
ATOM      6  C   UNL     1      34.297 -21.599 -19.394  0.00  0.00    +0.122 C 
ATOM      7  C   UNL     1      33.456 -20.774 -20.121  0.00  0.00    +0.020 C 
ATOM      8  C   UNL     1      35.673 -21.457 -19.446  0.00  0.00    +0.020 C 
ATOM      9  C   UNL     1      35.392 -19.619 -20.989  0.00  0.00    -0.022 C 
ATOM     10  C   UNL     1      34.008 -19.777 -20.925  0.00  0.00    -0.003 C 
ATOM     11  C   UNL     1      36.226 -20.460 -20.251  0.00  0.00    -0.003 C 
ATOM     12  C   UNL     1      35.983 -18.553 -21.849  0.00  0.00    +0.031 C 
ENDBRANCH   3   6
ENDBRANCH   1   3
BRANCH   1  13
ATOM     13  C   UNL     1      34.686 -23.965 -16.098  0.00  0.00    +0.184 C 
BRANCH  13  15
ATOM     14  O   UNL     1      33.348 -24.562 -14.150  0.00  0.00    -0.249 OA
ATOM     15  C   UNL     1      33.720 -23.718 -14.956  0.00  0.00    +0.330 C 
BRANCH  15  16
ATOM     16  O   UNL     1      33.299 -22.426 -14.914  0.00  0.00    -0.479 OA
ATOM     17  H   UNL     1      33.118 -22.020 -14.090  0.00  0.00    +0.295 HD
ENDBRANCH  15  16
ENDBRANCH  13  15
BRANCH  13  18
ATOM     18  C   UNL     1      36.119 -24.220 -15.592  0.00  0.00    +0.126 C 
BRANCH  18  20
ATOM     19  O   UNL     1      36.762 -25.260 -13.467  0.00  0.00    -0.250 OA
ATOM     20  C   UNL     1      36.242 -25.352 -14.571  0.00  0.00    +0.315 C 
BRANCH  20  21
ATOM     21  O   UNL     1      35.695 -26.511 -15.024  0.00  0.00    -0.480 OA
ATOM     22  H   UNL     1      35.016 -26.487 -15.670  0.00  0.00    +0.295 HD
ENDBRANCH  20  21
ENDBRANCH  18  20
BRANCH  18  23
ATOM     23  C   UNL     1      36.815 -22.942 -15.081  0.00  0.00    +0.013 C 
ATOM     24  C   UNL     1      37.569 -22.132 -16.125  0.00  0.00    +0.001 C 
ENDBRANCH  18  23
ENDBRANCH  13  18
ENDBRANCH   1  13
TORSDOF 9
ENDMDL
MODEL 6
REMARK VINA RESULT:      -7.7      9.716     12.704
REMARK  Name = 444650
REMARK  9 active torsions:
REMARK  status: ('A' for Active; 'I' for Inactive)
REMARK    1  A    between atoms: N_1  and  S_3
REMARK    2  A    between atoms: N_1  and  C_13
REMARK    3  A    between atoms: S_3  and  C_6
REMARK    4  A    between atoms: C_13  and  C_15
REMARK    5  A    between atoms: C_13  and  C_18
REMARK    6  A    between atoms: C_15  and  O_16
REMARK    7  A    between atoms: C_18  and  C_20
REMARK    8  A    between atoms: C_18  and  C_23
REMARK    9  A    between atoms: C_20  and  O_21
REMARK                            x       y       z     vdW  Elec       q    Type
REMARK                         _______ _______ _______ _____ _____    ______ ____
ROOT
ATOM      1  N   UNL     1      34.716 -15.804 -23.066  0.00  0.00    -0.169 NA
ATOM      2  H   UNL     1      35.371 -16.567 -23.234  0.00  0.00    +0.149 HD
ENDROOT
BRANCH   1   3
ATOM      3  S   UNL     1      34.117 -16.008 -21.490  0.00  0.00    +0.061 S 
ATOM      4  O   UNL     1      32.669 -15.928 -21.511  0.00  0.00    -0.153 OA
ATOM      5  O   UNL     1      34.880 -15.171 -20.585  0.00  0.00    -0.153 OA
BRANCH   3   6
ATOM      6  C   UNL     1      34.565 -17.682 -21.144  0.00  0.00    +0.122 C 
ATOM      7  C   UNL     1      33.569 -18.615 -20.914  0.00  0.00    +0.020 C 
ATOM      8  C   UNL     1      35.905 -18.030 -21.108  0.00  0.00    +0.020 C 
ATOM      9  C   UNL     1      35.268 -20.305 -20.601  0.00  0.00    -0.022 C 
ATOM     10  C   UNL     1      33.923 -19.936 -20.640  0.00  0.00    -0.003 C 
ATOM     11  C   UNL     1      36.259 -19.351 -20.834  0.00  0.00    -0.003 C 
ATOM     12  C   UNL     1      35.646 -21.717 -20.309  0.00  0.00    +0.031 C 
ENDBRANCH   3   6
ENDBRANCH   1   3
BRANCH   1  13
ATOM     13  C   UNL     1      33.783 -15.782 -24.215  0.00  0.00    +0.184 C 
BRANCH  13  15
ATOM     14  O   UNL     1      33.700 -17.869 -25.470  0.00  0.00    -0.249 OA
ATOM     15  C   UNL     1      34.274 -16.820 -25.203  0.00  0.00    +0.330 C 
BRANCH  15  16
ATOM     16  O   UNL     1      35.448 -16.458 -25.783  0.00  0.00    -0.479 OA
ATOM     17  H   UNL     1      35.450 -16.081 -26.641  0.00  0.00    +0.295 HD
ENDBRANCH  15  16
ENDBRANCH  13  15
BRANCH  13  18
ATOM     18  C   UNL     1      33.659 -14.388 -24.860  0.00  0.00    +0.126 C 
BRANCH  18  20
ATOM     19  O   UNL     1      33.793 -12.198 -23.768  0.00  0.00    -0.250 OA
ATOM     20  C   UNL     1      33.232 -13.277 -23.901  0.00  0.00    +0.315 C 
BRANCH  20  21
ATOM     21  O   UNL     1      32.126 -13.615 -23.187  0.00  0.00    -0.480 OA
ATOM     22  H   UNL     1      31.285 -13.288 -23.443  0.00  0.00    +0.295 HD
ENDBRANCH  20  21
ENDBRANCH  18  20
BRANCH  18  23
ATOM     23  C   UNL     1      32.782 -14.386 -26.128  0.00  0.00    +0.013 C 
ATOM     24  C   UNL     1      33.140 -13.352 -27.186  0.00  0.00    +0.001 C 
ENDBRANCH  18  23
ENDBRANCH  13  18
ENDBRANCH   1  13
TORSDOF 9
ENDMDL
MODEL 7
REMARK VINA RESULT:      -7.4      8.292     11.267
REMARK  Name = 444650
REMARK  9 active torsions:
REMARK  status: ('A' for Active; 'I' for Inactive)
REMARK    1  A    between atoms: N_1  and  S_3
REMARK    2  A    between atoms: N_1  and  C_13
REMARK    3  A    between atoms: S_3  and  C_6
REMARK    4  A    between atoms: C_13  and  C_15
REMARK    5  A    between atoms: C_13  and  C_18
REMARK    6  A    between atoms: C_15  and  O_16
REMARK    7  A    between atoms: C_18  and  C_20
REMARK    8  A    between atoms: C_18  and  C_23
REMARK    9  A    between atoms: C_20  and  O_21
REMARK                            x       y       z     vdW  Elec       q    Type
REMARK                         _______ _______ _______ _____ _____    ______ ____
ROOT
ATOM      1  N   UNL     1      34.477 -17.268 -22.030  0.00  0.00    -0.169 NA
ATOM      2  H   UNL     1      35.130 -16.600 -21.621  0.00  0.00    +0.149 HD
ENDROOT
BRANCH   1   3
ATOM      3  S   UNL     1      35.368 -18.671 -22.385  0.00  0.00    +0.061 S 
ATOM      4  O   UNL     1      36.772 -18.432 -22.112  0.00  0.00    -0.153 OA
ATOM      5  O   UNL     1      34.952 -19.176 -23.680  0.00  0.00    -0.153 OA
BRANCH   3   6
ATOM      6  C   UNL     1      34.761 -19.804 -21.172  0.00  0.00    +0.122 C 
ATOM      7  C   UNL     1      33.401 -19.858 -20.917  0.00  0.00    +0.020 C 
ATOM      8  C   UNL     1      35.657 -20.617 -20.498  0.00  0.00    +0.020 C 
ATOM      9  C   UNL     1      33.811 -21.578 -19.271  0.00  0.00    -0.022 C 
ATOM     10  C   UNL     1      32.923 -20.751 -19.959  0.00  0.00    -0.003 C 
ATOM     11  C   UNL     1      35.179 -21.510 -19.539  0.00  0.00    -0.003 C 
ATOM     12  C   UNL     1      33.300 -22.534 -18.247  0.00  0.00    +0.031 C 
ENDBRANCH   3   6
ENDBRANCH   1   3
BRANCH   1  13
ATOM     13  C   UNL     1      33.757 -16.557 -23.109  0.00  0.00    +0.184 C 
BRANCH  13  15
ATOM     14  O   UNL     1      34.467 -16.593 -25.440  0.00  0.00    -0.249 OA
ATOM     15  C   UNL     1      34.730 -16.398 -24.260  0.00  0.00    +0.330 C 
BRANCH  15  16
ATOM     16  O   UNL     1      35.959 -16.002 -23.838  0.00  0.00    -0.479 OA
ATOM     17  H   UNL     1      36.120 -15.100 -23.643  0.00  0.00    +0.295 HD
ENDBRANCH  15  16
ENDBRANCH  13  15
BRANCH  13  18
ATOM     18  C   UNL     1      33.181 -15.202 -22.654  0.00  0.00    +0.126 C 
BRANCH  18  20
ATOM     19  O   UNL     1      32.635 -13.887 -24.649  0.00  0.00    -0.250 OA
ATOM     20  C   UNL     1      33.342 -14.068 -23.667  0.00  0.00    +0.315 C 
BRANCH  20  21
ATOM     21  O   UNL     1      34.382 -13.249 -23.357  0.00  0.00    -0.480 OA
ATOM     22  H   UNL     1      34.225 -12.346 -23.164  0.00  0.00    +0.295 HD
ENDBRANCH  20  21
ENDBRANCH  18  20
BRANCH  18  23
ATOM     23  C   UNL     1      33.685 -14.769 -21.262  0.00  0.00    +0.013 C 
ATOM     24  C   UNL     1      32.649 -14.774 -20.147  0.00  0.00    +0.001 C 
ENDBRANCH  18  23
ENDBRANCH  13  18
ENDBRANCH   1  13
TORSDOF 9
ENDMDL
MODEL 8
REMARK VINA RESULT:      -7.4     11.817     14.029
REMARK  Name = 444650
REMARK  9 active torsions:
REMARK  status: ('A' for Active; 'I' for Inactive)
REMARK    1  A    between atoms: N_1  and  S_3
REMARK    2  A    between atoms: N_1  and  C_13
REMARK    3  A    between atoms: S_3  and  C_6
REMARK    4  A    between atoms: C_13  and  C_15
REMARK    5  A    between atoms: C_13  and  C_18
REMARK    6  A    between atoms: C_15  and  O_16
REMARK    7  A    between atoms: C_18  and  C_20
REMARK    8  A    between atoms: C_18  and  C_23
REMARK    9  A    between atoms: C_20  and  O_21
REMARK                            x       y       z     vdW  Elec       q    Type
REMARK                         _______ _______ _______ _____ _____    ______ ____
ROOT
ATOM      1  N   UNL     1      34.335 -14.293 -23.204  0.00  0.00    -0.169 NA
ATOM      2  H   UNL     1      34.700 -13.568 -22.587  0.00  0.00    +0.149 HD
ENDROOT
BRANCH   1   3
ATOM      3  S   UNL     1      33.124 -13.569 -24.151  0.00  0.00    +0.061 S 
ATOM      4  O   UNL     1      31.840 -13.733 -23.498  0.00  0.00    -0.153 OA
ATOM      5  O   UNL     1      33.299 -13.980 -25.531  0.00  0.00    -0.153 OA
BRANCH   3   6
ATOM      6  C   UNL     1      33.567 -11.860 -24.063  0.00  0.00    +0.122 C 
ATOM      7  C   UNL     1      34.585 -11.384 -24.871  0.00  0.00    +0.020 C 
ATOM      8  C   UNL     1      32.888 -11.030 -23.187  0.00  0.00    +0.020 C 
ATOM      9  C   UNL     1      34.261  -9.184 -23.925  0.00  0.00    -0.022 C 
ATOM     10  C   UNL     1      34.935 -10.035 -24.801  0.00  0.00    -0.003 C 
ATOM     11  C   UNL     1      33.238  -9.682 -23.117  0.00  0.00    -0.003 C 
ATOM     12  C   UNL     1      34.635  -7.742 -23.850  0.00  0.00    +0.031 C 
ENDBRANCH   3   6
ENDBRANCH   1   3
BRANCH   1  13
ATOM     13  C   UNL     1      34.007 -15.456 -22.349  0.00  0.00    +0.184 C 
BRANCH  13  15
ATOM     14  O   UNL     1      35.039 -14.886 -20.215  0.00  0.00    -0.249 OA
ATOM     15  C   UNL     1      34.036 -14.970 -20.913  0.00  0.00    +0.330 C 
BRANCH  15  16
ATOM     16  O   UNL     1      32.800 -14.623 -20.467  0.00  0.00    -0.479 OA
ATOM     17  H   UNL     1      32.077 -15.206 -20.590  0.00  0.00    +0.295 HD
ENDBRANCH  15  16
ENDBRANCH  13  15
BRANCH  13  18
ATOM     18  C   UNL     1      34.957 -16.649 -22.569  0.00  0.00    +0.126 C 
BRANCH  18  20
ATOM     19  O   UNL     1      34.497 -18.411 -24.210  0.00  0.00    -0.250 OA
ATOM     20  C   UNL     1      34.880 -17.276 -23.962  0.00  0.00    +0.315 C 
BRANCH  20  21
ATOM     21  O   UNL     1      35.290 -16.417 -24.932  0.00  0.00    -0.480 OA
ATOM     22  H   UNL     1      35.267 -16.681 -25.831  0.00  0.00    +0.295 HD
ENDBRANCH  20  21
ENDBRANCH  18  20
BRANCH  18  23
ATOM     23  C   UNL     1      34.836 -17.728 -21.474  0.00  0.00    +0.013 C 
ATOM     24  C   UNL     1      36.087 -18.552 -21.208  0.00  0.00    +0.001 C 
ENDBRANCH  18  23
ENDBRANCH  13  18
ENDBRANCH   1  13
TORSDOF 9
ENDMDL
MODEL 9
REMARK VINA RESULT:      -7.3      3.250      5.174
REMARK  Name = 444650
REMARK  9 active torsions:
REMARK  status: ('A' for Active; 'I' for Inactive)
REMARK    1  A    between atoms: N_1  and  S_3
REMARK    2  A    between atoms: N_1  and  C_13
REMARK    3  A    between atoms: S_3  and  C_6
REMARK    4  A    between atoms: C_13  and  C_15
REMARK    5  A    between atoms: C_13  and  C_18
REMARK    6  A    between atoms: C_15  and  O_16
REMARK    7  A    between atoms: C_18  and  C_20
REMARK    8  A    between atoms: C_18  and  C_23
REMARK    9  A    between atoms: C_20  and  O_21
REMARK                            x       y       z     vdW  Elec       q    Type
REMARK                         _______ _______ _______ _____ _____    ______ ____
ROOT
ATOM      1  N   UNL     1      34.831 -22.463 -16.213  0.00  0.00    -0.169 NA
ATOM      2  H   UNL     1      35.079 -21.624 -15.689  0.00  0.00    +0.149 HD
ENDROOT
BRANCH   1   3
ATOM      3  S   UNL     1      34.793 -23.745 -15.099  0.00  0.00    +0.061 S 
ATOM      4  O   UNL     1      35.243 -23.271 -13.804  0.00  0.00    -0.153 OA
ATOM      5  O   UNL     1      35.408 -24.911 -15.704  0.00  0.00    -0.153 OA
BRANCH   3   6
ATOM      6  C   UNL     1      33.061 -24.077 -14.986  0.00  0.00    +0.122 C 
ATOM      7  C   UNL     1      32.210 -23.565 -15.951  0.00  0.00    +0.020 C 
ATOM      8  C   UNL     1      32.586 -24.842 -13.934  0.00  0.00    +0.020 C 
ATOM      9  C   UNL     1      30.347 -24.595 -14.809  0.00  0.00    -0.022 C 
ATOM     10  C   UNL     1      30.843 -23.826 -15.861  0.00  0.00    -0.003 C 
ATOM     11  C   UNL     1      31.218 -25.103 -13.844  0.00  0.00    -0.003 C 
ATOM     12  C   UNL     1      28.885 -24.875 -14.712  0.00  0.00    +0.031 C 
ENDBRANCH   3   6
ENDBRANCH   1   3
BRANCH   1  13
ATOM     13  C   UNL     1      35.742 -22.523 -17.378  0.00  0.00    +0.184 C 
BRANCH  13  15
ATOM     14  O   UNL     1      37.348 -20.723 -17.028  0.00  0.00    -0.249 OA
ATOM     15  C   UNL     1      37.058 -21.910 -16.942  0.00  0.00    +0.330 C 
BRANCH  15  16
ATOM     16  O   UNL     1      37.907 -22.837 -16.426  0.00  0.00    -0.479 OA
ATOM     17  H   UNL     1      37.686 -23.284 -15.633  0.00  0.00    +0.295 HD
ENDBRANCH  15  16
ENDBRANCH  13  15
BRANCH  13  18
ATOM     18  C   UNL     1      35.169 -21.822 -18.625  0.00  0.00    +0.126 C 
BRANCH  18  20
ATOM     19  O   UNL     1      32.959 -21.826 -19.685  0.00  0.00    -0.250 OA
ATOM     20  C   UNL     1      33.882 -22.442 -19.169  0.00  0.00    +0.315 C 
BRANCH  20  21
ATOM     21  O   UNL     1      33.863 -23.793 -19.021  0.00  0.00    -0.480 OA
ATOM     22  H   UNL     1      34.437 -24.328 -19.533  0.00  0.00    +0.295 HD
ENDBRANCH  20  21
ENDBRANCH  18  20
BRANCH  18  23
ATOM     23  C   UNL     1      36.209 -21.642 -19.748  0.00  0.00    +0.013 C 
ATOM     24  C   UNL     1      36.273 -20.260 -20.383  0.00  0.00    +0.001 C 
ENDBRANCH  18  23
ENDBRANCH  13  18
ENDBRANCH   1  13
TORSDOF 9
ENDMDL
