MODEL 1
REMARK VINA RESULT:      -8.5      0.000      0.000
REMARK  Name = 51352361
REMARK  3 active torsions:
REMARK  status: ('A' for Active; 'I' for Inactive)
REMARK    1  A    between atoms: C_2  and  C_14
REMARK    2  A    between atoms: C_5  and  N_22
REMARK    3  A    between atoms: C_23  and  C_27
REMARK                            x       y       z     vdW  Elec       q    Type
REMARK                         _______ _______ _______ _____ _____    ______ ____
ROOT
ATOM      1  F   UNL     1      33.612  -6.992 -24.188  0.00  0.00    -0.204 F 
ATOM      2  C   UNL     1      32.823  -9.179 -23.706  0.00  0.00    +0.028 C 
ATOM      3  C   UNL     1      33.010 -10.560 -23.769  0.00  0.00    +0.014 C 
ATOM      4  C   UNL     1      33.781  -8.321 -24.244  0.00  0.00    +0.138 C 
ATOM      5  C   UNL     1      34.154 -11.083 -24.371  0.00  0.00    +0.050 C 
ATOM      6  C   UNL     1      34.926  -8.843 -24.847  0.00  0.00    +0.031 C 
ATOM      7  C   UNL     1      35.112 -10.224 -24.909  0.00  0.00    +0.017 C 
ENDROOT
BRANCH   2  14
ATOM      8  S   UNL     1      32.783  -7.890 -20.674  0.00  0.00    +0.061 S 
ATOM      9  O   UNL     1      32.564  -6.872 -19.663  0.00  0.00    -0.154 OA
ATOM     10  O   UNL     1      34.128  -8.246 -21.082  0.00  0.00    -0.154 OA
ATOM     11  N   UNL     1      31.928  -9.316 -20.232  0.00  0.00    -0.165 N 
ATOM     12  N   UNL     1      30.760  -9.619 -22.335  0.00  0.00    -0.240 NA
ATOM     13  N   UNL     1      30.208 -10.936 -20.514  0.00  0.00    -0.330 N 
ATOM     14  C   UNL     1      31.562  -8.607 -23.041  0.00  0.00    +0.132 C 
ATOM     15  C   UNL     1      31.839  -7.421 -22.105  0.00  0.00    +0.199 C 
ATOM     16  C   UNL     1      30.633  -8.104 -24.173  0.00  0.00    +0.031 C 
ATOM     17  C   UNL     1      30.953  -9.943 -21.099  0.00  0.00    +0.197 C 
ATOM     18  C   UNL     1      32.282  -9.849 -18.882  0.00  0.00    +0.142 C 
ATOM     19  H   UNL     1      30.363 -11.175 -19.571  0.00  0.00    +0.145 HD
ATOM     20  H   UNL     1      29.521 -11.409 -21.034  0.00  0.00    +0.145 HD
ENDBRANCH   2  14
BRANCH   5  22
ATOM     21  O   UNL     1      33.101 -13.261 -22.602  0.00  0.00    -0.268 OA
ATOM     22  N   UNL     1      34.341 -12.464 -24.433  0.00  0.00    -0.279 N 
ATOM     23  C   UNL     1      33.823 -13.444 -23.575  0.00  0.00    +0.267 C 
ATOM     24  H   UNL     1      34.907 -12.790 -25.170  0.00  0.00    +0.155 HD
BRANCH  23  27
ATOM     25  F   UNL     1      35.254 -18.686 -24.711  0.00  0.00    -0.203 F 
ATOM     26  N   UNL     1      34.983 -15.480 -23.036  0.00  0.00    -0.237 NA
ATOM     27  C   UNL     1      34.181 -14.845 -23.920  0.00  0.00    +0.135 C 
ATOM     28  C   UNL     1      33.699 -15.422 -25.084  0.00  0.00    +0.026 C 
ATOM     29  C   UNL     1      34.063 -16.736 -25.358  0.00  0.00    +0.033 C 
ATOM     30  C   UNL     1      35.316 -16.755 -23.336  0.00  0.00    +0.129 C 
ATOM     31  C   UNL     1      34.887 -17.421 -24.473  0.00  0.00    +0.159 C 
ENDBRANCH  23  27
ENDBRANCH   5  22
TORSDOF 3
ENDMDL
MODEL 2
REMARK VINA RESULT:      -8.4     13.940     16.292
REMARK  Name = 51352361
REMARK  3 active torsions:
REMARK  status: ('A' for Active; 'I' for Inactive)
REMARK    1  A    between atoms: C_2  and  C_14
REMARK    2  A    between atoms: C_5  and  N_22
REMARK    3  A    between atoms: C_23  and  C_27
REMARK                            x       y       z     vdW  Elec       q    Type
REMARK                         _______ _______ _______ _____ _____    ______ ____
ROOT
ATOM      1  F   UNL     1      38.652 -23.148 -15.638  0.00  0.00    -0.204 F 
ATOM      2  C   UNL     1      36.593 -24.194 -15.089  0.00  0.00    +0.028 C 
ATOM      3  C   UNL     1      35.213 -24.293 -15.274  0.00  0.00    +0.014 C 
ATOM      4  C   UNL     1      37.326 -23.251 -15.808  0.00  0.00    +0.138 C 
ATOM      5  C   UNL     1      34.568 -23.447 -16.176  0.00  0.00    +0.050 C 
ATOM      6  C   UNL     1      36.681 -22.404 -16.710  0.00  0.00    +0.031 C 
ATOM      7  C   UNL     1      35.302 -22.504 -16.895  0.00  0.00    +0.017 C 
ENDROOT
BRANCH   2  14
ATOM      8  S   UNL     1      35.658 -24.564 -11.952  0.00  0.00    +0.061 S 
ATOM      9  O   UNL     1      35.215 -25.281 -10.771  0.00  0.00    -0.154 OA
ATOM     10  O   UNL     1      34.742 -23.709 -12.681  0.00  0.00    -0.154 OA
ATOM     11  N   UNL     1      37.082 -23.676 -11.571  0.00  0.00    -0.165 N 
ATOM     12  N   UNL     1      38.436 -24.498 -13.406  0.00  0.00    -0.240 NA
ATOM     13  N   UNL     1      39.411 -23.222 -11.739  0.00  0.00    -0.330 N 
ATOM     14  C   UNL     1      37.300 -25.128 -14.096  0.00  0.00    +0.132 C 
ATOM     15  C   UNL     1      36.356 -25.762 -13.063  0.00  0.00    +0.199 C 
ATOM     16  C   UNL     1      37.937 -26.275 -14.916  0.00  0.00    +0.031 C 
ATOM     17  C   UNL     1      38.320 -23.834 -12.304  0.00  0.00    +0.197 C 
ATOM     18  C   UNL     1      36.926 -22.731 -10.425  0.00  0.00    +0.142 C 
ATOM     19  H   UNL     1      39.312 -22.718 -10.898  0.00  0.00    +0.145 HD
ATOM     20  H   UNL     1      40.292 -23.285 -12.173  0.00  0.00    +0.145 HD
ENDBRANCH   2  14
BRANCH   5  22
ATOM     21  O   UNL     1      32.315 -22.941 -14.265  0.00  0.00    -0.268 OA
ATOM     22  N   UNL     1      33.189 -23.547 -16.361  0.00  0.00    -0.279 N 
ATOM     23  C   UNL     1      32.172 -23.298 -15.429  0.00  0.00    +0.267 C 
ATOM     24  H   UNL     1      32.893 -23.829 -17.257  0.00  0.00    +0.155 HD
BRANCH  23  27
ATOM     25  F   UNL     1      27.006 -23.765 -17.404  0.00  0.00    -0.203 F 
ATOM     26  N   UNL     1      30.297 -22.433 -16.659  0.00  0.00    -0.237 NA
ATOM     27  C   UNL     1      30.786 -23.466 -15.938  0.00  0.00    +0.135 C 
ATOM     28  C   UNL     1      30.079 -24.626 -15.664  0.00  0.00    +0.026 C 
ATOM     29  C   UNL     1      28.785 -24.733 -16.164  0.00  0.00    +0.033 C 
ATOM     30  C   UNL     1      29.037 -22.573 -17.128  0.00  0.00    +0.129 C 
ATOM     31  C   UNL     1      28.247 -23.690 -16.910  0.00  0.00    +0.159 C 
ENDBRANCH  23  27
ENDBRANCH   5  22
TORSDOF 3
ENDMDL
MODEL 3
REMARK VINA RESULT:      -7.8     11.051     14.652
REMARK  Name = 51352361
REMARK  3 active torsions:
REMARK  status: ('A' for Active; 'I' for Inactive)
REMARK    1  A    between atoms: C_2  and  C_14
REMARK    2  A    between atoms: C_5  and  N_22
REMARK    3  A    between atoms: C_23  and  C_27
REMARK                            x       y       z     vdW  Elec       q    Type
REMARK                         _______ _______ _______ _____ _____    ______ ____
ROOT
ATOM      1  F   UNL     1      32.883 -25.372 -12.954  0.00  0.00    -0.204 F 
ATOM      2  C   UNL     1      32.292 -23.627 -14.451  0.00  0.00    +0.028 C 
ATOM      3  C   UNL     1      32.614 -22.835 -15.554  0.00  0.00    +0.014 C 
ATOM      4  C   UNL     1      33.183 -24.606 -14.013  0.00  0.00    +0.138 C 
ATOM      5  C   UNL     1      33.827 -23.023 -16.218  0.00  0.00    +0.050 C 
ATOM      6  C   UNL     1      34.396 -24.794 -14.676  0.00  0.00    +0.031 C 
ATOM      7  C   UNL     1      34.717 -24.002 -15.779  0.00  0.00    +0.017 C 
ENDROOT
BRANCH   2  14
ATOM      8  S   UNL     1      29.627 -25.494 -14.961  0.00  0.00    +0.061 S 
ATOM      9  O   UNL     1      28.537 -26.384 -14.605  0.00  0.00    -0.154 OA
ATOM     10  O   UNL     1      30.771 -25.991 -15.698  0.00  0.00    -0.154 OA
ATOM     11  N   UNL     1      28.988 -24.114 -15.766  0.00  0.00    -0.165 N 
ATOM     12  N   UNL     1      30.074 -22.444 -14.385  0.00  0.00    -0.240 NA
ATOM     13  N   UNL     1      28.472 -21.798 -15.926  0.00  0.00    -0.330 N 
ATOM     14  C   UNL     1      30.956 -23.418 -13.724  0.00  0.00    +0.132 C 
ATOM     15  C   UNL     1      30.184 -24.720 -13.462  0.00  0.00    +0.199 C 
ATOM     16  C   UNL     1      31.274 -22.777 -12.351  0.00  0.00    +0.031 C 
ATOM     17  C   UNL     1      29.228 -22.763 -15.308  0.00  0.00    +0.197 C 
ATOM     18  C   UNL     1      28.171 -24.435 -16.974  0.00  0.00    +0.142 C 
ATOM     19  H   UNL     1      27.830 -22.051 -16.628  0.00  0.00    +0.145 HD
ATOM     20  H   UNL     1      28.572 -20.853 -15.669  0.00  0.00    +0.145 HD
ENDBRANCH   2  14
BRANCH   5  22
ATOM     21  O   UNL     1      33.724 -23.652 -19.147  0.00  0.00    -0.268 OA
ATOM     22  N   UNL     1      34.147 -22.232 -17.321  0.00  0.00    -0.279 N 
ATOM     23  C   UNL     1      34.082 -22.577 -18.678  0.00  0.00    +0.267 C 
ATOM     24  H   UNL     1      34.459 -21.320 -17.122  0.00  0.00    +0.155 HD
BRANCH  23  27
ATOM     25  F   UNL     1      35.688 -18.598 -22.200  0.00  0.00    -0.203 F 
ATOM     26  N   UNL     1      35.794 -21.341 -19.829  0.00  0.00    -0.237 NA
ATOM     27  C   UNL     1      34.466 -21.500 -19.629  0.00  0.00    +0.135 C 
ATOM     28  C   UNL     1      33.491 -20.734 -20.246  0.00  0.00    +0.026 C 
ATOM     29  C   UNL     1      33.904 -19.741 -21.127  0.00  0.00    +0.033 C 
ATOM     30  C   UNL     1      36.157 -20.365 -20.690  0.00  0.00    +0.129 C 
ATOM     31  C   UNL     1      35.261 -19.546 -21.358  0.00  0.00    +0.159 C 
ENDBRANCH  23  27
ENDBRANCH   5  22
TORSDOF 3
ENDMDL
MODEL 4
REMARK VINA RESULT:      -7.7     11.417     15.580
REMARK  Name = 51352361
REMARK  3 active torsions:
REMARK  status: ('A' for Active; 'I' for Inactive)
REMARK    1  A    between atoms: C_2  and  C_14
REMARK    2  A    between atoms: C_5  and  N_22
REMARK    3  A    between atoms: C_23  and  C_27
REMARK                            x       y       z     vdW  Elec       q    Type
REMARK                         _______ _______ _______ _____ _____    ______ ____
ROOT
ATOM      1  F   UNL     1      33.466 -25.153 -12.364  0.00  0.00    -0.204 F 
ATOM      2  C   UNL     1      34.790 -23.844 -13.836  0.00  0.00    +0.028 C 
ATOM      3  C   UNL     1      34.894 -23.103 -15.013  0.00  0.00    +0.014 C 
ATOM      4  C   UNL     1      33.577 -24.440 -13.493  0.00  0.00    +0.138 C 
ATOM      5  C   UNL     1      33.786 -22.958 -15.848  0.00  0.00    +0.050 C 
ATOM      6  C   UNL     1      32.468 -24.295 -14.327  0.00  0.00    +0.031 C 
ATOM      7  C   UNL     1      32.573 -23.554 -15.504  0.00  0.00    +0.017 C 
ENDROOT
BRANCH   2  14
ATOM      8  S   UNL     1      37.860 -24.283 -14.949  0.00  0.00    +0.061 S 
ATOM      9  O   UNL     1      39.271 -23.988 -15.113  0.00  0.00    -0.154 OA
ATOM     10  O   UNL     1      36.929 -24.054 -16.036  0.00  0.00    -0.154 OA
ATOM     11  N   UNL     1      37.684 -25.897 -14.381  0.00  0.00    -0.165 N 
ATOM     12  N   UNL     1      36.253 -25.387 -12.492  0.00  0.00    -0.240 NA
ATOM     13  N   UNL     1      37.111 -27.522 -12.741  0.00  0.00    -0.330 N 
ATOM     14  C   UNL     1      36.013 -24.000 -12.920  0.00  0.00    +0.132 C 
ATOM     15  C   UNL     1      37.304 -23.409 -13.505  0.00  0.00    +0.199 C 
ATOM     16  C   UNL     1      35.703 -23.242 -11.606  0.00  0.00    +0.031 C 
ATOM     17  C   UNL     1      36.971 -26.225 -13.165  0.00  0.00    +0.197 C 
ATOM     18  C   UNL     1      38.325 -26.926 -15.254  0.00  0.00    +0.142 C 
ATOM     19  H   UNL     1      37.660 -28.153 -13.261  0.00  0.00    +0.145 HD
ATOM     20  H   UNL     1      36.661 -27.824 -11.920  0.00  0.00    +0.145 HD
ENDBRANCH   2  14
BRANCH   5  22
ATOM     21  O   UNL     1      33.728 -23.846 -18.710  0.00  0.00    -0.268 OA
ATOM     22  N   UNL     1      33.891 -22.216 -17.024  0.00  0.00    -0.279 N 
ATOM     23  C   UNL     1      33.858 -22.682 -18.345  0.00  0.00    +0.267 C 
ATOM     24  H   UNL     1      34.002 -21.244 -16.912  0.00  0.00    +0.155 HD
BRANCH  23  27
ATOM     25  F   UNL     1      34.087 -18.758 -22.264  0.00  0.00    -0.203 F 
ATOM     26  N   UNL     1      32.796 -21.127 -19.839  0.00  0.00    -0.237 NA
ATOM     27  C   UNL     1      33.967 -21.635 -19.394  0.00  0.00    +0.135 C 
ATOM     28  C   UNL     1      35.211 -21.236 -19.855  0.00  0.00    +0.026 C 
ATOM     29  C   UNL     1      35.257 -20.252 -20.836  0.00  0.00    +0.033 C 
ATOM     30  C   UNL     1      32.880 -20.173 -20.793  0.00  0.00    +0.129 C 
ATOM     31  C   UNL     1      34.074 -19.706 -21.320  0.00  0.00    +0.159 C 
ENDBRANCH  23  27
ENDBRANCH   5  22
TORSDOF 3
ENDMDL
MODEL 5
REMARK VINA RESULT:      -7.3     10.948     15.193
REMARK  Name = 51352361
REMARK  3 active torsions:
REMARK  status: ('A' for Active; 'I' for Inactive)
REMARK    1  A    between atoms: C_2  and  C_14
REMARK    2  A    between atoms: C_5  and  N_22
REMARK    3  A    between atoms: C_23  and  C_27
REMARK                            x       y       z     vdW  Elec       q    Type
REMARK                         _______ _______ _______ _____ _____    ______ ____
ROOT
ATOM      1  F   UNL     1      33.471 -25.474 -13.683  0.00  0.00    -0.204 F 
ATOM      2  C   UNL     1      35.109 -24.629 -15.180  0.00  0.00    +0.028 C 
ATOM      3  C   UNL     1      35.446 -23.764 -16.221  0.00  0.00    +0.014 C 
ATOM      4  C   UNL     1      33.806 -24.646 -14.683  0.00  0.00    +0.138 C 
ATOM      5  C   UNL     1      34.481 -22.916 -16.765  0.00  0.00    +0.050 C 
ATOM      6  C   UNL     1      32.840 -23.799 -15.227  0.00  0.00    +0.031 C 
ATOM      7  C   UNL     1      33.178 -22.934 -16.267  0.00  0.00    +0.017 C 
ENDROOT
BRANCH   2  14
ATOM      8  S   UNL     1      36.371 -24.257 -12.160  0.00  0.00    +0.061 S 
ATOM      9  O   UNL     1      36.711 -24.641 -10.802  0.00  0.00    -0.154 OA
ATOM     10  O   UNL     1      35.308 -23.305 -12.412  0.00  0.00    -0.154 OA
ATOM     11  N   UNL     1      37.798 -23.744 -12.974  0.00  0.00    -0.165 N 
ATOM     12  N   UNL     1      37.551 -25.168 -14.920  0.00  0.00    -0.240 NA
ATOM     13  N   UNL     1      39.508 -23.970 -14.611  0.00  0.00    -0.330 N 
ATOM     14  C   UNL     1      36.174 -25.560 -14.583  0.00  0.00    +0.132 C 
ATOM     15  C   UNL     1      36.048 -25.752 -13.064  0.00  0.00    +0.199 C 
ATOM     16  C   UNL     1      35.997 -26.947 -15.247  0.00  0.00    +0.031 C 
ATOM     17  C   UNL     1      38.248 -24.340 -14.213  0.00  0.00    +0.197 C 
ATOM     18  C   UNL     1      38.524 -22.631 -12.291  0.00  0.00    +0.142 C 
ATOM     19  H   UNL     1      40.031 -23.338 -14.066  0.00  0.00    +0.145 HD
ATOM     20  H   UNL     1      39.890 -24.335 -15.442  0.00  0.00    +0.145 HD
ENDBRANCH   2  14
BRANCH   5  22
ATOM     21  O   UNL     1      33.129 -22.425 -19.395  0.00  0.00    -0.268 OA
ATOM     22  N   UNL     1      34.820 -22.050 -17.805  0.00  0.00    -0.279 N 
ATOM     23  C   UNL     1      34.150 -21.858 -19.021  0.00  0.00    +0.267 C 
ATOM     24  H   UNL     1      35.630 -21.508 -17.668  0.00  0.00    +0.155 HD
BRANCH  23  27
ATOM     25  F   UNL     1      36.530 -18.071 -22.308  0.00  0.00    -0.203 F 
ATOM     26  N   UNL     1      36.070 -20.618 -19.767  0.00  0.00    -0.237 NA
ATOM     27  C   UNL     1      34.745 -20.836 -19.922  0.00  0.00    +0.135 C 
ATOM     28  C   UNL     1      33.952 -20.175 -20.845  0.00  0.00    +0.026 C 
ATOM     29  C   UNL     1      34.558 -19.228 -21.664  0.00  0.00    +0.033 C 
ATOM     30  C   UNL     1      36.624 -19.691 -20.579  0.00  0.00    +0.129 C 
ATOM     31  C   UNL     1      35.919 -18.976 -21.534  0.00  0.00    +0.159 C 
ENDBRANCH  23  27
ENDBRANCH   5  22
TORSDOF 3
ENDMDL
MODEL 6
REMARK VINA RESULT:      -6.7      7.030     10.858
REMARK  Name = 51352361
REMARK  3 active torsions:
REMARK  status: ('A' for Active; 'I' for Inactive)
REMARK    1  A    between atoms: C_2  and  C_14
REMARK    2  A    between atoms: C_5  and  N_22
REMARK    3  A    between atoms: C_23  and  C_27
REMARK                            x       y       z     vdW  Elec       q    Type
REMARK                         _______ _______ _______ _____ _____    ______ ____
ROOT
ATOM      1  F   UNL     1      33.316 -18.811 -22.625  0.00  0.00    -0.204 F 
ATOM      2  C   UNL     1      35.033 -19.496 -21.135  0.00  0.00    +0.028 C 
ATOM      3  C   UNL     1      35.442 -20.295 -20.067  0.00  0.00    +0.014 C 
ATOM      4  C   UNL     1      33.720 -19.575 -21.600  0.00  0.00    +0.138 C 
ATOM      5  C   UNL     1      34.540 -21.173 -19.465  0.00  0.00    +0.050 C 
ATOM      6  C   UNL     1      32.817 -20.452 -20.998  0.00  0.00    +0.031 C 
ATOM      7  C   UNL     1      33.228 -21.251 -19.931  0.00  0.00    +0.017 C 
ENDROOT
BRANCH   2  14
ATOM      8  S   UNL     1      34.638 -16.226 -21.200  0.00  0.00    +0.061 S 
ATOM      9  O   UNL     1      34.988 -14.837 -20.963  0.00  0.00    -0.154 OA
ATOM     10  O   UNL     1      33.604 -16.869 -20.415  0.00  0.00    -0.154 OA
ATOM     11  N   UNL     1      34.298 -16.443 -22.873  0.00  0.00    -0.165 N 
ATOM     12  N   UNL     1      35.783 -18.325 -23.230  0.00  0.00    -0.240 NA
ATOM     13  N   UNL     1      34.759 -17.309 -25.040  0.00  0.00    -0.330 N 
ATOM     14  C   UNL     1      36.029 -18.532 -21.795  0.00  0.00    +0.132 C 
ATOM     15  C   UNL     1      36.137 -17.173 -21.088  0.00  0.00    +0.199 C 
ATOM     16  C   UNL     1      37.424 -19.202 -21.738  0.00  0.00    +0.031 C 
ATOM     17  C   UNL     1      34.991 -17.414 -23.692  0.00  0.00    +0.197 C 
ATOM     18  C   UNL     1      33.227 -15.545 -23.401  0.00  0.00    +0.142 C 
ATOM     19  H   UNL     1      34.153 -16.611 -25.382  0.00  0.00    +0.145 HD
ATOM     20  H   UNL     1      35.195 -17.930 -25.666  0.00  0.00    +0.145 HD
ENDBRANCH   2  14
BRANCH   5  22
ATOM     21  O   UNL     1      36.941 -20.943 -17.684  0.00  0.00    -0.268 OA
ATOM     22  N   UNL     1      34.951 -21.972 -18.399  0.00  0.00    -0.279 N 
ATOM     23  C   UNL     1      36.089 -21.821 -17.595  0.00  0.00    +0.267 C 
ATOM     24  H   UNL     1      34.371 -22.739 -18.186  0.00  0.00    +0.155 HD
BRANCH  23  27
ATOM     25  F   UNL     1      36.489 -25.627 -13.573  0.00  0.00    -0.203 F 
ATOM     26  N   UNL     1      35.147 -23.575 -16.247  0.00  0.00    -0.237 NA
ATOM     27  C   UNL     1      36.242 -22.827 -16.511  0.00  0.00    +0.135 C 
ATOM     28  C   UNL     1      37.448 -22.953 -15.842  0.00  0.00    +0.026 C 
ATOM     29  C   UNL     1      37.538 -23.910 -14.837  0.00  0.00    +0.033 C 
ATOM     30  C   UNL     1      35.271 -24.493 -15.263  0.00  0.00    +0.129 C 
ATOM     31  C   UNL     1      36.433 -24.698 -14.535  0.00  0.00    +0.159 C 
ENDBRANCH  23  27
ENDBRANCH   5  22
TORSDOF 3
ENDMDL
MODEL 7
REMARK VINA RESULT:      -6.6      2.229      3.287
REMARK  Name = 51352361
REMARK  3 active torsions:
REMARK  status: ('A' for Active; 'I' for Inactive)
REMARK    1  A    between atoms: C_2  and  C_14
REMARK    2  A    between atoms: C_5  and  N_22
REMARK    3  A    between atoms: C_23  and  C_27
REMARK                            x       y       z     vdW  Elec       q    Type
REMARK                         _______ _______ _______ _____ _____    ______ ____
ROOT
ATOM      1  F   UNL     1      30.487  -8.456 -23.026  0.00  0.00    -0.204 F 
ATOM      2  C   UNL     1      32.523  -9.666 -22.863  0.00  0.00    +0.028 C 
ATOM      3  C   UNL     1      33.181 -10.881 -22.669  0.00  0.00    +0.014 C 
ATOM      4  C   UNL     1      31.130  -9.618 -22.840  0.00  0.00    +0.138 C 
ATOM      5  C   UNL     1      32.447 -12.046 -22.450  0.00  0.00    +0.050 C 
ATOM      6  C   UNL     1      30.394 -10.783 -22.621  0.00  0.00    +0.031 C 
ATOM      7  C   UNL     1      31.053 -11.997 -22.427  0.00  0.00    +0.017 C 
ENDROOT
BRANCH   2  14
ATOM      8  S   UNL     1      32.561  -7.110 -20.785  0.00  0.00    +0.061 S 
ATOM      9  O   UNL     1      33.150  -6.122 -19.900  0.00  0.00    -0.154 OA
ATOM     10  O   UNL     1      31.799  -8.220 -20.247  0.00  0.00    -0.154 OA
ATOM     11  N   UNL     1      31.622  -6.305 -21.982  0.00  0.00    -0.165 N 
ATOM     12  N   UNL     1      32.624  -7.381 -23.909  0.00  0.00    -0.240 NA
ATOM     13  N   UNL     1      31.164  -5.610 -24.210  0.00  0.00    -0.330 N 
ATOM     14  C   UNL     1      33.336  -8.385 -23.105  0.00  0.00    +0.132 C 
ATOM     15  C   UNL     1      33.865  -7.736 -21.817  0.00  0.00    +0.199 C 
ATOM     16  C   UNL     1      34.559  -8.773 -23.970  0.00  0.00    +0.031 C 
ATOM     17  C   UNL     1      31.845  -6.484 -23.400  0.00  0.00    +0.197 C 
ATOM     18  C   UNL     1      30.560  -5.412 -21.428  0.00  0.00    +0.142 C 
ATOM     19  H   UNL     1      30.574  -4.929 -23.812  0.00  0.00    +0.145 HD
ATOM     20  H   UNL     1      31.265  -5.662 -25.188  0.00  0.00    +0.145 HD
ENDBRANCH   2  14
BRANCH   5  22
ATOM     21  O   UNL     1      33.051 -14.251 -24.389  0.00  0.00    -0.268 OA
ATOM     22  N   UNL     1      33.105 -13.260 -22.257  0.00  0.00    -0.279 N 
ATOM     23  C   UNL     1      33.363 -14.262 -23.203  0.00  0.00    +0.267 C 
ATOM     24  H   UNL     1      33.429 -13.435 -21.344  0.00  0.00    +0.155 HD
BRANCH  23  27
ATOM     25  F   UNL     1      36.208 -18.705 -21.477  0.00  0.00    -0.203 F 
ATOM     26  N   UNL     1      34.622 -16.263 -23.640  0.00  0.00    -0.237 NA
ATOM     27  C   UNL     1      34.117 -15.438 -22.695  0.00  0.00    +0.135 C 
ATOM     28  C   UNL     1      34.266 -15.636 -21.332  0.00  0.00    +0.026 C 
ATOM     29  C   UNL     1      34.981 -16.752 -20.911  0.00  0.00    +0.033 C 
ATOM     30  C   UNL     1      35.310 -17.337 -23.193  0.00  0.00    +0.129 C 
ATOM     31  C   UNL     1      35.516 -17.624 -21.853  0.00  0.00    +0.159 C 
ENDBRANCH  23  27
ENDBRANCH   5  22
TORSDOF 3
ENDMDL
MODEL 8
REMARK VINA RESULT:      -6.6      7.147     10.849
REMARK  Name = 51352361
REMARK  3 active torsions:
REMARK  status: ('A' for Active; 'I' for Inactive)
REMARK    1  A    between atoms: C_2  and  C_14
REMARK    2  A    between atoms: C_5  and  N_22
REMARK    3  A    between atoms: C_23  and  C_27
REMARK                            x       y       z     vdW  Elec       q    Type
REMARK                         _______ _______ _______ _____ _____    ______ ____
ROOT
ATOM      1  F   UNL     1      33.455 -18.919 -23.137  0.00  0.00    -0.204 F 
ATOM      2  C   UNL     1      34.682 -19.428 -21.169  0.00  0.00    +0.028 C 
ATOM      3  C   UNL     1      34.772 -20.117 -19.959  0.00  0.00    +0.014 C 
ATOM      4  C   UNL     1      33.552 -19.577 -21.972  0.00  0.00    +0.138 C 
ATOM      5  C   UNL     1      33.732 -20.954 -19.553  0.00  0.00    +0.050 C 
ATOM      6  C   UNL     1      32.511 -20.413 -21.567  0.00  0.00    +0.031 C 
ATOM      7  C   UNL     1      32.602 -21.101 -20.357  0.00  0.00    +0.017 C 
ENDROOT
BRANCH   2  14
ATOM      8  S   UNL     1      34.494 -16.139 -21.156  0.00  0.00    +0.061 S 
ATOM      9  O   UNL     1      34.880 -14.785 -20.803  0.00  0.00    -0.154 OA
ATOM     10  O   UNL     1      33.308 -16.741 -20.581  0.00  0.00    -0.154 OA
ATOM     11  N   UNL     1      34.427 -16.277 -22.870  0.00  0.00    -0.165 N 
ATOM     12  N   UNL     1      35.839 -18.239 -23.058  0.00  0.00    -0.240 NA
ATOM     13  N   UNL     1      35.194 -17.098 -24.967  0.00  0.00    -0.330 N 
ATOM     14  C   UNL     1      35.829 -18.509 -21.613  0.00  0.00    +0.132 C 
ATOM     15  C   UNL     1      35.896 -17.184 -20.838  0.00  0.00    +0.199 C 
ATOM     16  C   UNL     1      37.153 -19.269 -21.356  0.00  0.00    +0.031 C 
ATOM     17  C   UNL     1      35.190 -17.264 -23.604  0.00  0.00    +0.197 C 
ATOM     18  C   UNL     1      33.514 -15.295 -23.527  0.00  0.00    +0.142 C 
ATOM     19  H   UNL     1      34.696 -16.352 -25.373  0.00  0.00    +0.145 HD
ATOM     20  H   UNL     1      35.692 -17.725 -25.538  0.00  0.00    +0.145 HD
ENDBRANCH   2  14
BRANCH   5  22
ATOM     21  O   UNL     1      33.748 -23.900 -19.000  0.00  0.00    -0.268 OA
ATOM     22  N   UNL     1      33.823 -21.643 -18.344  0.00  0.00    -0.279 N 
ATOM     23  C   UNL     1      33.825 -23.030 -18.139  0.00  0.00    +0.267 C 
ATOM     24  H   UNL     1      33.894 -21.088 -17.535  0.00  0.00    +0.155 HD
BRANCH  23  27
ATOM     25  F   UNL     1      34.519 -24.686 -12.887  0.00  0.00    -0.203 F 
ATOM     26  N   UNL     1      35.203 -23.856 -16.351  0.00  0.00    -0.237 NA
ATOM     27  C   UNL     1      33.965 -23.465 -16.725  0.00  0.00    +0.135 C 
ATOM     28  C   UNL     1      32.866 -23.454 -15.881  0.00  0.00    +0.026 C 
ATOM     29  C   UNL     1      33.051 -23.870 -14.567  0.00  0.00    +0.033 C 
ATOM     30  C   UNL     1      35.344 -24.254 -15.067  0.00  0.00    +0.129 C 
ATOM     31  C   UNL     1      34.311 -24.280 -14.145  0.00  0.00    +0.159 C 
ENDBRANCH  23  27
ENDBRANCH   5  22
TORSDOF 3
ENDMDL
MODEL 9
REMARK VINA RESULT:      -6.5      2.652      4.023
REMARK  Name = 51352361
REMARK  3 active torsions:
REMARK  status: ('A' for Active; 'I' for Inactive)
REMARK    1  A    between atoms: C_2  and  C_14
REMARK    2  A    between atoms: C_5  and  N_22
REMARK    3  A    between atoms: C_23  and  C_27
REMARK                            x       y       z     vdW  Elec       q    Type
REMARK                         _______ _______ _______ _____ _____    ______ ____
ROOT
ATOM      1  F   UNL     1      30.884  -8.262 -18.860  0.00  0.00    -0.204 F 
ATOM      2  C   UNL     1      32.129  -8.986 -20.747  0.00  0.00    +0.028 C 
ATOM      3  C   UNL     1      32.501 -10.015 -21.613  0.00  0.00    +0.014 C 
ATOM      4  C   UNL     1      31.248  -9.244 -19.697  0.00  0.00    +0.138 C 
ATOM      5  C   UNL     1      31.993 -11.301 -21.428  0.00  0.00    +0.050 C 
ATOM      6  C   UNL     1      30.740 -10.530 -19.512  0.00  0.00    +0.031 C 
ATOM      7  C   UNL     1      31.112 -11.558 -20.378  0.00  0.00    +0.017 C 
ENDROOT
BRANCH   2  14
ATOM      8  S   UNL     1      31.184  -6.990 -23.191  0.00  0.00    +0.061 S 
ATOM      9  O   UNL     1      30.646  -5.783 -23.793  0.00  0.00    -0.154 OA
ATOM     10  O   UNL     1      30.408  -8.214 -23.176  0.00  0.00    -0.154 OA
ATOM     11  N   UNL     1      32.736  -7.310 -23.863  0.00  0.00    -0.165 N 
ATOM     12  N   UNL     1      33.920  -7.540 -21.760  0.00  0.00    -0.240 NA
ATOM     13  N   UNL     1      35.105  -7.486 -23.748  0.00  0.00    -0.330 N 
ATOM     14  C   UNL     1      32.690  -7.572 -20.955  0.00  0.00    +0.132 C 
ATOM     15  C   UNL     1      31.669  -6.580 -21.532  0.00  0.00    +0.199 C 
ATOM     16  C   UNL     1      33.126  -7.041 -19.567  0.00  0.00    +0.031 C 
ATOM     17  C   UNL     1      33.924  -7.453 -23.050  0.00  0.00    +0.197 C 
ATOM     18  C   UNL     1      32.746  -7.429 -25.352  0.00  0.00    +0.142 C 
ATOM     19  H   UNL     1      35.098  -7.419 -24.730  0.00  0.00    +0.145 HD
ATOM     20  H   UNL     1      35.960  -7.577 -23.268  0.00  0.00    +0.145 HD
ENDBRANCH   2  14
BRANCH   5  22
ATOM     21  O   UNL     1      33.712 -11.239 -23.883  0.00  0.00    -0.268 OA
ATOM     22  N   UNL     1      32.364 -12.329 -22.295  0.00  0.00    -0.279 N 
ATOM     23  C   UNL     1      33.175 -12.246 -23.435  0.00  0.00    +0.267 C 
ATOM     24  H   UNL     1      32.013 -13.223 -22.079  0.00  0.00    +0.155 HD
BRANCH  23  27
ATOM     25  F   UNL     1      34.145 -17.109 -25.931  0.00  0.00    -0.203 F 
ATOM     26  N   UNL     1      34.064 -14.479 -23.433  0.00  0.00    -0.237 NA
ATOM     27  C   UNL     1      33.413 -13.531 -24.143  0.00  0.00    +0.135 C 
ATOM     28  C   UNL     1      32.977 -13.701 -25.447  0.00  0.00    +0.026 C 
ATOM     29  C   UNL     1      33.225 -14.923 -26.062  0.00  0.00    +0.033 C 
ATOM     30  C   UNL     1      34.288 -15.653 -24.064  0.00  0.00    +0.129 C 
ATOM     31  C   UNL     1      33.893 -15.923 -25.365  0.00  0.00    +0.159 C 
ENDBRANCH  23  27
ENDBRANCH   5  22
TORSDOF 3
ENDMDL
