MODEL 1
REMARK VINA RESULT:     -11.3      0.000      0.000
REMARK  Name = 11544170
REMARK  4 active torsions:
REMARK  status: ('A' for Active; 'I' for Inactive)
REMARK    1  A    between atoms: C_4  and  C_11
REMARK    2  A    between atoms: C_8  and  C_21
REMARK    3  A    between atoms: C_16  and  C_18
REMARK    4  A    between atoms: C_18  and  O_19
REMARK                            x       y       z     vdW  Elec       q    Type
REMARK                         _______ _______ _______ _____ _____    ______ ____
ROOT
ATOM      1  N   UNL     1      33.537 -14.969 -25.840  0.00  0.00    -0.297 N 
ATOM      2  N   UNL     1      34.521 -17.125 -25.409  0.00  0.00    -0.229 NA
ATOM      3  C   UNL     1      33.739 -15.557 -23.695  0.00  0.00    +0.033 C 
ATOM      4  C   UNL     1      33.144 -14.269 -23.765  0.00  0.00    +0.017 C 
ATOM      5  C   UNL     1      33.970 -15.965 -25.005  0.00  0.00    +0.132 C 
ATOM      6  C   UNL     1      34.113 -16.437 -22.667  0.00  0.00    +0.004 C 
ATOM      7  C   UNL     1      33.032 -13.933 -25.097  0.00  0.00    +0.063 C 
ATOM      8  C   UNL     1      34.689 -17.654 -23.031  0.00  0.00    +0.019 C 
ATOM      9  C   UNL     1      34.863 -17.934 -24.378  0.00  0.00    +0.100 C 
ATOM     10  H   UNL     1      33.580 -14.994 -26.822  0.00  0.00    +0.154 HD
ENDROOT
BRANCH   4  11
ATOM     11  C   UNL     1      32.706 -13.398 -22.713  0.00  0.00    +0.001 C 
ATOM     12  C   UNL     1      32.399 -12.064 -22.992  0.00  0.00    +0.000 C 
ATOM     13  C   UNL     1      32.584 -13.881 -21.409  0.00  0.00    +0.000 C 
ATOM     14  C   UNL     1      31.972 -11.217 -21.970  0.00  0.00    +0.006 C 
ATOM     15  C   UNL     1      32.156 -13.033 -20.387  0.00  0.00    +0.006 C 
ATOM     16  C   UNL     1      31.851 -11.701 -20.667  0.00  0.00    +0.075 C 
BRANCH  16  18
ATOM     17  O   UNL     1      30.242 -10.710 -19.201  0.00  0.00    -0.245 OA
ATOM     18  C   UNL     1      31.405 -10.818 -19.601  0.00  0.00    +0.338 C 
BRANCH  18  19
ATOM     19  O   UNL     1      32.425 -10.095 -19.064  0.00  0.00    -0.477 OA
ATOM     20  H   UNL     1      32.381  -9.812 -18.171  0.00  0.00    +0.295 HD
ENDBRANCH  18  19
ENDBRANCH  16  18
ENDBRANCH   4  11
BRANCH   8  21
ATOM     21  C   UNL     1      35.097 -18.604 -22.021  0.00  0.00    +0.001 C 
ATOM     22  C   UNL     1      34.159 -19.470 -21.456  0.00  0.00    +0.000 C 
ATOM     23  C   UNL     1      36.429 -18.658 -21.609  0.00  0.00    +0.000 C 
ATOM     24  C   UNL     1      34.553 -20.388 -20.483  0.00  0.00    +0.000 C 
ATOM     25  C   UNL     1      36.822 -19.577 -20.635  0.00  0.00    +0.000 C 
ATOM     26  C   UNL     1      35.884 -20.441 -20.073  0.00  0.00    +0.000 C 
ENDBRANCH   8  21
TORSDOF 4
ENDMDL
MODEL 2
REMARK VINA RESULT:     -11.3      3.554      7.286
REMARK  Name = 11544170
REMARK  4 active torsions:
REMARK  status: ('A' for Active; 'I' for Inactive)
REMARK    1  A    between atoms: C_4  and  C_11
REMARK    2  A    between atoms: C_8  and  C_21
REMARK    3  A    between atoms: C_16  and  C_18
REMARK    4  A    between atoms: C_18  and  O_19
REMARK                            x       y       z     vdW  Elec       q    Type
REMARK                         _______ _______ _______ _____ _____    ______ ____
ROOT
ATOM      1  N   UNL     1      34.559 -17.071 -25.586  0.00  0.00    -0.297 N 
ATOM      2  N   UNL     1      33.516 -14.921 -25.290  0.00  0.00    -0.229 NA
ATOM      3  C   UNL     1      34.116 -16.466 -23.483  0.00  0.00    +0.033 C 
ATOM      4  C   UNL     1      34.725 -17.748 -23.473  0.00  0.00    +0.017 C 
ATOM      5  C   UNL     1      34.027 -16.072 -24.815  0.00  0.00    +0.132 C 
ATOM      6  C   UNL     1      33.623 -15.579 -22.513  0.00  0.00    +0.004 C 
ATOM      7  C   UNL     1      34.987 -18.096 -24.781  0.00  0.00    +0.063 C 
ATOM      8  C   UNL     1      33.080 -14.371 -22.950  0.00  0.00    +0.019 C 
ATOM      9  C   UNL     1      33.055 -14.105 -24.312  0.00  0.00    +0.100 C 
ATOM     10  H   UNL     1      34.624 -17.056 -26.568  0.00  0.00    +0.154 HD
ENDROOT
BRANCH   4  11
ATOM     11  C   UNL     1      35.051 -18.606 -22.370  0.00  0.00    +0.001 C 
ATOM     12  C   UNL     1      34.071 -19.429 -21.811  0.00  0.00    +0.000 C 
ATOM     13  C   UNL     1      36.348 -18.620 -21.854  0.00  0.00    +0.000 C 
ATOM     14  C   UNL     1      34.388 -20.264 -20.740  0.00  0.00    +0.006 C 
ATOM     15  C   UNL     1      36.665 -19.455 -20.783  0.00  0.00    +0.006 C 
ATOM     16  C   UNL     1      35.685 -20.277 -20.226  0.00  0.00    +0.075 C 
BRANCH  16  18
ATOM     17  O   UNL     1      36.793 -20.870 -18.191  0.00  0.00    -0.245 OA
ATOM     18  C   UNL     1      36.015 -21.148 -19.109  0.00  0.00    +0.338 C 
BRANCH  18  19
ATOM     19  O   UNL     1      35.365 -22.342 -19.169  0.00  0.00    -0.477 OA
ATOM     20  H   UNL     1      34.725 -22.560 -18.520  0.00  0.00    +0.295 HD
ENDBRANCH  18  19
ENDBRANCH  16  18
ENDBRANCH   4  11
BRANCH   8  21
ATOM     21  C   UNL     1      32.556 -13.415 -22.002  0.00  0.00    +0.001 C 
ATOM     22  C   UNL     1      31.990 -12.222 -22.451  0.00  0.00    +0.000 C 
ATOM     23  C   UNL     1      32.613 -13.685 -20.634  0.00  0.00    +0.000 C 
ATOM     24  C   UNL     1      31.482 -11.301 -21.537  0.00  0.00    +0.000 C 
ATOM     25  C   UNL     1      32.105 -12.763 -19.718  0.00  0.00    +0.000 C 
ATOM     26  C   UNL     1      31.539 -11.571 -20.170  0.00  0.00    +0.000 C 
ENDBRANCH   8  21
TORSDOF 4
ENDMDL
MODEL 3
REMARK VINA RESULT:     -10.9      3.820      7.444
REMARK  Name = 11544170
REMARK  4 active torsions:
REMARK  status: ('A' for Active; 'I' for Inactive)
REMARK    1  A    between atoms: C_4  and  C_11
REMARK    2  A    between atoms: C_8  and  C_21
REMARK    3  A    between atoms: C_16  and  C_18
REMARK    4  A    between atoms: C_18  and  O_19
REMARK                            x       y       z     vdW  Elec       q    Type
REMARK                         _______ _______ _______ _____ _____    ______ ____
ROOT
ATOM      1  N   UNL     1      35.522 -18.052 -24.472  0.00  0.00    -0.297 N 
ATOM      2  N   UNL     1      34.852 -15.739 -24.466  0.00  0.00    -0.229 NA
ATOM      3  C   UNL     1      34.367 -17.360 -22.691  0.00  0.00    +0.033 C 
ATOM      4  C   UNL     1      34.679 -18.736 -22.530  0.00  0.00    +0.017 C 
ATOM      5  C   UNL     1      34.907 -16.964 -23.911  0.00  0.00    +0.132 C 
ATOM      6  C   UNL     1      33.686 -16.389 -21.941  0.00  0.00    +0.004 C 
ATOM      7  C   UNL     1      35.389 -19.135 -23.642  0.00  0.00    +0.063 C 
ATOM      8  C   UNL     1      33.597 -15.101 -22.469  0.00  0.00    +0.019 C 
ATOM      9  C   UNL     1      34.182 -14.844 -23.701  0.00  0.00    +0.100 C 
ATOM     10  H   UNL     1      35.988 -18.056 -25.339  0.00  0.00    +0.154 HD
ENDROOT
BRANCH   4  11
ATOM     11  C   UNL     1      34.362 -19.633 -21.457  0.00  0.00    +0.001 C 
ATOM     12  C   UNL     1      35.382 -20.321 -20.797  0.00  0.00    +0.000 C 
ATOM     13  C   UNL     1      33.034 -19.820 -21.070  0.00  0.00    +0.000 C 
ATOM     14  C   UNL     1      35.074 -21.193 -19.752  0.00  0.00    +0.006 C 
ATOM     15  C   UNL     1      32.727 -20.692 -20.025  0.00  0.00    +0.006 C 
ATOM     16  C   UNL     1      33.747 -21.379 -19.367  0.00  0.00    +0.075 C 
BRANCH  16  18
ATOM     17  O   UNL     1      32.287 -22.580 -17.903  0.00  0.00    -0.245 OA
ATOM     18  C   UNL     1      33.426 -22.288 -18.278  0.00  0.00    +0.338 C 
BRANCH  18  19
ATOM     19  O   UNL     1      34.537 -22.807 -17.689  0.00  0.00    -0.477 OA
ATOM     20  H   UNL     1      34.479 -23.198 -16.838  0.00  0.00    +0.295 HD
ENDBRANCH  18  19
ENDBRANCH  16  18
ENDBRANCH   4  11
BRANCH   8  21
ATOM     21  C   UNL     1      32.908 -14.057 -21.747  0.00  0.00    +0.001 C 
ATOM     22  C   UNL     1      32.830 -14.104 -20.354  0.00  0.00    +0.000 C 
ATOM     23  C   UNL     1      32.321 -12.997 -22.440  0.00  0.00    +0.000 C 
ATOM     24  C   UNL     1      32.167 -13.095 -19.657  0.00  0.00    +0.000 C 
ATOM     25  C   UNL     1      31.657 -11.988 -21.742  0.00  0.00    +0.000 C 
ATOM     26  C   UNL     1      31.581 -12.036 -20.351  0.00  0.00    +0.000 C 
ENDBRANCH   8  21
TORSDOF 4
ENDMDL
MODEL 4
REMARK VINA RESULT:     -10.8      8.261     10.952
REMARK  Name = 11544170
REMARK  4 active torsions:
REMARK  status: ('A' for Active; 'I' for Inactive)
REMARK    1  A    between atoms: C_4  and  C_11
REMARK    2  A    between atoms: C_8  and  C_21
REMARK    3  A    between atoms: C_16  and  C_18
REMARK    4  A    between atoms: C_18  and  O_19
REMARK                            x       y       z     vdW  Elec       q    Type
REMARK                         _______ _______ _______ _____ _____    ______ ____
ROOT
ATOM      1  N   UNL     1      33.185 -24.968 -13.882  0.00  0.00    -0.297 N 
ATOM      2  N   UNL     1      35.157 -24.345 -15.117  0.00  0.00    -0.229 NA
ATOM      3  C   UNL     1      32.872 -23.628 -15.641  0.00  0.00    +0.033 C 
ATOM      4  C   UNL     1      31.615 -23.891 -15.034  0.00  0.00    +0.017 C 
ATOM      5  C   UNL     1      33.829 -24.313 -14.899  0.00  0.00    +0.132 C 
ATOM      6  C   UNL     1      33.321 -22.881 -16.742  0.00  0.00    +0.004 C 
ATOM      7  C   UNL     1      31.838 -24.719 -13.955  0.00  0.00    +0.063 C 
ATOM      8  C   UNL     1      34.688 -22.881 -17.014  0.00  0.00    +0.019 C 
ATOM      9  C   UNL     1      35.533 -23.611 -16.190  0.00  0.00    +0.100 C 
ATOM     10  H   UNL     1      33.622 -25.531 -13.204  0.00  0.00    +0.154 HD
ENDROOT
BRANCH   4  11
ATOM     11  C   UNL     1      30.304 -23.435 -15.395  0.00  0.00    +0.001 C 
ATOM     12  C   UNL     1      29.683 -22.431 -14.650  0.00  0.00    +0.000 C 
ATOM     13  C   UNL     1      29.646 -23.993 -16.492  0.00  0.00    +0.000 C 
ATOM     14  C   UNL     1      28.409 -21.986 -15.001  0.00  0.00    +0.006 C 
ATOM     15  C   UNL     1      28.372 -23.549 -16.844  0.00  0.00    +0.006 C 
ATOM     16  C   UNL     1      27.753 -22.546 -16.098  0.00  0.00    +0.075 C 
BRANCH  16  18
ATOM     17  O   UNL     1      26.072 -21.743 -17.598  0.00  0.00    -0.245 OA
ATOM     18  C   UNL     1      26.424 -22.082 -16.465  0.00  0.00    +0.338 C 
BRANCH  18  19
ATOM     19  O   UNL     1      25.570 -22.057 -15.405  0.00  0.00    -0.477 OA
ATOM     20  H   UNL     1      25.833 -21.653 -14.600  0.00  0.00    +0.295 HD
ENDBRANCH  18  19
ENDBRANCH  16  18
ENDBRANCH   4  11
BRANCH   8  21
ATOM     21  C   UNL     1      35.214 -22.133 -18.134  0.00  0.00    +0.001 C 
ATOM     22  C   UNL     1      34.399 -21.851 -19.231  0.00  0.00    +0.000 C 
ATOM     23  C   UNL     1      36.536 -21.690 -18.119  0.00  0.00    +0.000 C 
ATOM     24  C   UNL     1      34.905 -21.129 -20.310  0.00  0.00    +0.000 C 
ATOM     25  C   UNL     1      37.043 -20.966 -19.199  0.00  0.00    +0.000 C 
ATOM     26  C   UNL     1      36.227 -20.686 -20.294  0.00  0.00    +0.000 C 
ENDBRANCH   8  21
TORSDOF 4
ENDMDL
MODEL 5
REMARK VINA RESULT:     -10.6      7.927     12.171
REMARK  Name = 11544170
REMARK  4 active torsions:
REMARK  status: ('A' for Active; 'I' for Inactive)
REMARK    1  A    between atoms: C_4  and  C_11
REMARK    2  A    between atoms: C_8  and  C_21
REMARK    3  A    between atoms: C_16  and  C_18
REMARK    4  A    between atoms: C_18  and  O_19
REMARK                            x       y       z     vdW  Elec       q    Type
REMARK                         _______ _______ _______ _____ _____    ______ ____
ROOT
ATOM      1  N   UNL     1      32.384 -24.219 -15.118  0.00  0.00    -0.297 N 
ATOM      2  N   UNL     1      31.678 -22.815 -16.943  0.00  0.00    -0.229 NA
ATOM      3  C   UNL     1      33.998 -23.432 -16.446  0.00  0.00    +0.033 C 
ATOM      4  C   UNL     1      34.587 -24.233 -15.432  0.00  0.00    +0.017 C 
ATOM      5  C   UNL     1      32.625 -23.444 -16.222  0.00  0.00    +0.132 C 
ATOM      6  C   UNL     1      34.468 -22.689 -17.540  0.00  0.00    +0.004 C 
ATOM      7  C   UNL     1      33.570 -24.705 -14.630  0.00  0.00    +0.063 C 
ATOM      8  C   UNL     1      33.529 -22.016 -18.322  0.00  0.00    +0.019 C 
ATOM      9  C   UNL     1      32.187 -22.114 -17.984  0.00  0.00    +0.100 C 
ATOM     10  H   UNL     1      31.496 -24.400 -14.735  0.00  0.00    +0.154 HD
ENDROOT
BRANCH   4  11
ATOM     11  C   UNL     1      35.964 -24.556 -15.196  0.00  0.00    +0.001 C 
ATOM     12  C   UNL     1      36.342 -25.879 -14.957  0.00  0.00    +0.000 C 
ATOM     13  C   UNL     1      36.931 -23.549 -15.206  0.00  0.00    +0.000 C 
ATOM     14  C   UNL     1      37.682 -26.193 -14.729  0.00  0.00    +0.006 C 
ATOM     15  C   UNL     1      38.270 -23.863 -14.978  0.00  0.00    +0.006 C 
ATOM     16  C   UNL     1      38.645 -25.185 -14.739  0.00  0.00    +0.075 C 
BRANCH  16  18
ATOM     17  O   UNL     1      40.933 -24.699 -14.238  0.00  0.00    -0.245 OA
ATOM     18  C   UNL     1      40.043 -25.512 -14.501  0.00  0.00    +0.338 C 
BRANCH  18  19
ATOM     19  O   UNL     1      40.288 -26.848 -14.597  0.00  0.00    -0.477 OA
ATOM     20  H   UNL     1      39.925 -27.439 -13.967  0.00  0.00    +0.295 HD
ENDBRANCH  18  19
ENDBRANCH  16  18
ENDBRANCH   4  11
BRANCH   8  21
ATOM     21  C   UNL     1      33.948 -21.233 -19.462  0.00  0.00    +0.001 C 
ATOM     22  C   UNL     1      33.008 -20.516 -20.202  0.00  0.00    +0.000 C 
ATOM     23  C   UNL     1      35.295 -21.191 -19.824  0.00  0.00    +0.000 C 
ATOM     24  C   UNL     1      33.412 -19.760 -21.301  0.00  0.00    +0.000 C 
ATOM     25  C   UNL     1      35.700 -20.434 -20.923  0.00  0.00    +0.000 C 
ATOM     26  C   UNL     1      34.759 -19.718 -21.662  0.00  0.00    +0.000 C 
ENDBRANCH   8  21
TORSDOF 4
ENDMDL
MODEL 6
REMARK VINA RESULT:     -10.5      6.658     10.102
REMARK  Name = 11544170
REMARK  4 active torsions:
REMARK  status: ('A' for Active; 'I' for Inactive)
REMARK    1  A    between atoms: C_4  and  C_11
REMARK    2  A    between atoms: C_8  and  C_21
REMARK    3  A    between atoms: C_16  and  C_18
REMARK    4  A    between atoms: C_18  and  O_19
REMARK                            x       y       z     vdW  Elec       q    Type
REMARK                         _______ _______ _______ _____ _____    ______ ____
ROOT
ATOM      1  N   UNL     1      36.910 -23.144 -15.840  0.00  0.00    -0.297 N 
ATOM      2  N   UNL     1      35.035 -24.074 -14.647  0.00  0.00    -0.229 NA
ATOM      3  C   UNL     1      34.891 -22.770 -16.719  0.00  0.00    +0.033 C 
ATOM      4  C   UNL     1      35.872 -22.158 -17.543  0.00  0.00    +0.017 C 
ATOM      5  C   UNL     1      35.571 -23.377 -15.667  0.00  0.00    +0.132 C 
ATOM      6  C   UNL     1      33.492 -22.887 -16.738  0.00  0.00    +0.004 C 
ATOM      7  C   UNL     1      37.105 -22.404 -16.977  0.00  0.00    +0.063 C 
ATOM      8  C   UNL     1      32.885 -23.599 -15.704  0.00  0.00    +0.019 C 
ATOM      9  C   UNL     1      33.685 -24.154 -14.715  0.00  0.00    +0.100 C 
ATOM     10  H   UNL     1      37.623 -23.460 -15.240  0.00  0.00    +0.154 HD
ENDROOT
BRANCH   4  11
ATOM     11  C   UNL     1      35.718 -21.402 -18.752  0.00  0.00    +0.001 C 
ATOM     12  C   UNL     1      34.475 -21.337 -19.384  0.00  0.00    +0.000 C 
ATOM     13  C   UNL     1      36.812 -20.730 -19.301  0.00  0.00    +0.000 C 
ATOM     14  C   UNL     1      34.325 -20.601 -20.559  0.00  0.00    +0.006 C 
ATOM     15  C   UNL     1      36.662 -19.994 -20.476  0.00  0.00    +0.006 C 
ATOM     16  C   UNL     1      35.419 -19.930 -21.105  0.00  0.00    +0.075 C 
BRANCH  16  18
ATOM     17  O   UNL     1      34.277 -19.193 -23.074  0.00  0.00    -0.245 OA
ATOM     18  C   UNL     1      35.263 -19.163 -22.331  0.00  0.00    +0.338 C 
BRANCH  18  19
ATOM     19  O   UNL     1      36.343 -18.377 -22.595  0.00  0.00    -0.477 OA
ATOM     20  H   UNL     1      36.279 -17.688 -23.227  0.00  0.00    +0.295 HD
ENDBRANCH  18  19
ENDBRANCH  16  18
ENDBRANCH   4  11
BRANCH   8  21
ATOM     21  C   UNL     1      31.449 -23.755 -15.665  0.00  0.00    +0.001 C 
ATOM     22  C   UNL     1      30.632 -22.908 -16.416  0.00  0.00    +0.000 C 
ATOM     23  C   UNL     1      30.875 -24.754 -14.878  0.00  0.00    +0.000 C 
ATOM     24  C   UNL     1      29.247 -23.060 -16.380  0.00  0.00    +0.000 C 
ATOM     25  C   UNL     1      29.488 -24.906 -14.841  0.00  0.00    +0.000 C 
ATOM     26  C   UNL     1      28.675 -24.059 -15.593  0.00  0.00    +0.000 C 
ENDBRANCH   8  21
TORSDOF 4
ENDMDL
MODEL 7
REMARK VINA RESULT:     -10.2      7.405     11.117
REMARK  Name = 11544170
REMARK  4 active torsions:
REMARK  status: ('A' for Active; 'I' for Inactive)
REMARK    1  A    between atoms: C_4  and  C_11
REMARK    2  A    between atoms: C_8  and  C_21
REMARK    3  A    between atoms: C_16  and  C_18
REMARK    4  A    between atoms: C_18  and  O_19
REMARK                            x       y       z     vdW  Elec       q    Type
REMARK                         _______ _______ _______ _____ _____    ______ ____
ROOT
ATOM      1  N   UNL     1      36.526 -23.806 -14.665  0.00  0.00    -0.297 N 
ATOM      2  N   UNL     1      37.549 -22.554 -16.451  0.00  0.00    -0.229 NA
ATOM      3  C   UNL     1      35.148 -22.993 -16.223  0.00  0.00    +0.033 C 
ATOM      4  C   UNL     1      34.383 -23.697 -15.256  0.00  0.00    +0.017 C 
ATOM      5  C   UNL     1      36.479 -23.079 -15.826  0.00  0.00    +0.132 C 
ATOM      6  C   UNL     1      34.870 -22.284 -17.402  0.00  0.00    +0.004 C 
ATOM      7  C   UNL     1      35.258 -24.187 -14.309  0.00  0.00    +0.063 C 
ATOM      8  C   UNL     1      35.943 -21.719 -18.090  0.00  0.00    +0.019 C 
ATOM      9  C   UNL     1      37.223 -21.882 -17.581  0.00  0.00    +0.100 C 
ATOM     10  H   UNL     1      37.345 -24.021 -14.164  0.00  0.00    +0.154 HD
ENDROOT
BRANCH   4  11
ATOM     11  C   UNL     1      32.968 -23.918 -15.182  0.00  0.00    +0.001 C 
ATOM     12  C   UNL     1      32.435 -24.697 -14.153  0.00  0.00    +0.000 C 
ATOM     13  C   UNL     1      32.121 -23.355 -16.137  0.00  0.00    +0.000 C 
ATOM     14  C   UNL     1      31.058 -24.911 -14.080  0.00  0.00    +0.006 C 
ATOM     15  C   UNL     1      30.744 -23.569 -16.064  0.00  0.00    +0.006 C 
ATOM     16  C   UNL     1      30.214 -24.347 -15.036  0.00  0.00    +0.075 C 
BRANCH  16  18
ATOM     17  O   UNL     1      27.915 -23.850 -15.468  0.00  0.00    -0.245 OA
ATOM     18  C   UNL     1      28.778 -24.570 -14.960  0.00  0.00    +0.338 C 
BRANCH  18  19
ATOM     19  O   UNL     1      28.462 -25.689 -14.252  0.00  0.00    -0.477 OA
ATOM     20  H   UNL     1      28.694 -26.535 -14.582  0.00  0.00    +0.295 HD
ENDBRANCH  18  19
ENDBRANCH  16  18
ENDBRANCH   4  11
BRANCH   8  21
ATOM     21  C   UNL     1      35.724 -20.976 -19.311  0.00  0.00    +0.001 C 
ATOM     22  C   UNL     1      34.452 -20.932 -19.884  0.00  0.00    +0.000 C 
ATOM     23  C   UNL     1      36.783 -20.300 -19.917  0.00  0.00    +0.000 C 
ATOM     24  C   UNL     1      34.241 -20.214 -21.060  0.00  0.00    +0.000 C 
ATOM     25  C   UNL     1      36.571 -19.582 -21.095  0.00  0.00    +0.000 C 
ATOM     26  C   UNL     1      35.300 -19.539 -21.666  0.00  0.00    +0.000 C 
ENDBRANCH   8  21
TORSDOF 4
ENDMDL
MODEL 8
REMARK VINA RESULT:      -9.9      4.853      9.306
REMARK  Name = 11544170
REMARK  4 active torsions:
REMARK  status: ('A' for Active; 'I' for Inactive)
REMARK    1  A    between atoms: C_4  and  C_11
REMARK    2  A    between atoms: C_8  and  C_21
REMARK    3  A    between atoms: C_16  and  C_18
REMARK    4  A    between atoms: C_18  and  O_19
REMARK                            x       y       z     vdW  Elec       q    Type
REMARK                         _______ _______ _______ _____ _____    ______ ____
ROOT
ATOM      1  N   UNL     1      31.444 -10.576 -19.896  0.00  0.00    -0.297 N 
ATOM      2  N   UNL     1      31.635  -8.277 -20.590  0.00  0.00    -0.229 NA
ATOM      3  C   UNL     1      32.300 -10.221 -21.928  0.00  0.00    +0.033 C 
ATOM      4  C   UNL     1      32.259 -11.620 -21.685  0.00  0.00    +0.017 C 
ATOM      5  C   UNL     1      31.785  -9.599 -20.795  0.00  0.00    +0.132 C 
ATOM      6  C   UNL     1      32.715  -9.397 -22.986  0.00  0.00    +0.004 C 
ATOM      7  C   UNL     1      31.729 -11.808 -20.426  0.00  0.00    +0.063 C 
ATOM      8  C   UNL     1      32.583  -8.018 -22.826  0.00  0.00    +0.019 C 
ATOM      9  C   UNL     1      32.052  -7.531 -21.640  0.00  0.00    +0.100 C 
ATOM     10  H   UNL     1      31.056 -10.417 -19.006  0.00  0.00    +0.154 HD
ENDROOT
BRANCH   4  11
ATOM     11  C   UNL     1      32.668 -12.713 -22.518  0.00  0.00    +0.001 C 
ATOM     12  C   UNL     1      33.014 -12.485 -23.851  0.00  0.00    +0.000 C 
ATOM     13  C   UNL     1      32.721 -14.007 -21.998  0.00  0.00    +0.000 C 
ATOM     14  C   UNL     1      33.413 -13.548 -24.662  0.00  0.00    +0.006 C 
ATOM     15  C   UNL     1      33.120 -15.070 -22.808  0.00  0.00    +0.006 C 
ATOM     16  C   UNL     1      33.465 -14.840 -24.140  0.00  0.00    +0.075 C 
BRANCH  16  18
ATOM     17  O   UNL     1      34.336 -17.024 -24.582  0.00  0.00    -0.245 OA
ATOM     18  C   UNL     1      33.881 -15.949 -24.985  0.00  0.00    +0.338 C 
BRANCH  18  19
ATOM     19  O   UNL     1      33.716 -15.685 -26.310  0.00  0.00    -0.477 OA
ATOM     20  H   UNL     1      33.551 -16.385 -26.911  0.00  0.00    +0.295 HD
ENDBRANCH  18  19
ENDBRANCH  16  18
ENDBRANCH   4  11
BRANCH   8  21
ATOM     21  C   UNL     1      32.992  -7.114 -23.877  0.00  0.00    +0.001 C 
ATOM     22  C   UNL     1      34.295  -7.165 -24.376  0.00  0.00    +0.000 C 
ATOM     23  C   UNL     1      32.085  -6.190 -24.397  0.00  0.00    +0.000 C 
ATOM     24  C   UNL     1      34.689  -6.295 -25.391  0.00  0.00    +0.000 C 
ATOM     25  C   UNL     1      32.480  -5.319 -25.413  0.00  0.00    +0.000 C 
ATOM     26  C   UNL     1      33.781  -5.372 -25.910  0.00  0.00    +0.000 C 
ENDBRANCH   8  21
TORSDOF 4
ENDMDL
MODEL 9
REMARK VINA RESULT:      -9.9      4.830      9.249
REMARK  Name = 11544170
REMARK  4 active torsions:
REMARK  status: ('A' for Active; 'I' for Inactive)
REMARK    1  A    between atoms: C_4  and  C_11
REMARK    2  A    between atoms: C_8  and  C_21
REMARK    3  A    between atoms: C_16  and  C_18
REMARK    4  A    between atoms: C_18  and  O_19
REMARK                            x       y       z     vdW  Elec       q    Type
REMARK                         _______ _______ _______ _____ _____    ______ ____
ROOT
ATOM      1  N   UNL     1      31.472 -10.600 -19.826  0.00  0.00    -0.297 N 
ATOM      2  N   UNL     1      31.647  -8.301 -20.522  0.00  0.00    -0.229 NA
ATOM      3  C   UNL     1      32.312 -10.242 -21.864  0.00  0.00    +0.033 C 
ATOM      4  C   UNL     1      32.280 -11.640 -21.619  0.00  0.00    +0.017 C 
ATOM      5  C   UNL     1      31.802  -9.622 -20.728  0.00  0.00    +0.132 C 
ATOM      6  C   UNL     1      32.716  -9.416 -22.924  0.00  0.00    +0.004 C 
ATOM      7  C   UNL     1      31.759 -11.831 -20.357  0.00  0.00    +0.063 C 
ATOM      8  C   UNL     1      32.579  -8.037 -22.764  0.00  0.00    +0.019 C 
ATOM      9  C   UNL     1      32.053  -7.552 -21.575  0.00  0.00    +0.100 C 
ATOM     10  H   UNL     1      31.089 -10.443 -18.934  0.00  0.00    +0.154 HD
ENDROOT
BRANCH   4  11
ATOM     11  C   UNL     1      32.689 -12.732 -22.455  0.00  0.00    +0.001 C 
ATOM     12  C   UNL     1      33.088 -12.494 -23.771  0.00  0.00    +0.000 C 
ATOM     13  C   UNL     1      32.689 -14.035 -21.954  0.00  0.00    +0.000 C 
ATOM     14  C   UNL     1      33.487 -13.555 -24.584  0.00  0.00    +0.006 C 
ATOM     15  C   UNL     1      33.088 -15.096 -22.766  0.00  0.00    +0.006 C 
ATOM     16  C   UNL     1      33.486 -14.856 -24.081  0.00  0.00    +0.075 C 
BRANCH  16  18
ATOM     17  O   UNL     1      33.818 -15.993 -26.159  0.00  0.00    -0.245 OA
ATOM     18  C   UNL     1      33.902 -15.963 -24.928  0.00  0.00    +0.338 C 
BRANCH  18  19
ATOM     19  O   UNL     1      34.412 -17.003 -24.213  0.00  0.00    -0.477 OA
ATOM     20  H   UNL     1      34.128 -17.151 -23.332  0.00  0.00    +0.295 HD
ENDBRANCH  18  19
ENDBRANCH  16  18
ENDBRANCH   4  11
BRANCH   8  21
ATOM     21  C   UNL     1      32.977  -7.132 -23.818  0.00  0.00    +0.001 C 
ATOM     22  C   UNL     1      32.063  -6.210 -24.331  0.00  0.00    +0.000 C 
ATOM     23  C   UNL     1      34.276  -7.177 -24.325  0.00  0.00    +0.000 C 
ATOM     24  C   UNL     1      32.448  -5.336 -25.346  0.00  0.00    +0.000 C 
ATOM     25  C   UNL     1      34.661  -6.303 -25.342  0.00  0.00    +0.000 C 
ATOM     26  C   UNL     1      33.747  -5.382 -25.852  0.00  0.00    +0.000 C 
ENDBRANCH   8  21
TORSDOF 4
ENDMDL
