MODEL 1
REMARK VINA RESULT:      -5.1      0.000      0.000
REMARK  Name = 588
REMARK  0 active torsions:
REMARK  status: ('A' for Active; 'I' for Inactive)
REMARK                            x       y       z     vdW  Elec       q    Type
REMARK                         _______ _______ _______ _____ _____    ______ ____
ROOT
ATOM      1  O   UNL     1      40.889 -25.719 -14.388  0.00  0.00    -0.212 OA
ATOM      2  N   UNL     1      37.590 -25.581 -13.373  0.00  0.00    -0.254 N 
ATOM      3  N   UNL     1      38.815 -26.623 -14.947  0.00  0.00    -0.304 NA
ATOM      4  N   UNL     1      36.467 -27.049 -14.854  0.00  0.00    -0.320 N 
ATOM      5  C   UNL     1      38.922 -25.085 -13.117  0.00  0.00    +0.231 C 
ATOM      6  C   UNL     1      37.618 -26.452 -14.434  0.00  0.00    +0.248 C 
ATOM      7  C   UNL     1      39.682 -25.827 -14.209  0.00  0.00    +0.204 C 
ATOM      8  C   UNL     1      36.465 -25.167 -12.576  0.00  0.00    +0.117 C 
ATOM      9  H   UNL     1      35.616 -26.853 -14.398  0.00  0.00    +0.146 HD
ATOM     10  H   UNL     1      36.484 -27.674 -15.613  0.00  0.00    +0.146 HD
ENDROOT
TORSDOF 0
ENDMDL
MODEL 2
REMARK VINA RESULT:      -5.0     14.738     14.870
REMARK  Name = 588
REMARK  0 active torsions:
REMARK  status: ('A' for Active; 'I' for Inactive)
REMARK                            x       y       z     vdW  Elec       q    Type
REMARK                         _______ _______ _______ _____ _____    ______ ____
ROOT
ATOM      1  O   UNL     1      33.309 -15.500 -26.642  0.00  0.00    -0.212 OA
ATOM      2  N   UNL     1      34.462 -16.143 -23.450  0.00  0.00    -0.254 N 
ATOM      3  N   UNL     1      34.578 -17.080 -25.492  0.00  0.00    -0.304 NA
ATOM      4  N   UNL     1      35.689 -18.156 -23.672  0.00  0.00    -0.320 N 
ATOM      5  C   UNL     1      33.693 -15.229 -24.262  0.00  0.00    +0.231 C 
ATOM      6  C   UNL     1      34.931 -17.170 -24.230  0.00  0.00    +0.248 C 
ATOM      7  C   UNL     1      33.817 -15.924 -25.612  0.00  0.00    +0.204 C 
ATOM      8  C   UNL     1      34.656 -15.919 -22.041  0.00  0.00    +0.117 C 
ATOM      9  H   UNL     1      35.898 -18.131 -22.710  0.00  0.00    +0.146 HD
ATOM     10  H   UNL     1      36.027 -18.893 -24.229  0.00  0.00    +0.146 HD
ENDROOT
TORSDOF 0
ENDMDL
MODEL 3
REMARK VINA RESULT:      -5.0      8.228      8.677
REMARK  Name = 588
REMARK  0 active torsions:
REMARK  status: ('A' for Active; 'I' for Inactive)
REMARK                            x       y       z     vdW  Elec       q    Type
REMARK                         _______ _______ _______ _____ _____    ______ ____
ROOT
ATOM      1  O   UNL     1      33.953 -23.521 -17.790  0.00  0.00    -0.212 OA
ATOM      2  N   UNL     1      34.676 -20.923 -19.949  0.00  0.00    -0.254 N 
ATOM      3  N   UNL     1      32.855 -21.952 -19.118  0.00  0.00    -0.304 NA
ATOM      4  N   UNL     1      32.552 -20.134 -20.637  0.00  0.00    -0.320 N 
ATOM      5  C   UNL     1      35.247 -21.936 -19.094  0.00  0.00    +0.231 C 
ATOM      6  C   UNL     1      33.306 -21.001 -19.904  0.00  0.00    +0.248 C 
ATOM      7  C   UNL     1      33.968 -22.581 -18.576  0.00  0.00    +0.204 C 
ATOM      8  C   UNL     1      35.503 -20.009 -20.692  0.00  0.00    +0.117 C 
ATOM      9  H   UNL     1      32.990 -19.453 -21.198  0.00  0.00    +0.146 HD
ATOM     10  H   UNL     1      31.570 -20.188 -20.607  0.00  0.00    +0.146 HD
ENDROOT
TORSDOF 0
ENDMDL
MODEL 4
REMARK VINA RESULT:      -5.0      2.194      2.847
REMARK  Name = 588
REMARK  0 active torsions:
REMARK  status: ('A' for Active; 'I' for Inactive)
REMARK                            x       y       z     vdW  Elec       q    Type
REMARK                         _______ _______ _______ _____ _____    ______ ____
ROOT
ATOM      1  O   UNL     1      36.540 -27.533 -16.459  0.00  0.00    -0.212 OA
ATOM      2  N   UNL     1      36.853 -25.215 -13.917  0.00  0.00    -0.254 N 
ATOM      3  N   UNL     1      37.966 -27.011 -14.692  0.00  0.00    -0.304 NA
ATOM      4  N   UNL     1      38.839 -25.851 -12.795  0.00  0.00    -0.320 N 
ATOM      5  C   UNL     1      36.042 -25.631 -15.038  0.00  0.00    +0.231 C 
ATOM      6  C   UNL     1      37.931 -26.056 -13.791  0.00  0.00    +0.248 C 
ATOM      7  C   UNL     1      36.851 -26.836 -15.502  0.00  0.00    +0.204 C 
ATOM      8  C   UNL     1      36.503 -24.071 -13.117  0.00  0.00    +0.117 C 
ATOM      9  H   UNL     1      38.720 -25.101 -12.168  0.00  0.00    +0.146 HD
ATOM     10  H   UNL     1      39.612 -26.452 -12.703  0.00  0.00    +0.146 HD
ENDROOT
TORSDOF 0
ENDMDL
MODEL 5
REMARK VINA RESULT:      -5.0      2.864      3.630
REMARK  Name = 588
REMARK  0 active torsions:
REMARK  status: ('A' for Active; 'I' for Inactive)
REMARK                            x       y       z     vdW  Elec       q    Type
REMARK                         _______ _______ _______ _____ _____    ______ ____
ROOT
ATOM      1  O   UNL     1      35.338 -24.951 -10.612  0.00  0.00    -0.212 OA
ATOM      2  N   UNL     1      36.960 -24.479 -13.625  0.00  0.00    -0.254 N 
ATOM      3  N   UNL     1      36.851 -26.042 -12.009  0.00  0.00    -0.304 NA
ATOM      4  N   UNL     1      38.263 -26.438 -13.895  0.00  0.00    -0.320 N 
ATOM      5  C   UNL     1      36.031 -23.898 -12.685  0.00  0.00    +0.231 C 
ATOM      6  C   UNL     1      37.379 -25.702 -13.163  0.00  0.00    +0.248 C 
ATOM      7  C   UNL     1      36.011 -25.001 -11.634  0.00  0.00    +0.204 C 
ATOM      8  C   UNL     1      37.324 -23.801 -14.842  0.00  0.00    +0.117 C 
ATOM      9  H   UNL     1      38.601 -26.091 -14.752  0.00  0.00    +0.146 HD
ATOM     10  H   UNL     1      38.564 -27.315 -13.566  0.00  0.00    +0.146 HD
ENDROOT
TORSDOF 0
ENDMDL
MODEL 6
REMARK VINA RESULT:      -4.9      2.019      2.892
REMARK  Name = 588
REMARK  0 active torsions:
REMARK  status: ('A' for Active; 'I' for Inactive)
REMARK                            x       y       z     vdW  Elec       q    Type
REMARK                         _______ _______ _______ _____ _____    ______ ____
ROOT
ATOM      1  O   UNL     1      37.888 -24.328 -11.147  0.00  0.00    -0.212 OA
ATOM      2  N   UNL     1      37.566 -25.921 -14.195  0.00  0.00    -0.254 N 
ATOM      3  N   UNL     1      39.019 -24.539 -13.173  0.00  0.00    -0.304 NA
ATOM      4  N   UNL     1      39.494 -25.260 -15.401  0.00  0.00    -0.320 N 
ATOM      5  C   UNL     1      36.954 -25.717 -12.903  0.00  0.00    +0.231 C 
ATOM      6  C   UNL     1      38.740 -25.213 -14.266  0.00  0.00    +0.248 C 
ATOM      7  C   UNL     1      37.984 -24.783 -12.280  0.00  0.00    +0.204 C 
ATOM      8  C   UNL     1      36.959 -26.764 -15.192  0.00  0.00    +0.117 C 
ATOM      9  H   UNL     1      39.194 -25.799 -16.169  0.00  0.00    +0.146 HD
ATOM     10  H   UNL     1      40.336 -24.754 -15.454  0.00  0.00    +0.146 HD
ENDROOT
TORSDOF 0
ENDMDL
MODEL 7
REMARK VINA RESULT:      -4.9     11.144     11.780
REMARK  Name = 588
REMARK  0 active torsions:
REMARK  status: ('A' for Active; 'I' for Inactive)
REMARK                            x       y       z     vdW  Elec       q    Type
REMARK                         _______ _______ _______ _____ _____    ______ ____
ROOT
ATOM      1  O   UNL     1      41.894 -17.600 -17.107  0.00  0.00    -0.212 OA
ATOM      2  N   UNL     1      41.952 -14.221 -16.390  0.00  0.00    -0.254 N 
ATOM      3  N   UNL     1      40.923 -16.075 -15.636  0.00  0.00    -0.304 NA
ATOM      4  N   UNL     1      40.436 -13.986 -14.586  0.00  0.00    -0.320 N 
ATOM      5  C   UNL     1      42.489 -15.252 -17.247  0.00  0.00    +0.231 C 
ATOM      6  C   UNL     1      41.067 -14.777 -15.500  0.00  0.00    +0.248 C 
ATOM      7  C   UNL     1      41.753 -16.460 -16.681  0.00  0.00    +0.204 C 
ATOM      8  C   UNL     1      42.353 -12.845 -16.523  0.00  0.00    +0.117 C 
ATOM      9  H   UNL     1      40.615 -13.018 -14.566  0.00  0.00    +0.146 HD
ATOM     10  H   UNL     1      39.801 -14.382 -13.947  0.00  0.00    +0.146 HD
ENDROOT
TORSDOF 0
ENDMDL
MODEL 8
REMARK VINA RESULT:      -4.8      2.481      3.057
REMARK  Name = 588
REMARK  0 active torsions:
REMARK  status: ('A' for Active; 'I' for Inactive)
REMARK                            x       y       z     vdW  Elec       q    Type
REMARK                         _______ _______ _______ _____ _____    ______ ____
ROOT
ATOM      1  O   UNL     1      36.670 -27.286 -16.154  0.00  0.00    -0.212 OA
ATOM      2  N   UNL     1      36.728 -25.244 -13.369  0.00  0.00    -0.254 N 
ATOM      3  N   UNL     1      35.775 -25.269 -15.408  0.00  0.00    -0.304 NA
ATOM      4  N   UNL     1      35.322 -23.429 -13.952  0.00  0.00    -0.320 N 
ATOM      5  C   UNL     1      37.223 -26.476 -13.935  0.00  0.00    +0.231 C 
ATOM      6  C   UNL     1      35.909 -24.617 -14.275  0.00  0.00    +0.248 C 
ATOM      7  C   UNL     1      36.542 -26.421 -15.297  0.00  0.00    +0.204 C 
ATOM      8  C   UNL     1      37.092 -24.824 -12.041  0.00  0.00    +0.117 C 
ATOM      9  H   UNL     1      35.488 -23.022 -13.071  0.00  0.00    +0.146 HD
ATOM     10  H   UNL     1      34.734 -22.978 -14.599  0.00  0.00    +0.146 HD
ENDROOT
TORSDOF 0
ENDMDL
MODEL 9
REMARK VINA RESULT:      -4.8      2.765      3.359
REMARK  Name = 588
REMARK  0 active torsions:
REMARK  status: ('A' for Active; 'I' for Inactive)
REMARK                            x       y       z     vdW  Elec       q    Type
REMARK                         _______ _______ _______ _____ _____    ______ ____
ROOT
ATOM      1  O   UNL     1      37.275 -23.020 -10.797  0.00  0.00    -0.212 OA
ATOM      2  N   UNL     1      36.228 -24.714 -13.620  0.00  0.00    -0.254 N 
ATOM      3  N   UNL     1      37.422 -25.137 -11.760  0.00  0.00    -0.304 NA
ATOM      4  N   UNL     1      37.098 -26.899 -13.340  0.00  0.00    -0.320 N 
ATOM      5  C   UNL     1      36.203 -23.445 -12.932  0.00  0.00    +0.231 C 
ATOM      6  C   UNL     1      36.944 -25.624 -12.882  0.00  0.00    +0.248 C 
ATOM      7  C   UNL     1      37.022 -23.808 -11.700  0.00  0.00    +0.204 C 
ATOM      8  C   UNL     1      35.564 -24.900 -14.883  0.00  0.00    +0.117 C 
ATOM      9  H   UNL     1      36.697 -27.165 -14.199  0.00  0.00    +0.146 HD
ATOM     10  H   UNL     1      37.611 -27.553 -12.813  0.00  0.00    +0.146 HD
ENDROOT
TORSDOF 0
ENDMDL
