MODEL 1
REMARK VINA RESULT:      -6.8      0.000      0.000
REMARK  Name = 587
REMARK  7 active torsions:
REMARK  status: ('A' for Active; 'I' for Inactive)
REMARK    1  A    between atoms: N_1  and  C_14
REMARK    2  A    between atoms: N_2  and  C_4
REMARK    3  A    between atoms: N_2  and  P_8
REMARK    4  A    between atoms: P_8  and  O_10
REMARK    5  A    between atoms: P_8  and  O_12
REMARK    6  A    between atoms: C_14  and  C_16
REMARK    7  A    between atoms: C_16  and  O_17
REMARK                            x       y       z     vdW  Elec       q    Type
REMARK                         _______ _______ _______ _____ _____    ______ ____
ROOT
ATOM      1  N   UNL     1      38.183 -25.937 -13.665  0.00  0.00    -0.308 N 
ATOM      2  N   UNL     1      38.752 -24.196 -12.181  0.00  0.00    -0.369 N 
ATOM      3  C   UNL     1      37.890 -25.226 -12.491  0.00  0.00    +0.205 C 
ATOM      4  C   UNL     1      39.321 -25.630 -14.528  0.00  0.00    +0.129 C 
ATOM      5  H   UNL     1      39.515 -23.999 -12.771  0.00  0.00    +0.159 HD
ATOM      6  H   UNL     1      38.605 -23.657 -11.372  0.00  0.00    +0.159 HD
ENDROOT
BRANCH   3   7
ATOM      7  N   UNL     1      36.858 -25.531 -11.741  0.00  0.00    -0.144 NA
BRANCH   7   8
ATOM      8  P   UNL     1      35.660 -24.536 -11.330  0.00  0.00    +0.454 P 
ATOM      9  O   UNL     1      35.316 -24.443  -9.866  0.00  0.00    -0.233 OA
BRANCH   8  10
ATOM     10  O   UNL     1      34.369 -24.929 -12.235  0.00  0.00    -0.307 OA
ATOM     11  H   UNL     1      34.351 -24.375 -13.031  0.00  0.00    +0.222 HD
ENDBRANCH   8  10
BRANCH   8  12
ATOM     12  O   UNL     1      36.029 -23.081 -11.952  0.00  0.00    -0.307 OA
ATOM     13  H   UNL     1      36.872 -22.776 -11.584  0.00  0.00    +0.222 HD
ENDBRANCH   8  12
ENDBRANCH   7   8
ENDBRANCH   3   7
BRANCH   1  14
ATOM     14  C   UNL     1      37.271 -26.966 -14.161  0.00  0.00    +0.214 C 
BRANCH  14  16
ATOM     15  O   UNL     1      35.851 -25.557 -15.501  0.00  0.00    -0.248 OA
ATOM     16  C   UNL     1      36.556 -26.556 -15.423  0.00  0.00    +0.337 C 
BRANCH  16  17
ATOM     17  O   UNL     1      36.768 -27.396 -16.462  0.00  0.00    -0.479 OA
ATOM     18  H   UNL     1      37.401 -27.180 -17.118  0.00  0.00    +0.295 HD
ENDBRANCH  16  17
ENDBRANCH  14  16
ENDBRANCH   1  14
TORSDOF 7
ENDMDL
MODEL 2
REMARK VINA RESULT:      -6.8      3.127      4.706
REMARK  Name = 587
REMARK  7 active torsions:
REMARK  status: ('A' for Active; 'I' for Inactive)
REMARK    1  A    between atoms: N_1  and  C_14
REMARK    2  A    between atoms: N_2  and  C_4
REMARK    3  A    between atoms: N_2  and  P_8
REMARK    4  A    between atoms: P_8  and  O_10
REMARK    5  A    between atoms: P_8  and  O_12
REMARK    6  A    between atoms: C_14  and  C_16
REMARK    7  A    between atoms: C_16  and  O_17
REMARK                            x       y       z     vdW  Elec       q    Type
REMARK                         _______ _______ _______ _____ _____    ______ ____
ROOT
ATOM      1  N   UNL     1      37.044 -23.829 -13.648  0.00  0.00    -0.308 N 
ATOM      2  N   UNL     1      37.897 -23.658 -15.839  0.00  0.00    -0.369 N 
ATOM      3  C   UNL     1      38.120 -24.023 -14.527  0.00  0.00    +0.205 C 
ATOM      4  C   UNL     1      35.756 -23.276 -14.061  0.00  0.00    +0.129 C 
ATOM      5  H   UNL     1      37.025 -23.286 -16.105  0.00  0.00    +0.159 HD
ATOM      6  H   UNL     1      38.610 -23.767 -16.508  0.00  0.00    +0.159 HD
ENDROOT
BRANCH   3   7
ATOM      7  N   UNL     1      39.261 -24.522 -14.119  0.00  0.00    -0.144 NA
BRANCH   7   8
ATOM      8  P   UNL     1      39.899 -25.928 -14.579  0.00  0.00    +0.454 P 
ATOM      9  O   UNL     1      41.066 -26.448 -13.781  0.00  0.00    -0.233 OA
BRANCH   8  10
ATOM     10  O   UNL     1      40.248 -25.809 -16.162  0.00  0.00    -0.307 OA
ATOM     11  H   UNL     1      40.847 -25.059 -16.305  0.00  0.00    +0.222 HD
ENDBRANCH   8  10
BRANCH   8  12
ATOM     12  O   UNL     1      38.679 -27.000 -14.623  0.00  0.00    -0.307 OA
ATOM     13  H   UNL     1      38.099 -26.862 -13.857  0.00  0.00    +0.222 HD
ENDBRANCH   8  12
ENDBRANCH   7   8
ENDBRANCH   3   7
BRANCH   1  14
ATOM     14  C   UNL     1      37.202 -24.060 -12.214  0.00  0.00    +0.214 C 
BRANCH  14  16
ATOM     15  O   UNL     1      35.425 -25.109 -10.973  0.00  0.00    -0.248 OA
ATOM     16  C   UNL     1      36.392 -25.229 -11.716  0.00  0.00    +0.337 C 
BRANCH  16  17
ATOM     17  O   UNL     1      36.834 -26.426 -12.167  0.00  0.00    -0.479 OA
ATOM     18  H   UNL     1      37.712 -26.513 -12.482  0.00  0.00    +0.295 HD
ENDBRANCH  16  17
ENDBRANCH  14  16
ENDBRANCH   1  14
TORSDOF 7
ENDMDL
MODEL 3
REMARK VINA RESULT:      -6.5      3.776      4.770
REMARK  Name = 587
REMARK  7 active torsions:
REMARK  status: ('A' for Active; 'I' for Inactive)
REMARK    1  A    between atoms: N_1  and  C_14
REMARK    2  A    between atoms: N_2  and  C_4
REMARK    3  A    between atoms: N_2  and  P_8
REMARK    4  A    between atoms: P_8  and  O_10
REMARK    5  A    between atoms: P_8  and  O_12
REMARK    6  A    between atoms: C_14  and  C_16
REMARK    7  A    between atoms: C_16  and  O_17
REMARK                            x       y       z     vdW  Elec       q    Type
REMARK                         _______ _______ _______ _____ _____    ______ ____
ROOT
ATOM      1  N   UNL     1      36.850 -24.941 -14.491  0.00  0.00    -0.308 N 
ATOM      2  N   UNL     1      37.522 -27.200 -14.466  0.00  0.00    -0.369 N 
ATOM      3  C   UNL     1      37.856 -25.883 -14.227  0.00  0.00    +0.205 C 
ATOM      4  C   UNL     1      35.523 -25.296 -14.988  0.00  0.00    +0.129 C 
ATOM      5  H   UNL     1      36.625 -27.427 -14.801  0.00  0.00    +0.159 HD
ATOM      6  H   UNL     1      38.181 -27.912 -14.302  0.00  0.00    +0.159 HD
ENDROOT
BRANCH   3   7
ATOM      7  N   UNL     1      39.035 -25.525 -13.782  0.00  0.00    -0.144 NA
BRANCH   7   8
ATOM      8  P   UNL     1      40.441 -25.750 -14.537  0.00  0.00    +0.454 P 
ATOM      9  O   UNL     1      41.313 -26.876 -14.043  0.00  0.00    -0.233 OA
BRANCH   8  10
ATOM     10  O   UNL     1      41.226 -24.327 -14.538  0.00  0.00    -0.307 OA
ATOM     11  H   UNL     1      42.141 -24.463 -14.247  0.00  0.00    +0.222 HD
ENDBRANCH   8  10
BRANCH   8  12
ATOM     12  O   UNL     1      40.101 -25.906 -16.118  0.00  0.00    -0.307 OA
ATOM     13  H   UNL     1      40.639 -26.618 -16.496  0.00  0.00    +0.222 HD
ENDBRANCH   8  12
ENDBRANCH   7   8
ENDBRANCH   3   7
BRANCH   1  14
ATOM     14  C   UNL     1      37.127 -23.509 -14.396  0.00  0.00    +0.214 C 
BRANCH  14  16
ATOM     15  O   UNL     1      36.772 -22.174 -16.368  0.00  0.00    -0.248 OA
ATOM     16  C   UNL     1      37.516 -22.899 -15.718  0.00  0.00    +0.337 C 
BRANCH  16  17
ATOM     17  O   UNL     1      38.765 -23.228 -16.120  0.00  0.00    -0.479 OA
ATOM     18  H   UNL     1      38.896 -23.648 -16.947  0.00  0.00    +0.295 HD
ENDBRANCH  16  17
ENDBRANCH  14  16
ENDBRANCH   1  14
TORSDOF 7
ENDMDL
MODEL 4
REMARK VINA RESULT:      -6.5      3.126      4.920
REMARK  Name = 587
REMARK  7 active torsions:
REMARK  status: ('A' for Active; 'I' for Inactive)
REMARK    1  A    between atoms: N_1  and  C_14
REMARK    2  A    between atoms: N_2  and  C_4
REMARK    3  A    between atoms: N_2  and  P_8
REMARK    4  A    between atoms: P_8  and  O_10
REMARK    5  A    between atoms: P_8  and  O_12
REMARK    6  A    between atoms: C_14  and  C_16
REMARK    7  A    between atoms: C_16  and  O_17
REMARK                            x       y       z     vdW  Elec       q    Type
REMARK                         _______ _______ _______ _____ _____    ______ ____
ROOT
ATOM      1  N   UNL     1      36.677 -25.232 -14.154  0.00  0.00    -0.308 N 
ATOM      2  N   UNL     1      37.436 -26.846 -15.694  0.00  0.00    -0.369 N 
ATOM      3  C   UNL     1      37.697 -26.105 -14.561  0.00  0.00    +0.205 C 
ATOM      4  C   UNL     1      35.407 -25.091 -14.862  0.00  0.00    +0.129 C 
ATOM      5  H   UNL     1      36.576 -26.743 -16.163  0.00  0.00    +0.159 HD
ATOM      6  H   UNL     1      38.108 -27.478 -16.035  0.00  0.00    +0.159 HD
ENDROOT
BRANCH   3   7
ATOM      7  N   UNL     1      38.825 -26.203 -13.900  0.00  0.00    -0.144 NA
BRANCH   7   8
ATOM      8  P   UNL     1      40.280 -25.770 -14.440  0.00  0.00    +0.454 P 
ATOM      9  O   UNL     1      40.806 -24.429 -13.996  0.00  0.00    -0.233 OA
BRANCH   8  10
ATOM     10  O   UNL     1      40.259 -25.911 -16.058  0.00  0.00    -0.307 OA
ATOM     11  H   UNL     1      39.562 -26.533 -16.320  0.00  0.00    +0.222 HD
ENDBRANCH   8  10
BRANCH   8  12
ATOM     12  O   UNL     1      41.299 -26.973 -14.047  0.00  0.00    -0.307 OA
ATOM     13  H   UNL     1      40.974 -27.807 -14.420  0.00  0.00    +0.222 HD
ENDBRANCH   8  12
ENDBRANCH   7   8
ENDBRANCH   3   7
BRANCH   1  14
ATOM     14  C   UNL     1      36.888 -24.305 -13.044  0.00  0.00    +0.214 C 
BRANCH  14  16
ATOM     15  O   UNL     1      35.936 -25.365 -11.103  0.00  0.00    -0.248 OA
ATOM     16  C   UNL     1      35.876 -24.473 -11.940  0.00  0.00    +0.337 C 
BRANCH  16  17
ATOM     17  O   UNL     1      34.892 -23.543 -11.961  0.00  0.00    -0.479 OA
ATOM     18  H   UNL     1      34.269 -23.504 -11.263  0.00  0.00    +0.295 HD
ENDBRANCH  16  17
ENDBRANCH  14  16
ENDBRANCH   1  14
TORSDOF 7
ENDMDL
MODEL 5
REMARK VINA RESULT:      -6.4      2.210      2.903
REMARK  Name = 587
REMARK  7 active torsions:
REMARK  status: ('A' for Active; 'I' for Inactive)
REMARK    1  A    between atoms: N_1  and  C_14
REMARK    2  A    between atoms: N_2  and  C_4
REMARK    3  A    between atoms: N_2  and  P_8
REMARK    4  A    between atoms: P_8  and  O_10
REMARK    5  A    between atoms: P_8  and  O_12
REMARK    6  A    between atoms: C_14  and  C_16
REMARK    7  A    between atoms: C_16  and  O_17
REMARK                            x       y       z     vdW  Elec       q    Type
REMARK                         _______ _______ _______ _____ _____    ______ ____
ROOT
ATOM      1  N   UNL     1      37.288 -25.945 -14.604  0.00  0.00    -0.308 N 
ATOM      2  N   UNL     1      35.085 -25.109 -14.537  0.00  0.00    -0.369 N 
ATOM      3  C   UNL     1      36.391 -24.987 -14.108  0.00  0.00    +0.205 C 
ATOM      4  C   UNL     1      36.899 -27.016 -15.518  0.00  0.00    +0.129 C 
ATOM      5  H   UNL     1      34.835 -25.835 -15.153  0.00  0.00    +0.159 HD
ATOM      6  H   UNL     1      34.404 -24.470 -14.227  0.00  0.00    +0.159 HD
ENDROOT
BRANCH   3   7
ATOM      7  N   UNL     1      36.777 -24.040 -13.288  0.00  0.00    -0.144 NA
BRANCH   7   8
ATOM      8  P   UNL     1      36.294 -23.853 -11.762  0.00  0.00    +0.454 P 
ATOM      9  O   UNL     1      37.072 -22.883 -10.910  0.00  0.00    -0.233 OA
BRANCH   8  10
ATOM     10  O   UNL     1      36.220 -25.331 -11.091  0.00  0.00    -0.307 OA
ATOM     11  H   UNL     1      37.048 -25.513 -10.619  0.00  0.00    +0.222 HD
ENDBRANCH   8  10
BRANCH   8  12
ATOM     12  O   UNL     1      34.716 -23.470 -11.817  0.00  0.00    -0.307 OA
ATOM     13  H   UNL     1      34.264 -23.850 -11.048  0.00  0.00    +0.222 HD
ENDBRANCH   8  12
ENDBRANCH   7   8
ENDBRANCH   3   7
BRANCH   1  14
ATOM     14  C   UNL     1      38.667 -25.994 -14.122  0.00  0.00    +0.214 C 
BRANCH  14  16
ATOM     15  O   UNL     1      40.644 -25.976 -15.497  0.00  0.00    -0.248 OA
ATOM     16  C   UNL     1      39.649 -25.388 -15.092  0.00  0.00    +0.337 C 
BRANCH  16  17
ATOM     17  O   UNL     1      39.326 -24.130 -15.474  0.00  0.00    -0.479 OA
ATOM     18  H   UNL     1      38.712 -23.631 -14.972  0.00  0.00    +0.295 HD
ENDBRANCH  16  17
ENDBRANCH  14  16
ENDBRANCH   1  14
TORSDOF 7
ENDMDL
MODEL 6
REMARK VINA RESULT:      -6.1      2.409      3.062
REMARK  Name = 587
REMARK  7 active torsions:
REMARK  status: ('A' for Active; 'I' for Inactive)
REMARK    1  A    between atoms: N_1  and  C_14
REMARK    2  A    between atoms: N_2  and  C_4
REMARK    3  A    between atoms: N_2  and  P_8
REMARK    4  A    between atoms: P_8  and  O_10
REMARK    5  A    between atoms: P_8  and  O_12
REMARK    6  A    between atoms: C_14  and  C_16
REMARK    7  A    between atoms: C_16  and  O_17
REMARK                            x       y       z     vdW  Elec       q    Type
REMARK                         _______ _______ _______ _____ _____    ______ ____
ROOT
ATOM      1  N   UNL     1      35.625 -24.044 -14.608  0.00  0.00    -0.308 N 
ATOM      2  N   UNL     1      33.746 -23.408 -13.336  0.00  0.00    -0.369 N 
ATOM      3  C   UNL     1      34.973 -24.037 -13.366  0.00  0.00    +0.205 C 
ATOM      4  C   UNL     1      35.069 -23.436 -15.814  0.00  0.00    +0.129 C 
ATOM      5  H   UNL     1      33.381 -23.001 -14.155  0.00  0.00    +0.159 HD
ATOM      6  H   UNL     1      33.235 -23.365 -12.496  0.00  0.00    +0.159 HD
ENDROOT
BRANCH   3   7
ATOM      7  N   UNL     1      35.505 -24.594 -12.305  0.00  0.00    -0.144 NA
BRANCH   7   8
ATOM      8  P   UNL     1      36.643 -23.947 -11.365  0.00  0.00    +0.454 P 
ATOM      9  O   UNL     1      37.024 -22.514 -11.635  0.00  0.00    -0.233 OA
BRANCH   8  10
ATOM     10  O   UNL     1      37.930 -24.938 -11.409  0.00  0.00    -0.307 OA
ATOM     11  H   UNL     1      37.697 -25.750 -11.888  0.00  0.00    +0.222 HD
ENDBRANCH   8  10
BRANCH   8  12
ATOM     12  O   UNL     1      36.155 -24.159  -9.830  0.00  0.00    -0.307 OA
ATOM     13  H   UNL     1      35.675 -23.371  -9.532  0.00  0.00    +0.222 HD
ENDBRANCH   8  12
ENDBRANCH   7   8
ENDBRANCH   3   7
BRANCH   1  14
ATOM     14  C   UNL     1      36.870 -24.789 -14.792  0.00  0.00    +0.214 C 
BRANCH  14  16
ATOM     15  O   UNL     1      36.292 -26.846 -15.901  0.00  0.00    -0.248 OA
ATOM     16  C   UNL     1      36.654 -26.278 -14.878  0.00  0.00    +0.337 C 
BRANCH  16  17
ATOM     17  O   UNL     1      36.900 -26.929 -13.718  0.00  0.00    -0.479 OA
ATOM     18  H   UNL     1      37.658 -26.713 -13.211  0.00  0.00    +0.295 HD
ENDBRANCH  16  17
ENDBRANCH  14  16
ENDBRANCH   1  14
TORSDOF 7
ENDMDL
MODEL 7
REMARK VINA RESULT:      -6.1      3.126      4.147
REMARK  Name = 587
REMARK  7 active torsions:
REMARK  status: ('A' for Active; 'I' for Inactive)
REMARK    1  A    between atoms: N_1  and  C_14
REMARK    2  A    between atoms: N_2  and  C_4
REMARK    3  A    between atoms: N_2  and  P_8
REMARK    4  A    between atoms: P_8  and  O_10
REMARK    5  A    between atoms: P_8  and  O_12
REMARK    6  A    between atoms: C_14  and  C_16
REMARK    7  A    between atoms: C_16  and  O_17
REMARK                            x       y       z     vdW  Elec       q    Type
REMARK                         _______ _______ _______ _____ _____    ______ ____
ROOT
ATOM      1  N   UNL     1      37.045 -23.776 -13.583  0.00  0.00    -0.308 N 
ATOM      2  N   UNL     1      38.326 -24.593 -11.782  0.00  0.00    -0.369 N 
ATOM      3  C   UNL     1      38.259 -24.316 -13.131  0.00  0.00    +0.205 C 
ATOM      4  C   UNL     1      35.905 -23.513 -12.709  0.00  0.00    +0.129 C 
ATOM      5  H   UNL     1      37.551 -24.412 -11.202  0.00  0.00    +0.159 HD
ATOM      6  H   UNL     1      39.149 -24.973 -11.398  0.00  0.00    +0.159 HD
ENDROOT
BRANCH   3   7
ATOM      7  N   UNL     1      39.260 -24.539 -13.947  0.00  0.00    -0.144 NA
BRANCH   7   8
ATOM      8  P   UNL     1      39.667 -25.964 -14.579  0.00  0.00    +0.454 P 
ATOM      9  O   UNL     1      38.595 -27.022 -14.637  0.00  0.00    -0.233 OA
BRANCH   8  10
ATOM     10  O   UNL     1      40.993 -26.483 -13.794  0.00  0.00    -0.307 OA
ATOM     11  H   UNL     1      41.655 -25.774 -13.776  0.00  0.00    +0.222 HD
ENDBRANCH   8  10
BRANCH   8  12
ATOM     12  O   UNL     1      40.290 -25.661 -16.049  0.00  0.00    -0.307 OA
ATOM     13  H   UNL     1      39.861 -24.879 -16.427  0.00  0.00    +0.222 HD
ENDBRANCH   8  12
ENDBRANCH   7   8
ENDBRANCH   3   7
BRANCH   1  14
ATOM     14  C   UNL     1      36.811 -23.560 -15.010  0.00  0.00    +0.214 C 
BRANCH  14  16
ATOM     15  O   UNL     1      34.718 -24.063 -16.090  0.00  0.00    -0.248 OA
ATOM     16  C   UNL     1      35.752 -24.472 -15.575  0.00  0.00    +0.337 C 
BRANCH  16  17
ATOM     17  O   UNL     1      36.052 -25.787 -15.459  0.00  0.00    -0.479 OA
ATOM     18  H   UNL     1      35.724 -26.399 -16.088  0.00  0.00    +0.295 HD
ENDBRANCH  16  17
ENDBRANCH  14  16
ENDBRANCH   1  14
TORSDOF 7
ENDMDL
MODEL 8
REMARK VINA RESULT:      -6.0      3.171      4.048
REMARK  Name = 587
REMARK  7 active torsions:
REMARK  status: ('A' for Active; 'I' for Inactive)
REMARK    1  A    between atoms: N_1  and  C_14
REMARK    2  A    between atoms: N_2  and  C_4
REMARK    3  A    between atoms: N_2  and  P_8
REMARK    4  A    between atoms: P_8  and  O_10
REMARK    5  A    between atoms: P_8  and  O_12
REMARK    6  A    between atoms: C_14  and  C_16
REMARK    7  A    between atoms: C_16  and  O_17
REMARK                            x       y       z     vdW  Elec       q    Type
REMARK                         _______ _______ _______ _____ _____    ______ ____
ROOT
ATOM      1  N   UNL     1      36.655 -22.980 -15.637  0.00  0.00    -0.308 N 
ATOM      2  N   UNL     1      38.802 -23.943 -15.765  0.00  0.00    -0.369 N 
ATOM      3  C   UNL     1      37.570 -23.923 -15.146  0.00  0.00    +0.205 C 
ATOM      4  C   UNL     1      36.955 -22.061 -16.732  0.00  0.00    +0.129 C 
ATOM      5  H   UNL     1      38.993 -23.319 -16.503  0.00  0.00    +0.159 HD
ATOM      6  H   UNL     1      39.491 -24.580 -15.471  0.00  0.00    +0.159 HD
ENDROOT
BRANCH   3   7
ATOM      7  N   UNL     1      37.265 -24.731 -14.160  0.00  0.00    -0.144 NA
BRANCH   7   8
ATOM      8  P   UNL     1      37.330 -26.341 -14.200  0.00  0.00    +0.454 P 
ATOM      9  O   UNL     1      38.632 -26.965 -14.629  0.00  0.00    -0.233 OA
BRANCH   8  10
ATOM     10  O   UNL     1      36.080 -26.855 -15.103  0.00  0.00    -0.307 OA
ATOM     11  H   UNL     1      35.325 -27.052 -14.527  0.00  0.00    +0.222 HD
ENDBRANCH   8  10
BRANCH   8  12
ATOM     12  O   UNL     1      36.871 -26.862 -12.731  0.00  0.00    -0.307 OA
ATOM     13  H   UNL     1      37.118 -26.204 -12.062  0.00  0.00    +0.222 HD
ENDBRANCH   8  12
ENDBRANCH   7   8
ENDBRANCH   3   7
BRANCH   1  14
ATOM     14  C   UNL     1      35.366 -22.780 -14.978  0.00  0.00    +0.214 C 
BRANCH  14  16
ATOM     15  O   UNL     1      33.711 -23.636 -16.504  0.00  0.00    -0.248 OA
ATOM     16  C   UNL     1      34.313 -23.753 -15.443  0.00  0.00    +0.337 C 
BRANCH  16  17
ATOM     17  O   UNL     1      34.096 -24.770 -14.577  0.00  0.00    -0.479 OA
ATOM     18  H   UNL     1      33.354 -24.747 -14.005  0.00  0.00    +0.295 HD
ENDBRANCH  16  17
ENDBRANCH  14  16
ENDBRANCH   1  14
TORSDOF 7
ENDMDL
MODEL 9
REMARK VINA RESULT:      -6.0      3.170      4.364
REMARK  Name = 587
REMARK  7 active torsions:
REMARK  status: ('A' for Active; 'I' for Inactive)
REMARK    1  A    between atoms: N_1  and  C_14
REMARK    2  A    between atoms: N_2  and  C_4
REMARK    3  A    between atoms: N_2  and  P_8
REMARK    4  A    between atoms: P_8  and  O_10
REMARK    5  A    between atoms: P_8  and  O_12
REMARK    6  A    between atoms: C_14  and  C_16
REMARK    7  A    between atoms: C_16  and  O_17
REMARK                            x       y       z     vdW  Elec       q    Type
REMARK                         _______ _______ _______ _____ _____    ______ ____
ROOT
ATOM      1  N   UNL     1      37.791 -25.452 -14.047  0.00  0.00    -0.308 N 
ATOM      2  N   UNL     1      35.551 -25.385 -14.778  0.00  0.00    -0.369 N 
ATOM      3  C   UNL     1      36.831 -24.885 -14.899  0.00  0.00    +0.205 C 
ATOM      4  C   UNL     1      37.489 -26.504 -13.080  0.00  0.00    +0.129 C 
ATOM      5  H   UNL     1      35.360 -26.094 -14.122  0.00  0.00    +0.159 HD
ATOM      6  H   UNL     1      34.829 -25.032 -15.346  0.00  0.00    +0.159 HD
ENDROOT
BRANCH   3   7
ATOM      7  N   UNL     1      37.141 -23.942 -15.755  0.00  0.00    -0.144 NA
BRANCH   7   8
ATOM      8  P   UNL     1      36.233 -22.662 -16.122  0.00  0.00    +0.454 P 
ATOM      9  O   UNL     1      35.395 -22.749 -17.371  0.00  0.00    -0.233 OA
BRANCH   8  10
ATOM     10  O   UNL     1      37.209 -21.362 -16.133  0.00  0.00    -0.307 OA
ATOM     11  H   UNL     1      36.699 -20.573 -15.888  0.00  0.00    +0.222 HD
ENDBRANCH   8  10
BRANCH   8  12
ATOM     12  O   UNL     1      35.326 -22.343 -14.812  0.00  0.00    -0.307 OA
ATOM     13  H   UNL     1      35.101 -21.400 -14.796  0.00  0.00    +0.222 HD
ENDBRANCH   8  12
ENDBRANCH   7   8
ENDBRANCH   3   7
BRANCH   1  14
ATOM     14  C   UNL     1      39.151 -24.917 -13.997  0.00  0.00    +0.214 C 
BRANCH  14  16
ATOM     15  O   UNL     1      40.903 -26.568 -13.959  0.00  0.00    -0.248 OA
ATOM     16  C   UNL     1      40.167 -25.842 -14.616  0.00  0.00    +0.337 C 
BRANCH  16  17
ATOM     17  O   UNL     1      40.190 -25.793 -15.968  0.00  0.00    -0.479 OA
ATOM     18  H   UNL     1      40.970 -25.526 -16.414  0.00  0.00    +0.295 HD
ENDBRANCH  16  17
ENDBRANCH  14  16
ENDBRANCH   1  14
TORSDOF 7
ENDMDL
