MODEL 1
REMARK VINA RESULT:      -7.6      0.000      0.000
REMARK  Name = 154101
REMARK  4 active torsions:
REMARK  status: ('A' for Active; 'I' for Inactive)
REMARK    1  A    between atoms: C_1  and  C_3
REMARK    2  A    between atoms: C_1  and  C_10
REMARK    3  A    between atoms: C_1  and  C_17
REMARK    4  A    between atoms: C_17  and  O_18
REMARK                            x       y       z     vdW  Elec       q    Type
REMARK                         _______ _______ _______ _____ _____    ______ ____
ROOT
ATOM      1  C   UNL     1      34.408 -18.331 -22.257  0.00  0.00    +0.102 C 
ENDROOT
BRANCH   1   3
ATOM      2  N   UNL     1      35.399 -20.158 -20.977  0.00  0.00    +0.386 N 
ATOM      3  C   UNL     1      34.319 -19.164 -20.980  0.00  0.00    -0.047 C 
ATOM      4  C   UNL     1      32.949 -19.849 -20.879  0.00  0.00    -0.021 C 
ATOM      5  C   UNL     1      32.870 -20.749 -19.648  0.00  0.00    -0.004 C 
ATOM      6  C   UNL     1      34.048 -21.717 -19.617  0.00  0.00    -0.023 C 
ATOM      7  C   UNL     1      35.376 -20.978 -19.766  0.00  0.00    -0.082 C 
ATOM      8  H   UNL     1      36.295 -19.673 -21.031  0.00  0.00    -0.084 HD
ATOM      9  H   UNL     1      35.269 -20.772 -21.781  0.00  0.00    -0.084 HD
ENDBRANCH   1   3
BRANCH   1  10
ATOM     10  C   UNL     1      34.373 -16.836 -21.980  0.00  0.00    -0.014 C 
ATOM     11  C   UNL     1      34.526 -16.393 -20.683  0.00  0.00    -0.004 C 
ATOM     12  C   UNL     1      34.186 -15.966 -23.036  0.00  0.00    -0.004 C 
ATOM     13  C   UNL     1      34.493 -15.022 -20.429  0.00  0.00    -0.000 C 
ATOM     14  C   UNL     1      34.153 -14.595 -22.782  0.00  0.00    -0.000 C 
ATOM     15  C   UNL     1      34.306 -14.122 -21.479  0.00  0.00    -0.000 C 
ENDBRANCH   1  10
BRANCH   1  17
ATOM     16  O   UNL     1      36.792 -18.417 -22.795  0.00  0.00    -0.250 OA
ATOM     17  C   UNL     1      35.639 -18.727 -23.065  0.00  0.00    +0.319 C 
BRANCH  17  18
ATOM     18  O   UNL     1      35.257 -19.501 -24.127  0.00  0.00    -0.444 OA
ATOM     19  C   UNL     1      34.258 -18.931 -24.979  0.00  0.00    +0.256 C 
ENDBRANCH  17  18
ENDBRANCH   1  17
TORSDOF 4
ENDMDL
MODEL 2
REMARK VINA RESULT:      -7.5      1.250      4.791
REMARK  Name = 154101
REMARK  4 active torsions:
REMARK  status: ('A' for Active; 'I' for Inactive)
REMARK    1  A    between atoms: C_1  and  C_3
REMARK    2  A    between atoms: C_1  and  C_10
REMARK    3  A    between atoms: C_1  and  C_17
REMARK    4  A    between atoms: C_17  and  O_18
REMARK                            x       y       z     vdW  Elec       q    Type
REMARK                         _______ _______ _______ _____ _____    ______ ____
ROOT
ATOM      1  C   UNL     1      35.179 -18.232 -21.480  0.00  0.00    +0.102 C 
ENDROOT
BRANCH   1   3
ATOM      2  N   UNL     1      34.346 -16.400 -22.859  0.00  0.00    +0.386 N 
ATOM      3  C   UNL     1      34.207 -17.057 -21.554  0.00  0.00    -0.047 C 
ATOM      4  C   UNL     1      34.474 -16.065 -20.413  0.00  0.00    -0.021 C 
ATOM      5  C   UNL     1      33.563 -14.844 -20.518  0.00  0.00    -0.004 C 
ATOM      6  C   UNL     1      33.656 -14.225 -21.909  0.00  0.00    -0.023 C 
ATOM      7  C   UNL     1      33.425 -15.272 -22.996  0.00  0.00    -0.082 C 
ATOM      8  H   UNL     1      34.149 -17.079 -23.594  0.00  0.00    -0.084 HD
ATOM      9  H   UNL     1      35.299 -16.044 -22.937  0.00  0.00    -0.084 HD
ENDBRANCH   1   3
BRANCH   1  10
ATOM     10  C   UNL     1      34.583 -19.437 -20.768  0.00  0.00    -0.014 C 
ATOM     11  C   UNL     1      33.212 -19.531 -20.649  0.00  0.00    -0.004 C 
ATOM     12  C   UNL     1      35.432 -20.400 -20.260  0.00  0.00    -0.004 C 
ATOM     13  C   UNL     1      32.665 -20.636 -19.995  0.00  0.00    -0.000 C 
ATOM     14  C   UNL     1      34.885 -21.505 -19.607  0.00  0.00    -0.000 C 
ATOM     15  C   UNL     1      33.502 -21.622 -19.474  0.00  0.00    -0.000 C 
ENDBRANCH   1  10
BRANCH   1  17
ATOM     16  O   UNL     1      36.777 -18.280 -23.330  0.00  0.00    -0.250 OA
ATOM     17  C   UNL     1      35.686 -18.593 -22.873  0.00  0.00    +0.319 C 
BRANCH  17  18
ATOM     18  O   UNL     1      34.740 -19.339 -23.522  0.00  0.00    -0.444 OA
ATOM     19  C   UNL     1      34.461 -18.946 -24.870  0.00  0.00    +0.256 C 
ENDBRANCH  17  18
ENDBRANCH   1  17
TORSDOF 4
ENDMDL
MODEL 3
REMARK VINA RESULT:      -7.4      1.943      4.729
REMARK  Name = 154101
REMARK  4 active torsions:
REMARK  status: ('A' for Active; 'I' for Inactive)
REMARK    1  A    between atoms: C_1  and  C_3
REMARK    2  A    between atoms: C_1  and  C_10
REMARK    3  A    between atoms: C_1  and  C_17
REMARK    4  A    between atoms: C_17  and  O_18
REMARK                            x       y       z     vdW  Elec       q    Type
REMARK                         _______ _______ _______ _____ _____    ______ ____
ROOT
ATOM      1  C   UNL     1      35.053 -17.090 -22.264  0.00  0.00    +0.102 C 
ENDROOT
BRANCH   1   3
ATOM      2  N   UNL     1      33.700 -15.161 -22.899  0.00  0.00    +0.386 N 
ATOM      3  C   UNL     1      33.839 -16.234 -21.908  0.00  0.00    -0.047 C 
ATOM      4  C   UNL     1      33.986 -15.654 -20.494  0.00  0.00    -0.021 C 
ATOM      5  C   UNL     1      32.819 -14.731 -20.151  0.00  0.00    -0.004 C 
ATOM      6  C   UNL     1      32.636 -13.675 -21.236  0.00  0.00    -0.023 C 
ATOM      7  C   UNL     1      32.541 -14.314 -22.620  0.00  0.00    -0.082 C 
ATOM      8  H   UNL     1      33.590 -15.577 -23.824  0.00  0.00    -0.084 HD
ATOM      9  H   UNL     1      34.537 -14.579 -22.859  0.00  0.00    -0.084 HD
ENDBRANCH   1   3
BRANCH   1  10
ATOM     10  C   UNL     1      35.097 -18.392 -21.479  0.00  0.00    -0.014 C 
ATOM     11  C   UNL     1      36.320 -18.889 -21.078  0.00  0.00    -0.004 C 
ATOM     12  C   UNL     1      33.911 -19.039 -21.193  0.00  0.00    -0.004 C 
ATOM     13  C   UNL     1      36.360 -20.084 -20.359  0.00  0.00    -0.000 C 
ATOM     14  C   UNL     1      33.951 -20.234 -20.474  0.00  0.00    -0.000 C 
ATOM     15  C   UNL     1      35.176 -20.757 -20.057  0.00  0.00    -0.000 C 
ENDBRANCH   1  10
BRANCH   1  17
ATOM     16  O   UNL     1      35.265 -16.468 -24.619  0.00  0.00    -0.250 OA
ATOM     17  C   UNL     1      35.109 -17.334 -23.768  0.00  0.00    +0.319 C 
BRANCH  17  18
ATOM     18  O   UNL     1      34.979 -18.673 -24.017  0.00  0.00    -0.444 OA
ATOM     19  C   UNL     1      34.158 -19.018 -25.137  0.00  0.00    +0.256 C 
ENDBRANCH  17  18
ENDBRANCH   1  17
TORSDOF 4
ENDMDL
MODEL 4
REMARK VINA RESULT:      -7.2      2.105      3.462
REMARK  Name = 154101
REMARK  4 active torsions:
REMARK  status: ('A' for Active; 'I' for Inactive)
REMARK    1  A    between atoms: C_1  and  C_3
REMARK    2  A    between atoms: C_1  and  C_10
REMARK    3  A    between atoms: C_1  and  C_17
REMARK    4  A    between atoms: C_17  and  O_18
REMARK                            x       y       z     vdW  Elec       q    Type
REMARK                         _______ _______ _______ _____ _____    ______ ____
ROOT
ATOM      1  C   UNL     1      35.143 -17.028 -21.944  0.00  0.00    +0.102 C 
ENDROOT
BRANCH   1   3
ATOM      2  N   UNL     1      33.722 -18.759 -20.974  0.00  0.00    +0.386 N 
ATOM      3  C   UNL     1      34.976 -18.527 -21.701  0.00  0.00    -0.047 C 
ATOM      4  C   UNL     1      36.172 -19.081 -20.915  0.00  0.00    -0.021 C 
ATOM      5  C   UNL     1      35.984 -20.562 -20.595  0.00  0.00    -0.004 C 
ATOM      6  C   UNL     1      34.638 -20.796 -19.917  0.00  0.00    -0.023 C 
ATOM      7  C   UNL     1      33.498 -20.183 -20.726  0.00  0.00    -0.082 C 
ATOM      8  H   UNL     1      32.947 -18.393 -21.527  0.00  0.00    -0.084 HD
ATOM      9  H   UNL     1      33.783 -18.284 -20.074  0.00  0.00    -0.084 HD
ENDBRANCH   1   3
BRANCH   1  10
ATOM     10  C   UNL     1      34.626 -16.598 -23.308  0.00  0.00    -0.014 C 
ATOM     11  C   UNL     1      34.241 -15.286 -23.493  0.00  0.00    -0.004 C 
ATOM     12  C   UNL     1      34.556 -17.534 -24.321  0.00  0.00    -0.004 C 
ATOM     13  C   UNL     1      33.766 -14.892 -24.745  0.00  0.00    -0.000 C 
ATOM     14  C   UNL     1      34.082 -17.139 -25.572  0.00  0.00    -0.000 C 
ATOM     15  C   UNL     1      33.687 -15.818 -25.784  0.00  0.00    -0.000 C 
ENDBRANCH   1  10
BRANCH   1  17
ATOM     16  O   UNL     1      35.071 -15.827 -19.815  0.00  0.00    -0.250 OA
ATOM     17  C   UNL     1      34.495 -16.231 -20.817  0.00  0.00    +0.319 C 
BRANCH  17  18
ATOM     18  O   UNL     1      33.176 -16.018 -21.111  0.00  0.00    -0.444 OA
ATOM     19  C   UNL     1      32.507 -15.054 -20.291  0.00  0.00    +0.256 C 
ENDBRANCH  17  18
ENDBRANCH   1  17
TORSDOF 4
ENDMDL
MODEL 5
REMARK VINA RESULT:      -7.2      5.436      8.460
REMARK  Name = 154101
REMARK  4 active torsions:
REMARK  status: ('A' for Active; 'I' for Inactive)
REMARK    1  A    between atoms: C_1  and  C_3
REMARK    2  A    between atoms: C_1  and  C_10
REMARK    3  A    between atoms: C_1  and  C_17
REMARK    4  A    between atoms: C_17  and  O_18
REMARK                            x       y       z     vdW  Elec       q    Type
REMARK                         _______ _______ _______ _____ _____    ______ ____
ROOT
ATOM      1  C   UNL     1      33.547 -22.938 -16.475  0.00  0.00    +0.102 C 
ENDROOT
BRANCH   1   3
ATOM      2  N   UNL     1      31.273 -23.821 -16.515  0.00  0.00    +0.386 N 
ATOM      3  C   UNL     1      32.466 -23.662 -15.676  0.00  0.00    -0.047 C 
ATOM      4  C   UNL     1      32.132 -22.885 -14.395  0.00  0.00    -0.021 C 
ATOM      5  C   UNL     1      30.998 -23.553 -13.623  0.00  0.00    -0.004 C 
ATOM      6  C   UNL     1      29.797 -23.788 -14.533  0.00  0.00    -0.023 C 
ATOM      7  C   UNL     1      30.204 -24.526 -15.807  0.00  0.00    -0.082 C 
ATOM      8  H   UNL     1      31.523 -24.352 -17.349  0.00  0.00    -0.084 HD
ATOM      9  H   UNL     1      30.932 -22.892 -16.763  0.00  0.00    -0.084 HD
ENDBRANCH   1   3
BRANCH   1  10
ATOM     10  C   UNL     1      34.952 -23.302 -16.019  0.00  0.00    -0.014 C 
ATOM     11  C   UNL     1      35.136 -24.454 -15.282  0.00  0.00    -0.004 C 
ATOM     12  C   UNL     1      36.000 -22.469 -16.354  0.00  0.00    -0.004 C 
ATOM     13  C   UNL     1      36.424 -24.789 -14.863  0.00  0.00    -0.000 C 
ATOM     14  C   UNL     1      37.288 -22.804 -15.936  0.00  0.00    -0.000 C 
ATOM     15  C   UNL     1      37.500 -23.963 -15.190  0.00  0.00    -0.000 C 
ENDBRANCH   1  10
BRANCH   1  17
ATOM     16  O   UNL     1      33.733 -24.175 -18.576  0.00  0.00    -0.250 OA
ATOM     17  C   UNL     1      33.358 -23.180 -17.969  0.00  0.00    +0.319 C 
BRANCH  17  18
ATOM     18  O   UNL     1      32.684 -22.125 -18.520  0.00  0.00    -0.444 OA
ATOM     19  C   UNL     1      33.416 -21.360 -19.483  0.00  0.00    +0.256 C 
ENDBRANCH  17  18
ENDBRANCH   1  17
TORSDOF 4
ENDMDL
MODEL 6
REMARK VINA RESULT:      -7.2      2.204      5.259
REMARK  Name = 154101
REMARK  4 active torsions:
REMARK  status: ('A' for Active; 'I' for Inactive)
REMARK    1  A    between atoms: C_1  and  C_3
REMARK    2  A    between atoms: C_1  and  C_10
REMARK    3  A    between atoms: C_1  and  C_17
REMARK    4  A    between atoms: C_17  and  O_18
REMARK                            x       y       z     vdW  Elec       q    Type
REMARK                         _______ _______ _______ _____ _____    ______ ____
ROOT
ATOM      1  C   UNL     1      34.054 -18.144 -21.541  0.00  0.00    +0.102 C 
ENDROOT
BRANCH   1   3
ATOM      2  N   UNL     1      34.384 -16.550 -23.359  0.00  0.00    +0.386 N 
ATOM      3  C   UNL     1      34.688 -17.914 -22.912  0.00  0.00    -0.047 C 
ATOM      4  C   UNL     1      34.171 -18.946 -23.924  0.00  0.00    -0.021 C 
ATOM      5  C   UNL     1      34.733 -18.682 -25.318  0.00  0.00    -0.004 C 
ATOM      6  C   UNL     1      34.484 -17.235 -25.731  0.00  0.00    -0.023 C 
ATOM      7  C   UNL     1      34.981 -16.263 -24.663  0.00  0.00    -0.082 C 
ATOM      8  H   UNL     1      34.752 -15.888 -22.674  0.00  0.00    -0.084 HD
ATOM      9  H   UNL     1      33.372 -16.460 -23.444  0.00  0.00    -0.084 HD
ENDBRANCH   1   3
BRANCH   1  10
ATOM     10  C   UNL     1      34.647 -19.346 -20.821  0.00  0.00    -0.014 C 
ATOM     11  C   UNL     1      36.019 -19.468 -20.744  0.00  0.00    -0.004 C 
ATOM     12  C   UNL     1      33.794 -20.279 -20.267  0.00  0.00    -0.004 C 
ATOM     13  C   UNL     1      36.562 -20.570 -20.083  0.00  0.00    -0.000 C 
ATOM     14  C   UNL     1      34.338 -21.382 -19.606  0.00  0.00    -0.000 C 
ATOM     15  C   UNL     1      35.722 -21.527 -19.515  0.00  0.00    -0.000 C 
ENDBRANCH   1  10
BRANCH   1  17
ATOM     16  O   UNL     1      35.166 -16.433 -20.195  0.00  0.00    -0.250 OA
ATOM     17  C   UNL     1      34.142 -16.879 -20.695  0.00  0.00    +0.319 C 
BRANCH  17  18
ATOM     18  O   UNL     1      32.902 -16.308 -20.601  0.00  0.00    -0.444 OA
ATOM     19  C   UNL     1      32.883 -14.879 -20.520  0.00  0.00    +0.256 C 
ENDBRANCH  17  18
ENDBRANCH   1  17
TORSDOF 4
ENDMDL
MODEL 7
REMARK VINA RESULT:      -7.1      1.526      2.035
REMARK  Name = 154101
REMARK  4 active torsions:
REMARK  status: ('A' for Active; 'I' for Inactive)
REMARK    1  A    between atoms: C_1  and  C_3
REMARK    2  A    between atoms: C_1  and  C_10
REMARK    3  A    between atoms: C_1  and  C_17
REMARK    4  A    between atoms: C_17  and  O_18
REMARK                            x       y       z     vdW  Elec       q    Type
REMARK                         _______ _______ _______ _____ _____    ______ ____
ROOT
ATOM      1  C   UNL     1      34.045 -17.254 -22.487  0.00  0.00    +0.102 C 
ENDROOT
BRANCH   1   3
ATOM      2  N   UNL     1      35.952 -18.495 -21.603  0.00  0.00    +0.386 N 
ATOM      3  C   UNL     1      34.544 -18.159 -21.362  0.00  0.00    -0.047 C 
ATOM      4  C   UNL     1      33.687 -19.430 -21.274  0.00  0.00    -0.021 C 
ATOM      5  C   UNL     1      34.220 -20.383 -20.207  0.00  0.00    -0.004 C 
ATOM      6  C   UNL     1      35.705 -20.653 -20.424  0.00  0.00    -0.023 C 
ATOM      7  C   UNL     1      36.492 -19.349 -20.546  0.00  0.00    -0.082 C 
ATOM      8  H   UNL     1      36.496 -17.633 -21.642  0.00  0.00    -0.084 HD
ATOM      9  H   UNL     1      36.012 -19.003 -22.486  0.00  0.00    -0.084 HD
ENDBRANCH   1   3
BRANCH   1  10
ATOM     10  C   UNL     1      33.466 -15.947 -21.969  0.00  0.00    -0.014 C 
ATOM     11  C   UNL     1      33.090 -14.978 -22.876  0.00  0.00    -0.004 C 
ATOM     12  C   UNL     1      33.335 -15.768 -20.606  0.00  0.00    -0.004 C 
ATOM     13  C   UNL     1      32.558 -13.778 -22.401  0.00  0.00    -0.000 C 
ATOM     14  C   UNL     1      32.804 -14.568 -20.131  0.00  0.00    -0.000 C 
ATOM     15  C   UNL     1      32.416 -13.573 -21.028  0.00  0.00    -0.000 C 
ENDBRANCH   1  10
BRANCH   1  17
ATOM     16  O   UNL     1      35.830 -16.000 -23.592  0.00  0.00    -0.250 OA
ATOM     17  C   UNL     1      35.152 -17.016 -23.509  0.00  0.00    +0.319 C 
BRANCH  17  18
ATOM     18  O   UNL     1      35.285 -18.122 -24.302  0.00  0.00    -0.444 OA
ATOM     19  C   UNL     1      34.151 -18.438 -25.117  0.00  0.00    +0.256 C 
ENDBRANCH  17  18
ENDBRANCH   1  17
TORSDOF 4
ENDMDL
MODEL 8
REMARK VINA RESULT:      -7.0      2.563      4.210
REMARK  Name = 154101
REMARK  4 active torsions:
REMARK  status: ('A' for Active; 'I' for Inactive)
REMARK    1  A    between atoms: C_1  and  C_3
REMARK    2  A    between atoms: C_1  and  C_10
REMARK    3  A    between atoms: C_1  and  C_17
REMARK    4  A    between atoms: C_17  and  O_18
REMARK                            x       y       z     vdW  Elec       q    Type
REMARK                         _______ _______ _______ _____ _____    ______ ____
ROOT
ATOM      1  C   UNL     1      34.666 -15.620 -22.627  0.00  0.00    +0.102 C 
ENDROOT
BRANCH   1   3
ATOM      2  N   UNL     1      34.136 -17.536 -21.211  0.00  0.00    +0.386 N 
ATOM      3  C   UNL     1      34.321 -17.108 -22.603  0.00  0.00    -0.047 C 
ATOM      4  C   UNL     1      35.428 -17.927 -23.282  0.00  0.00    -0.021 C 
ATOM      5  C   UNL     1      35.138 -19.424 -23.197  0.00  0.00    -0.004 C 
ATOM      6  C   UNL     1      34.863 -19.834 -21.754  0.00  0.00    -0.023 C 
ATOM      7  C   UNL     1      33.787 -18.953 -21.124  0.00  0.00    -0.082 C 
ATOM      8  H   UNL     1      33.387 -16.984 -20.793  0.00  0.00    -0.084 HD
ATOM      9  H   UNL     1      35.015 -17.393 -20.714  0.00  0.00    -0.084 HD
ENDBRANCH   1   3
BRANCH   1  10
ATOM     10  C   UNL     1      34.099 -14.911 -23.848  0.00  0.00    -0.014 C 
ATOM     11  C   UNL     1      33.661 -15.667 -24.916  0.00  0.00    -0.004 C 
ATOM     12  C   UNL     1      34.041 -13.532 -23.852  0.00  0.00    -0.004 C 
ATOM     13  C   UNL     1      33.142 -15.017 -26.035  0.00  0.00    -0.000 C 
ATOM     14  C   UNL     1      33.522 -12.882 -24.972  0.00  0.00    -0.000 C 
ATOM     15  C   UNL     1      33.072 -13.624 -26.064  0.00  0.00    -0.000 C 
ENDBRANCH   1  10
BRANCH   1  17
ATOM     16  O   UNL     1      34.974 -14.589 -20.431  0.00  0.00    -0.250 OA
ATOM     17  C   UNL     1      34.225 -14.950 -21.330  0.00  0.00    +0.319 C 
BRANCH  17  18
ATOM     18  O   UNL     1      32.866 -14.795 -21.336  0.00  0.00    -0.444 OA
ATOM     19  C   UNL     1      32.372 -13.635 -20.659  0.00  0.00    +0.256 C 
ENDBRANCH  17  18
ENDBRANCH   1  17
TORSDOF 4
ENDMDL
MODEL 9
REMARK VINA RESULT:      -7.0      5.348      7.724
REMARK  Name = 154101
REMARK  4 active torsions:
REMARK  status: ('A' for Active; 'I' for Inactive)
REMARK    1  A    between atoms: C_1  and  C_3
REMARK    2  A    between atoms: C_1  and  C_10
REMARK    3  A    between atoms: C_1  and  C_17
REMARK    4  A    between atoms: C_17  and  O_18
REMARK                            x       y       z     vdW  Elec       q    Type
REMARK                         _______ _______ _______ _____ _____    ______ ____
ROOT
ATOM      1  C   UNL     1      34.024 -23.386 -16.733  0.00  0.00    +0.102 C 
ENDROOT
BRANCH   1   3
ATOM      2  N   UNL     1      32.977 -23.325 -14.530  0.00  0.00    +0.386 N 
ATOM      3  C   UNL     1      32.796 -22.949 -15.937  0.00  0.00    -0.047 C 
ATOM      4  C   UNL     1      31.526 -23.589 -16.513  0.00  0.00    -0.021 C 
ATOM      5  C   UNL     1      30.298 -23.227 -15.681  0.00  0.00    -0.004 C 
ATOM      6  C   UNL     1      30.536 -23.545 -14.209  0.00  0.00    -0.023 C 
ATOM      7  C   UNL     1      31.836 -22.916 -13.711  0.00  0.00    -0.082 C 
ATOM      8  H   UNL     1      33.819 -22.874 -14.172  0.00  0.00    -0.084 HD
ATOM      9  H   UNL     1      33.058 -24.340 -14.479  0.00  0.00    -0.084 HD
ENDBRANCH   1   3
BRANCH   1  10
ATOM     10  C   UNL     1      34.294 -22.485 -17.928  0.00  0.00    -0.014 C 
ATOM     11  C   UNL     1      33.229 -22.043 -18.685  0.00  0.00    -0.004 C 
ATOM     12  C   UNL     1      35.597 -22.136 -18.220  0.00  0.00    -0.004 C 
ATOM     13  C   UNL     1      33.477 -21.216 -19.781  0.00  0.00    -0.000 C 
ATOM     14  C   UNL     1      35.845 -21.309 -19.316  0.00  0.00    -0.000 C 
ATOM     15  C   UNL     1      34.785 -20.850 -20.097  0.00  0.00    -0.000 C 
ENDBRANCH   1  10
BRANCH   1  17
ATOM     16  O   UNL     1      35.733 -22.567 -15.188  0.00  0.00    -0.250 OA
ATOM     17  C   UNL     1      35.241 -23.493 -15.819  0.00  0.00    +0.319 C 
BRANCH  17  18
ATOM     18  O   UNL     1      35.682 -24.787 -15.798  0.00  0.00    -0.444 OA
ATOM     19  C   UNL     1      36.310 -25.207 -14.583  0.00  0.00    +0.256 C 
ENDBRANCH  17  18
ENDBRANCH   1  17
TORSDOF 4
ENDMDL
