MODEL 1
REMARK VINA RESULT:      -4.1      0.000      0.000
REMARK  Name = 31260
REMARK  3 active torsions:
REMARK  status: ('A' for Active; 'I' for Inactive)
REMARK    1  A    between atoms: C_1  and  C_2
REMARK    2  A    between atoms: C_1  and  C_5
REMARK    3  A    between atoms: C_5  and  O_6
REMARK                            x       y       z     vdW  Elec       q    Type
REMARK                         _______ _______ _______ _____ _____    ______ ____
ROOT
ATOM      1  C   UNL     1      33.271 -20.506 -20.207  0.00  0.00    +0.032 C 
ENDROOT
BRANCH   1   2
ATOM      2  C   UNL     1      34.483 -19.697 -20.695  0.00  0.00    +0.002 C 
ATOM      3  C   UNL     1      35.774 -20.470 -20.411  0.00  0.00    +0.000 C 
ATOM      4  C   UNL     1      34.399 -19.363 -22.185  0.00  0.00    +0.000 C 
ENDBRANCH   1   2
BRANCH   1   5
ATOM      5  C   UNL     1      33.644 -21.753 -19.415  0.00  0.00    +0.137 C 
BRANCH   5   6
ATOM      6  O   UNL     1      32.521 -22.155 -18.641  0.00  0.00    -0.382 OA
ATOM      7  H   UNL     1      32.721 -22.044 -17.698  0.00  0.00    +0.210 HD
ENDBRANCH   5   6
ENDBRANCH   1   5
TORSDOF 3
ENDMDL
MODEL 2
REMARK VINA RESULT:      -4.0     10.289     10.870
REMARK  Name = 31260
REMARK  3 active torsions:
REMARK  status: ('A' for Active; 'I' for Inactive)
REMARK    1  A    between atoms: C_1  and  C_2
REMARK    2  A    between atoms: C_1  and  C_5
REMARK    3  A    between atoms: C_5  and  O_6
REMARK                            x       y       z     vdW  Elec       q    Type
REMARK                         _______ _______ _______ _____ _____    ______ ____
ROOT
ATOM      1  C   UNL     1      41.505 -13.529 -15.515  0.00  0.00    +0.032 C 
ENDROOT
BRANCH   1   2
ATOM      2  C   UNL     1      41.904 -14.542 -16.599  0.00  0.00    +0.002 C 
ATOM      3  C   UNL     1      41.576 -15.962 -16.131  0.00  0.00    +0.000 C 
ATOM      4  C   UNL     1      41.214 -14.267 -17.936  0.00  0.00    +0.000 C 
ENDBRANCH   1   2
BRANCH   1   5
ATOM      5  C   UNL     1      40.676 -14.130 -14.388  0.00  0.00    +0.137 C 
BRANCH   5   6
ATOM      6  O   UNL     1      40.847 -13.335 -13.221  0.00  0.00    -0.382 OA
ATOM      7  H   UNL     1      41.321 -12.520 -13.451  0.00  0.00    +0.210 HD
ENDBRANCH   5   6
ENDBRANCH   1   5
TORSDOF 3
ENDMDL
MODEL 3
REMARK VINA RESULT:      -4.0      1.281      1.801
REMARK  Name = 31260
REMARK  3 active torsions:
REMARK  status: ('A' for Active; 'I' for Inactive)
REMARK    1  A    between atoms: C_1  and  C_2
REMARK    2  A    between atoms: C_1  and  C_5
REMARK    3  A    between atoms: C_5  and  O_6
REMARK                            x       y       z     vdW  Elec       q    Type
REMARK                         _______ _______ _______ _____ _____    ______ ____
ROOT
ATOM      1  C   UNL     1      34.741 -21.180 -19.715  0.00  0.00    +0.032 C 
ENDROOT
BRANCH   1   2
ATOM      2  C   UNL     1      34.192 -20.276 -20.830  0.00  0.00    +0.002 C 
ATOM      3  C   UNL     1      32.737 -19.908 -20.532  0.00  0.00    +0.000 C 
ATOM      4  C   UNL     1      35.020 -19.002 -21.007  0.00  0.00    +0.000 C 
ENDBRANCH   1   2
BRANCH   1   5
ATOM      5  C   UNL     1      33.693 -22.097 -19.097  0.00  0.00    +0.137 C 
BRANCH   5   6
ATOM      6  O   UNL     1      33.993 -23.440 -19.457  0.00  0.00    -0.382 OA
ATOM      7  H   UNL     1      33.198 -23.862 -19.822  0.00  0.00    +0.210 HD
ENDBRANCH   5   6
ENDBRANCH   1   5
TORSDOF 3
ENDMDL
MODEL 4
REMARK VINA RESULT:      -4.0      2.581      3.724
REMARK  Name = 31260
REMARK  3 active torsions:
REMARK  status: ('A' for Active; 'I' for Inactive)
REMARK    1  A    between atoms: C_1  and  C_2
REMARK    2  A    between atoms: C_1  and  C_5
REMARK    3  A    between atoms: C_5  and  O_6
REMARK                            x       y       z     vdW  Elec       q    Type
REMARK                         _______ _______ _______ _____ _____    ______ ____
ROOT
ATOM      1  C   UNL     1      34.851 -19.323 -21.992  0.00  0.00    +0.032 C 
ENDROOT
BRANCH   1   2
ATOM      2  C   UNL     1      34.342 -19.770 -20.613  0.00  0.00    +0.002 C 
ATOM      3  C   UNL     1      32.859 -20.138 -20.700  0.00  0.00    +0.000 C 
ATOM      4  C   UNL     1      35.135 -20.952 -20.054  0.00  0.00    +0.000 C 
ENDBRANCH   1   2
BRANCH   1   5
ATOM      5  C   UNL     1      35.384 -17.896 -22.016  0.00  0.00    +0.137 C 
BRANCH   5   6
ATOM      6  O   UNL     1      35.369 -17.381 -20.690  0.00  0.00    -0.382 OA
ATOM      7  H   UNL     1      34.882 -17.989 -20.112  0.00  0.00    +0.210 HD
ENDBRANCH   5   6
ENDBRANCH   1   5
TORSDOF 3
ENDMDL
MODEL 5
REMARK VINA RESULT:      -4.0      1.363      2.088
REMARK  Name = 31260
REMARK  3 active torsions:
REMARK  status: ('A' for Active; 'I' for Inactive)
REMARK    1  A    between atoms: C_1  and  C_2
REMARK    2  A    between atoms: C_1  and  C_5
REMARK    3  A    between atoms: C_5  and  O_6
REMARK                            x       y       z     vdW  Elec       q    Type
REMARK                         _______ _______ _______ _____ _____    ______ ____
ROOT
ATOM      1  C   UNL     1      35.369 -20.810 -20.149  0.00  0.00    +0.032 C 
ENDROOT
BRANCH   1   2
ATOM      2  C   UNL     1      34.357 -19.768 -20.650  0.00  0.00    +0.002 C 
ATOM      3  C   UNL     1      34.618 -19.455 -22.125  0.00  0.00    +0.000 C 
ATOM      4  C   UNL     1      32.909 -20.227 -20.468  0.00  0.00    +0.000 C 
ENDBRANCH   1   2
BRANCH   1   5
ATOM      5  C   UNL     1      34.731 -21.979 -19.410  0.00  0.00    +0.137 C 
BRANCH   5   6
ATOM      6  O   UNL     1      35.528 -22.290 -18.273  0.00  0.00    -0.382 OA
ATOM      7  H   UNL     1      36.442 -22.001 -18.430  0.00  0.00    +0.210 HD
ENDBRANCH   5   6
ENDBRANCH   1   5
TORSDOF 3
ENDMDL
MODEL 6
REMARK VINA RESULT:      -3.9      1.242      1.843
REMARK  Name = 31260
REMARK  3 active torsions:
REMARK  status: ('A' for Active; 'I' for Inactive)
REMARK    1  A    between atoms: C_1  and  C_2
REMARK    2  A    between atoms: C_1  and  C_5
REMARK    3  A    between atoms: C_5  and  O_6
REMARK                            x       y       z     vdW  Elec       q    Type
REMARK                         _______ _______ _______ _____ _____    ______ ____
ROOT
ATOM      1  C   UNL     1      33.561 -19.596 -20.974  0.00  0.00    +0.032 C 
ENDROOT
BRANCH   1   2
ATOM      2  C   UNL     1      34.886 -19.146 -21.611  0.00  0.00    +0.002 C 
ATOM      3  C   UNL     1      34.787 -19.237 -23.136  0.00  0.00    +0.000 C 
ATOM      4  C   UNL     1      35.275 -17.724 -21.203  0.00  0.00    +0.000 C 
ENDBRANCH   1   2
BRANCH   1   5
ATOM      5  C   UNL     1      33.708 -20.777 -20.023  0.00  0.00    +0.137 C 
BRANCH   5   6
ATOM      6  O   UNL     1      32.482 -20.952 -19.322  0.00  0.00    -0.382 OA
ATOM      7  H   UNL     1      31.789 -20.421 -19.745  0.00  0.00    +0.210 HD
ENDBRANCH   5   6
ENDBRANCH   1   5
TORSDOF 3
ENDMDL
MODEL 7
REMARK VINA RESULT:      -3.9      3.720      4.590
REMARK  Name = 31260
REMARK  3 active torsions:
REMARK  status: ('A' for Active; 'I' for Inactive)
REMARK    1  A    between atoms: C_1  and  C_2
REMARK    2  A    between atoms: C_1  and  C_5
REMARK    3  A    between atoms: C_5  and  O_6
REMARK                            x       y       z     vdW  Elec       q    Type
REMARK                         _______ _______ _______ _____ _____    ______ ____
ROOT
ATOM      1  C   UNL     1      34.832 -18.352 -22.987  0.00  0.00    +0.032 C 
ENDROOT
BRANCH   1   2
ATOM      2  C   UNL     1      35.017 -19.416 -21.893  0.00  0.00    +0.002 C 
ATOM      3  C   UNL     1      36.210 -19.050 -21.007  0.00  0.00    +0.000 C 
ATOM      4  C   UNL     1      33.766 -19.587 -21.030  0.00  0.00    +0.000 C 
ENDBRANCH   1   2
BRANCH   1   5
ATOM      5  C   UNL     1      35.160 -16.937 -22.529  0.00  0.00    +0.137 C 
BRANCH   5   6
ATOM      6  O   UNL     1      35.722 -16.222 -23.623  0.00  0.00    -0.382 OA
ATOM      7  H   UNL     1      35.977 -15.332 -23.331  0.00  0.00    +0.210 HD
ENDBRANCH   5   6
ENDBRANCH   1   5
TORSDOF 3
ENDMDL
MODEL 8
REMARK VINA RESULT:      -3.9      9.906     10.634
REMARK  Name = 31260
REMARK  3 active torsions:
REMARK  status: ('A' for Active; 'I' for Inactive)
REMARK    1  A    between atoms: C_1  and  C_2
REMARK    2  A    between atoms: C_1  and  C_5
REMARK    3  A    between atoms: C_5  and  O_6
REMARK                            x       y       z     vdW  Elec       q    Type
REMARK                         _______ _______ _______ _____ _____    ______ ____
ROOT
ATOM      1  C   UNL     1      41.132 -14.458 -15.620  0.00  0.00    +0.032 C 
ENDROOT
BRANCH   1   2
ATOM      2  C   UNL     1      41.968 -13.989 -16.821  0.00  0.00    +0.002 C 
ATOM      3  C   UNL     1      41.198 -14.239 -18.120  0.00  0.00    +0.000 C 
ATOM      4  C   UNL     1      42.350 -12.512 -16.724  0.00  0.00    +0.000 C 
ENDBRANCH   1   2
BRANCH   1   5
ATOM      5  C   UNL     1      41.064 -15.973 -15.473  0.00  0.00    +0.137 C 
BRANCH   5   6
ATOM      6  O   UNL     1      42.372 -16.507 -15.645  0.00  0.00    -0.382 OA
ATOM      7  H   UNL     1      43.017 -15.927 -15.210  0.00  0.00    +0.210 HD
ENDBRANCH   5   6
ENDBRANCH   1   5
TORSDOF 3
ENDMDL
MODEL 9
REMARK VINA RESULT:      -3.9      3.206      4.032
REMARK  Name = 31260
REMARK  3 active torsions:
REMARK  status: ('A' for Active; 'I' for Inactive)
REMARK    1  A    between atoms: C_1  and  C_2
REMARK    2  A    between atoms: C_1  and  C_5
REMARK    3  A    between atoms: C_5  and  O_6
REMARK                            x       y       z     vdW  Elec       q    Type
REMARK                         _______ _______ _______ _____ _____    ______ ____
ROOT
ATOM      1  C   UNL     1      35.521 -18.119 -21.033  0.00  0.00    +0.032 C 
ENDROOT
BRANCH   1   2
ATOM      2  C   UNL     1      34.891 -19.363 -21.680  0.00  0.00    +0.002 C 
ATOM      3  C   UNL     1      33.546 -19.669 -21.017  0.00  0.00    +0.000 C 
ATOM      4  C   UNL     1      34.697 -19.201 -23.188  0.00  0.00    +0.000 C 
ENDBRANCH   1   2
BRANCH   1   5
ATOM      5  C   UNL     1      34.817 -16.817 -21.393  0.00  0.00    +0.137 C 
BRANCH   5   6
ATOM      6  O   UNL     1      34.989 -15.896 -20.323  0.00  0.00    -0.382 OA
ATOM      7  H   UNL     1      34.132 -15.730 -19.898  0.00  0.00    +0.210 HD
ENDBRANCH   5   6
ENDBRANCH   1   5
TORSDOF 3
ENDMDL
