MODEL 1
REMARK VINA RESULT:     -10.2      0.000      0.000
REMARK  Name = 5281855
REMARK  4 active torsions:
REMARK  status: ('A' for Active; 'I' for Inactive)
REMARK    1  A    between atoms: C_11  and  O_19
REMARK    2  A    between atoms: C_12  and  O_21
REMARK    3  A    between atoms: C_17  and  O_23
REMARK    4  A    between atoms: C_18  and  O_25
REMARK                            x       y       z     vdW  Elec       q    Type
REMARK                         _______ _______ _______ _____ _____    ______ ____
ROOT
ATOM      1  O   UNL     1      36.487 -23.015 -16.586  0.00  0.00    -0.418 OA
ATOM      2  O   UNL     1      33.618 -24.374 -12.673  0.00  0.00    -0.418 OA
ATOM      3  O   UNL     1      38.631 -23.217 -15.800  0.00  0.00    -0.244 OA
ATOM      4  O   UNL     1      31.474 -24.169 -13.458  0.00  0.00    -0.244 OA
ATOM      5  C   UNL     1      34.596 -23.533 -15.158  0.00  0.00    +0.047 A 
ATOM      6  C   UNL     1      35.509 -23.856 -14.101  0.00  0.00    +0.047 A 
ATOM      7  C   UNL     1      36.888 -23.760 -14.287  0.00  0.00    +0.082 A 
ATOM      8  C   UNL     1      33.218 -23.629 -14.973  0.00  0.00    +0.082 A 
ATOM      9  C   UNL     1      35.091 -23.116 -16.387  0.00  0.00    +0.185 A 
ATOM     10  C   UNL     1      35.014 -24.272 -12.872  0.00  0.00    +0.185 A 
ATOM     11  C   UNL     1      34.245 -22.791 -17.443  0.00  0.00    +0.203 C 
ATOM     12  C   UNL     1      35.860 -24.597 -11.816  0.00  0.00    +0.203 C 
ATOM     13  C   UNL     1      37.757 -24.082 -13.237  0.00  0.00    +0.046 C 
ATOM     14  C   UNL     1      32.349 -23.308 -16.022  0.00  0.00    +0.046 C 
ATOM     15  C   UNL     1      37.428 -23.316 -15.595  0.00  0.00    +0.346 A 
ATOM     16  C   UNL     1      32.677 -24.073 -13.664  0.00  0.00    +0.346 A 
ATOM     17  C   UNL     1      32.867 -22.890 -17.254  0.00  0.00    +0.171 C 
ATOM     18  C   UNL     1      37.239 -24.500 -12.006  0.00  0.00    +0.171 C 
ENDROOT
BRANCH  11  19
ATOM     19  O   UNL     1      34.752 -22.386 -18.639  0.00  0.00    -0.501 OA
ATOM     20  H   UNL     1      35.659 -22.516 -18.832  0.00  0.00    +0.292 HD
ENDBRANCH  11  19
BRANCH  12  21
ATOM     21  O   UNL     1      35.354 -25.003 -10.620  0.00  0.00    -0.501 OA
ATOM     22  H   UNL     1      34.791 -24.435 -10.132  0.00  0.00    +0.292 HD
ENDBRANCH  12  21
BRANCH  17  23
ATOM     23  O   UNL     1      32.008 -22.579 -18.265  0.00  0.00    -0.503 OA
ATOM     24  H   UNL     1      32.012 -21.719 -18.635  0.00  0.00    +0.292 HD
ENDBRANCH  17  23
BRANCH  18  25
ATOM     25  O   UNL     1      38.097 -24.810 -10.994  0.00  0.00    -0.503 OA
ATOM     26  H   UNL     1      37.991 -24.414 -10.151  0.00  0.00    +0.292 HD
ENDBRANCH  18  25
TORSDOF 4
ENDMDL
MODEL 2
REMARK VINA RESULT:     -10.1      0.018      6.255
REMARK  Name = 5281855
REMARK  4 active torsions:
REMARK  status: ('A' for Active; 'I' for Inactive)
REMARK    1  A    between atoms: C_11  and  O_19
REMARK    2  A    between atoms: C_12  and  O_21
REMARK    3  A    between atoms: C_17  and  O_23
REMARK    4  A    between atoms: C_18  and  O_25
REMARK                            x       y       z     vdW  Elec       q    Type
REMARK                         _______ _______ _______ _____ _____    ______ ____
ROOT
ATOM      1  O   UNL     1      33.602 -24.359 -12.668  0.00  0.00    -0.418 OA
ATOM      2  O   UNL     1      36.480 -23.028 -16.585  0.00  0.00    -0.418 OA
ATOM      3  O   UNL     1      31.460 -24.144 -13.455  0.00  0.00    -0.244 OA
ATOM      4  O   UNL     1      38.622 -23.239 -15.797  0.00  0.00    -0.244 OA
ATOM      5  C   UNL     1      35.497 -23.856 -14.098  0.00  0.00    +0.047 A 
ATOM      6  C   UNL     1      34.585 -23.530 -15.156  0.00  0.00    +0.047 A 
ATOM      7  C   UNL     1      33.206 -23.618 -14.970  0.00  0.00    +0.082 A 
ATOM      8  C   UNL     1      36.875 -23.769 -14.283  0.00  0.00    +0.082 A 
ATOM      9  C   UNL     1      34.998 -24.266 -12.867  0.00  0.00    +0.185 A 
ATOM     10  C   UNL     1      35.084 -23.120 -16.386  0.00  0.00    +0.185 A 
ATOM     11  C   UNL     1      35.843 -24.593 -11.810  0.00  0.00    +0.203 C 
ATOM     12  C   UNL     1      34.239 -22.794 -17.443  0.00  0.00    +0.203 C 
ATOM     13  C   UNL     1      32.340 -23.294 -16.021  0.00  0.00    +0.046 C 
ATOM     14  C   UNL     1      37.742 -24.094 -13.233  0.00  0.00    +0.046 C 
ATOM     15  C   UNL     1      32.663 -24.055 -13.660  0.00  0.00    +0.346 A 
ATOM     16  C   UNL     1      37.419 -23.332 -15.593  0.00  0.00    +0.346 A 
ATOM     17  C   UNL     1      37.222 -24.505 -12.000  0.00  0.00    +0.171 C 
ATOM     18  C   UNL     1      32.860 -22.883 -17.253  0.00  0.00    +0.171 C 
ENDROOT
BRANCH  11  19
ATOM     19  O   UNL     1      35.333 -24.992 -10.614  0.00  0.00    -0.501 OA
ATOM     20  H   UNL     1      34.416 -24.908 -10.443  0.00  0.00    +0.292 HD
ENDBRANCH  11  19
BRANCH  12  21
ATOM     21  O   UNL     1      34.749 -22.395 -18.640  0.00  0.00    -0.501 OA
ATOM     22  H   UNL     1      34.237 -21.857 -19.212  0.00  0.00    +0.292 HD
ENDBRANCH  12  21
BRANCH  17  23
ATOM     23  O   UNL     1      38.078 -24.816 -10.987  0.00  0.00    -0.503 OA
ATOM     24  H   UNL     1      37.841 -25.466 -10.356  0.00  0.00    +0.292 HD
ENDBRANCH  17  23
BRANCH  18  25
ATOM     25  O   UNL     1      32.004 -22.571 -18.266  0.00  0.00    -0.503 OA
ATOM     26  H   UNL     1      32.337 -22.240 -19.077  0.00  0.00    +0.292 HD
ENDBRANCH  18  25
TORSDOF 4
ENDMDL
MODEL 3
REMARK VINA RESULT:     -10.0      1.161      4.911
REMARK  Name = 5281855
REMARK  4 active torsions:
REMARK  status: ('A' for Active; 'I' for Inactive)
REMARK    1  A    between atoms: C_11  and  O_19
REMARK    2  A    between atoms: C_12  and  O_21
REMARK    3  A    between atoms: C_17  and  O_23
REMARK    4  A    between atoms: C_18  and  O_25
REMARK                            x       y       z     vdW  Elec       q    Type
REMARK                         _______ _______ _______ _____ _____    ______ ____
ROOT
ATOM      1  O   UNL     1      34.488 -22.794 -17.358  0.00  0.00    -0.418 OA
ATOM      2  O   UNL     1      33.114 -24.569 -12.847  0.00  0.00    -0.418 OA
ATOM      3  O   UNL     1      32.502 -22.480 -18.460  0.00  0.00    -0.244 OA
ATOM      4  O   UNL     1      35.099 -24.885 -11.746  0.00  0.00    -0.244 OA
ATOM      5  C   UNL     1      34.517 -23.650 -15.088  0.00  0.00    +0.047 A 
ATOM      6  C   UNL     1      33.085 -23.713 -15.117  0.00  0.00    +0.047 A 
ATOM      7  C   UNL     1      32.369 -23.322 -16.248  0.00  0.00    +0.082 A 
ATOM      8  C   UNL     1      35.232 -24.040 -13.958  0.00  0.00    +0.082 A 
ATOM      9  C   UNL     1      35.203 -23.192 -16.206  0.00  0.00    +0.185 A 
ATOM     10  C   UNL     1      32.398 -24.171 -13.999  0.00  0.00    +0.185 A 
ATOM     11  C   UNL     1      36.593 -23.113 -16.227  0.00  0.00    +0.203 C 
ATOM     12  C   UNL     1      31.009 -24.250 -13.978  0.00  0.00    +0.203 C 
ATOM     13  C   UNL     1      30.971 -23.395 -16.247  0.00  0.00    +0.046 C 
ATOM     14  C   UNL     1      36.630 -23.967 -13.958  0.00  0.00    +0.046 C 
ATOM     15  C   UNL     1      33.092 -22.832 -17.447  0.00  0.00    +0.346 A 
ATOM     16  C   UNL     1      34.509 -24.531 -12.758  0.00  0.00    +0.346 A 
ATOM     17  C   UNL     1      37.305 -23.503 -15.093  0.00  0.00    +0.171 C 
ATOM     18  C   UNL     1      30.296 -23.858 -15.111  0.00  0.00    +0.171 C 
ENDROOT
BRANCH  11  19
ATOM     19  O   UNL     1      37.245 -22.661 -17.332  0.00  0.00    -0.501 OA
ATOM     20  H   UNL     1      36.896 -21.944 -17.823  0.00  0.00    +0.292 HD
ENDBRANCH  11  19
BRANCH  12  21
ATOM     21  O   UNL     1      30.356 -24.701 -12.873  0.00  0.00    -0.501 OA
ATOM     22  H   UNL     1      30.177 -24.117 -12.163  0.00  0.00    +0.292 HD
ENDBRANCH  12  21
BRANCH  17  23
ATOM     23  O   UNL     1      38.666 -23.440 -15.079  0.00  0.00    -0.503 OA
ATOM     24  H   UNL     1      39.171 -24.106 -15.501  0.00  0.00    +0.292 HD
ENDBRANCH  17  23
BRANCH  18  25
ATOM     25  O   UNL     1      28.935 -23.923 -15.126  0.00  0.00    -0.503 OA
ATOM     26  H   UNL     1      28.496 -24.650 -14.733  0.00  0.00    +0.292 HD
ENDBRANCH  18  25
TORSDOF 4
ENDMDL
MODEL 4
REMARK VINA RESULT:     -10.0      1.184      4.366
REMARK  Name = 5281855
REMARK  4 active torsions:
REMARK  status: ('A' for Active; 'I' for Inactive)
REMARK    1  A    between atoms: C_11  and  O_19
REMARK    2  A    between atoms: C_12  and  O_21
REMARK    3  A    between atoms: C_17  and  O_23
REMARK    4  A    between atoms: C_18  and  O_25
REMARK                            x       y       z     vdW  Elec       q    Type
REMARK                         _______ _______ _______ _____ _____    ______ ____
ROOT
ATOM      1  O   UNL     1      33.116 -24.569 -12.911  0.00  0.00    -0.418 OA
ATOM      2  O   UNL     1      34.323 -22.712 -17.437  0.00  0.00    -0.418 OA
ATOM      3  O   UNL     1      35.139 -24.856 -11.871  0.00  0.00    -0.244 OA
ATOM      4  O   UNL     1      32.301 -22.427 -18.478  0.00  0.00    -0.244 OA
ATOM      5  C   UNL     1      33.005 -23.686 -15.168  0.00  0.00    +0.047 A 
ATOM      6  C   UNL     1      34.435 -23.594 -15.180  0.00  0.00    +0.047 A 
ATOM      7  C   UNL     1      35.191 -23.984 -14.075  0.00  0.00    +0.082 A 
ATOM      8  C   UNL     1      32.249 -23.297 -16.273  0.00  0.00    +0.082 A 
ATOM      9  C   UNL     1      32.360 -24.171 -14.037  0.00  0.00    +0.185 A 
ATOM     10  C   UNL     1      35.080 -23.109 -16.311  0.00  0.00    +0.185 A 
ATOM     11  C   UNL     1      30.974 -24.279 -13.977  0.00  0.00    +0.203 C 
ATOM     12  C   UNL     1      36.466 -23.001 -16.371  0.00  0.00    +0.203 C 
ATOM     13  C   UNL     1      36.587 -23.883 -14.115  0.00  0.00    +0.046 C 
ATOM     14  C   UNL     1      30.853 -23.397 -16.233  0.00  0.00    +0.046 C 
ATOM     15  C   UNL     1      34.513 -24.503 -12.862  0.00  0.00    +0.346 A 
ATOM     16  C   UNL     1      32.927 -22.778 -17.486  0.00  0.00    +0.346 A 
ATOM     17  C   UNL     1      30.221 -23.888 -15.084  0.00  0.00    +0.171 C 
ATOM     18  C   UNL     1      37.219 -23.392 -15.263  0.00  0.00    +0.171 C 
ENDROOT
BRANCH  11  19
ATOM     19  O   UNL     1      30.363 -24.757 -12.860  0.00  0.00    -0.501 OA
ATOM     20  H   UNL     1      29.608 -24.321 -12.515  0.00  0.00    +0.292 HD
ENDBRANCH  11  19
BRANCH  12  21
ATOM     21  O   UNL     1      37.077 -22.524 -17.489  0.00  0.00    -0.501 OA
ATOM     22  H   UNL     1      36.568 -22.299 -18.242  0.00  0.00    +0.292 HD
ENDBRANCH  12  21
BRANCH  17  23
ATOM     23  O   UNL     1      28.862 -23.981 -15.061  0.00  0.00    -0.503 OA
ATOM     24  H   UNL     1      28.382 -24.039 -15.864  0.00  0.00    +0.292 HD
ENDBRANCH  17  23
BRANCH  18  25
ATOM     25  O   UNL     1      38.578 -23.300 -15.287  0.00  0.00    -0.503 OA
ATOM     26  H   UNL     1      38.990 -22.460 -15.324  0.00  0.00    +0.292 HD
ENDBRANCH  18  25
TORSDOF 4
ENDMDL
MODEL 5
REMARK VINA RESULT:      -9.4      1.398      2.564
REMARK  Name = 5281855
REMARK  4 active torsions:
REMARK  status: ('A' for Active; 'I' for Inactive)
REMARK    1  A    between atoms: C_11  and  O_19
REMARK    2  A    between atoms: C_12  and  O_21
REMARK    3  A    between atoms: C_17  and  O_23
REMARK    4  A    between atoms: C_18  and  O_25
REMARK                            x       y       z     vdW  Elec       q    Type
REMARK                         _______ _______ _______ _____ _____    ______ ____
ROOT
ATOM      1  O   UNL     1      36.948 -22.532 -17.016  0.00  0.00    -0.418 OA
ATOM      2  O   UNL     1      32.282 -23.656 -15.481  0.00  0.00    -0.418 OA
ATOM      3  O   UNL     1      38.283 -23.222 -15.286  0.00  0.00    -0.244 OA
ATOM      4  O   UNL     1      30.946 -22.963 -17.211  0.00  0.00    -0.244 OA
ATOM      5  C   UNL     1      34.539 -22.798 -16.897  0.00  0.00    +0.047 A 
ATOM      6  C   UNL     1      34.690 -23.390 -15.600  0.00  0.00    +0.047 A 
ATOM      7  C   UNL     1      35.950 -23.549 -15.023  0.00  0.00    +0.082 A 
ATOM      8  C   UNL     1      33.281 -22.638 -17.474  0.00  0.00    +0.082 A 
ATOM      9  C   UNL     1      35.666 -22.375 -17.592  0.00  0.00    +0.185 A 
ATOM     10  C   UNL     1      33.563 -23.812 -14.906  0.00  0.00    +0.185 A 
ATOM     11  C   UNL     1      35.571 -21.795 -18.853  0.00  0.00    +0.203 C 
ATOM     12  C   UNL     1      33.658 -24.392 -13.645  0.00  0.00    +0.203 C 
ATOM     13  C   UNL     1      36.067 -24.130 -13.755  0.00  0.00    +0.046 C 
ATOM     14  C   UNL     1      33.163 -22.058 -18.743  0.00  0.00    +0.046 C 
ATOM     15  C   UNL     1      37.160 -23.101 -15.756  0.00  0.00    +0.346 A 
ATOM     16  C   UNL     1      32.070 -23.086 -16.742  0.00  0.00    +0.346 A 
ATOM     17  C   UNL     1      34.310 -21.638 -19.427  0.00  0.00    +0.171 C 
ATOM     18  C   UNL     1      34.920 -24.550 -13.071  0.00  0.00    +0.171 C 
ENDROOT
BRANCH  11  19
ATOM     19  O   UNL     1      36.688 -21.388 -19.515  0.00  0.00    -0.501 OA
ATOM     20  H   UNL     1      36.909 -20.479 -19.547  0.00  0.00    +0.292 HD
ENDBRANCH  11  19
BRANCH  12  21
ATOM     21  O   UNL     1      32.542 -24.799 -12.982  0.00  0.00    -0.501 OA
ATOM     22  H   UNL     1      32.066 -25.549 -13.281  0.00  0.00    +0.292 HD
ENDBRANCH  12  21
BRANCH  17  23
ATOM     23  O   UNL     1      34.179 -21.073 -20.660  0.00  0.00    -0.503 OA
ATOM     24  H   UNL     1      34.326 -21.587 -21.429  0.00  0.00    +0.292 HD
ENDBRANCH  17  23
BRANCH  18  25
ATOM     25  O   UNL     1      35.051 -25.114 -11.838  0.00  0.00    -0.503 OA
ATOM     26  H   UNL     1      35.121 -24.570 -11.078  0.00  0.00    +0.292 HD
ENDBRANCH  18  25
TORSDOF 4
ENDMDL
MODEL 6
REMARK VINA RESULT:      -9.4      1.393      6.241
REMARK  Name = 5281855
REMARK  4 active torsions:
REMARK  status: ('A' for Active; 'I' for Inactive)
REMARK    1  A    between atoms: C_11  and  O_19
REMARK    2  A    between atoms: C_12  and  O_21
REMARK    3  A    between atoms: C_17  and  O_23
REMARK    4  A    between atoms: C_18  and  O_25
REMARK                            x       y       z     vdW  Elec       q    Type
REMARK                         _______ _______ _______ _____ _____    ______ ____
ROOT
ATOM      1  O   UNL     1      32.253 -23.670 -15.485  0.00  0.00    -0.418 OA
ATOM      2  O   UNL     1      36.915 -22.526 -17.018  0.00  0.00    -0.418 OA
ATOM      3  O   UNL     1      30.916 -22.984 -17.216  0.00  0.00    -0.244 OA
ATOM      4  O   UNL     1      38.253 -23.209 -15.286  0.00  0.00    -0.244 OA
ATOM      5  C   UNL     1      34.661 -23.394 -15.603  0.00  0.00    +0.047 A 
ATOM      6  C   UNL     1      34.508 -22.802 -16.900  0.00  0.00    +0.047 A 
ATOM      7  C   UNL     1      33.248 -22.648 -17.478  0.00  0.00    +0.082 A 
ATOM      8  C   UNL     1      35.920 -23.547 -15.026  0.00  0.00    +0.082 A 
ATOM      9  C   UNL     1      33.535 -23.821 -14.909  0.00  0.00    +0.185 A 
ATOM     10  C   UNL     1      35.633 -22.374 -17.594  0.00  0.00    +0.185 A 
ATOM     11  C   UNL     1      33.632 -24.401 -13.648  0.00  0.00    +0.203 C 
ATOM     12  C   UNL     1      35.536 -21.794 -18.855  0.00  0.00    +0.203 C 
ATOM     13  C   UNL     1      33.129 -22.067 -18.745  0.00  0.00    +0.046 C 
ATOM     14  C   UNL     1      36.040 -24.129 -13.758  0.00  0.00    +0.046 C 
ATOM     15  C   UNL     1      32.040 -23.101 -16.746  0.00  0.00    +0.346 A 
ATOM     16  C   UNL     1      37.129 -23.094 -15.758  0.00  0.00    +0.346 A 
ATOM     17  C   UNL     1      34.895 -24.554 -13.074  0.00  0.00    +0.171 C 
ATOM     18  C   UNL     1      34.274 -21.643 -19.429  0.00  0.00    +0.171 C 
ENDROOT
BRANCH  11  19
ATOM     19  O   UNL     1      32.517 -24.813 -12.986  0.00  0.00    -0.501 OA
ATOM     20  H   UNL     1      32.540 -25.594 -12.470  0.00  0.00    +0.292 HD
ENDBRANCH  11  19
BRANCH  12  21
ATOM     21  O   UNL     1      36.651 -21.383 -19.517  0.00  0.00    -0.501 OA
ATOM     22  H   UNL     1      36.572 -20.930 -20.333  0.00  0.00    +0.292 HD
ENDBRANCH  12  21
BRANCH  17  23
ATOM     23  O   UNL     1      35.027 -25.117 -11.841  0.00  0.00    -0.503 OA
ATOM     24  H   UNL     1      35.242 -26.025 -11.760  0.00  0.00    +0.292 HD
ENDBRANCH  17  23
BRANCH  18  25
ATOM     25  O   UNL     1      34.142 -21.079 -20.662  0.00  0.00    -0.503 OA
ATOM     26  H   UNL     1      33.765 -20.226 -20.750  0.00  0.00    +0.292 HD
ENDBRANCH  18  25
TORSDOF 4
ENDMDL
MODEL 7
REMARK VINA RESULT:      -9.3      1.186      3.676
REMARK  Name = 5281855
REMARK  4 active torsions:
REMARK  status: ('A' for Active; 'I' for Inactive)
REMARK    1  A    between atoms: C_11  and  O_19
REMARK    2  A    between atoms: C_12  and  O_21
REMARK    3  A    between atoms: C_17  and  O_23
REMARK    4  A    between atoms: C_18  and  O_25
REMARK                            x       y       z     vdW  Elec       q    Type
REMARK                         _______ _______ _______ _____ _____    ______ ____
ROOT
ATOM      1  O   UNL     1      32.375 -23.945 -15.076  0.00  0.00    -0.418 OA
ATOM      2  O   UNL     1      37.268 -22.752 -15.242  0.00  0.00    -0.418 OA
ATOM      3  O   UNL     1      32.079 -24.785 -12.964  0.00  0.00    -0.244 OA
ATOM      4  O   UNL     1      37.565 -21.915 -17.355  0.00  0.00    -0.244 OA
ATOM      5  C   UNL     1      34.558 -23.175 -15.803  0.00  0.00    +0.047 A 
ATOM      6  C   UNL     1      35.085 -23.522 -14.515  0.00  0.00    +0.047 A 
ATOM      7  C   UNL     1      34.269 -24.071 -13.527  0.00  0.00    +0.082 A 
ATOM      8  C   UNL     1      35.374 -22.626 -16.791  0.00  0.00    +0.082 A 
ATOM      9  C   UNL     1      33.212 -23.389 -16.071  0.00  0.00    +0.185 A 
ATOM     10  C   UNL     1      36.432 -23.308 -14.247  0.00  0.00    +0.185 A 
ATOM     11  C   UNL     1      32.653 -23.068 -17.305  0.00  0.00    +0.203 C 
ATOM     12  C   UNL     1      36.990 -23.629 -13.014  0.00  0.00    +0.203 C 
ATOM     13  C   UNL     1      34.811 -24.401 -12.279  0.00  0.00    +0.046 C 
ATOM     14  C   UNL     1      34.832 -22.295 -18.038  0.00  0.00    +0.046 C 
ATOM     15  C   UNL     1      32.830 -24.304 -13.803  0.00  0.00    +0.346 A 
ATOM     16  C   UNL     1      36.813 -22.393 -16.515  0.00  0.00    +0.346 A 
ATOM     17  C   UNL     1      33.473 -22.518 -18.290  0.00  0.00    +0.171 C 
ATOM     18  C   UNL     1      36.170 -24.178 -12.028  0.00  0.00    +0.171 C 
ENDROOT
BRANCH  11  19
ATOM     19  O   UNL     1      31.332 -23.286 -17.546  0.00  0.00    -0.501 OA
ATOM     20  H   UNL     1      30.734 -22.566 -17.563  0.00  0.00    +0.292 HD
ENDBRANCH  11  19
BRANCH  12  21
ATOM     21  O   UNL     1      38.311 -23.411 -12.772  0.00  0.00    -0.501 OA
ATOM     22  H   UNL     1      38.686 -23.665 -11.952  0.00  0.00    +0.292 HD
ENDBRANCH  12  21
BRANCH  17  23
ATOM     23  O   UNL     1      32.961 -22.193 -19.510  0.00  0.00    -0.503 OA
ATOM     24  H   UNL     1      32.123 -22.523 -19.770  0.00  0.00    +0.292 HD
ENDBRANCH  17  23
BRANCH  18  25
ATOM     25  O   UNL     1      36.682 -24.504 -10.808  0.00  0.00    -0.503 OA
ATOM     26  H   UNL     1      36.347 -25.243 -10.341  0.00  0.00    +0.292 HD
ENDBRANCH  18  25
TORSDOF 4
ENDMDL
MODEL 8
REMARK VINA RESULT:      -9.3      1.184      5.149
REMARK  Name = 5281855
REMARK  4 active torsions:
REMARK  status: ('A' for Active; 'I' for Inactive)
REMARK    1  A    between atoms: C_11  and  O_19
REMARK    2  A    between atoms: C_12  and  O_21
REMARK    3  A    between atoms: C_17  and  O_23
REMARK    4  A    between atoms: C_18  and  O_25
REMARK                            x       y       z     vdW  Elec       q    Type
REMARK                         _______ _______ _______ _____ _____    ______ ____
ROOT
ATOM      1  O   UNL     1      37.275 -22.761 -15.241  0.00  0.00    -0.418 OA
ATOM      2  O   UNL     1      32.379 -23.944 -15.079  0.00  0.00    -0.418 OA
ATOM      3  O   UNL     1      37.575 -21.927 -17.355  0.00  0.00    -0.244 OA
ATOM      4  O   UNL     1      32.080 -24.781 -12.966  0.00  0.00    -0.244 OA
ATOM      5  C   UNL     1      35.089 -23.526 -14.516  0.00  0.00    +0.047 A 
ATOM      6  C   UNL     1      34.565 -23.180 -15.804  0.00  0.00    +0.047 A 
ATOM      7  C   UNL     1      35.383 -22.634 -16.792  0.00  0.00    +0.082 A 
ATOM      8  C   UNL     1      34.272 -24.072 -13.528  0.00  0.00    +0.082 A 
ATOM      9  C   UNL     1      36.436 -23.314 -14.246  0.00  0.00    +0.185 A 
ATOM     10  C   UNL     1      33.218 -23.391 -16.073  0.00  0.00    +0.185 A 
ATOM     11  C   UNL     1      36.992 -23.634 -13.012  0.00  0.00    +0.203 C 
ATOM     12  C   UNL     1      32.662 -23.072 -17.308  0.00  0.00    +0.203 C 
ATOM     13  C   UNL     1      34.843 -22.305 -18.041  0.00  0.00    +0.046 C 
ATOM     14  C   UNL     1      34.811 -24.400 -12.278  0.00  0.00    +0.046 C 
ATOM     15  C   UNL     1      36.822 -22.403 -16.516  0.00  0.00    +0.346 A 
ATOM     16  C   UNL     1      32.832 -24.302 -13.804  0.00  0.00    +0.346 A 
ATOM     17  C   UNL     1      36.170 -24.179 -12.025  0.00  0.00    +0.171 C 
ATOM     18  C   UNL     1      33.484 -22.526 -18.294  0.00  0.00    +0.171 C 
ENDROOT
BRANCH  11  19
ATOM     19  O   UNL     1      38.313 -23.418 -12.769  0.00  0.00    -0.501 OA
ATOM     20  H   UNL     1      38.584 -22.668 -12.278  0.00  0.00    +0.292 HD
ENDBRANCH  11  19
BRANCH  12  21
ATOM     21  O   UNL     1      31.341 -23.287 -17.551  0.00  0.00    -0.501 OA
ATOM     22  H   UNL     1      30.692 -22.874 -17.016  0.00  0.00    +0.292 HD
ENDBRANCH  12  21
BRANCH  17  23
ATOM     23  O   UNL     1      36.681 -24.505 -10.805  0.00  0.00    -0.503 OA
ATOM     24  H   UNL     1      37.608 -24.535 -10.678  0.00  0.00    +0.292 HD
ENDBRANCH  17  23
BRANCH  18  25
ATOM     25  O   UNL     1      32.973 -22.201 -19.515  0.00  0.00    -0.503 OA
ATOM     26  H   UNL     1      33.072 -21.331 -19.848  0.00  0.00    +0.292 HD
ENDBRANCH  18  25
TORSDOF 4
ENDMDL
MODEL 9
REMARK VINA RESULT:      -9.2      1.840      5.185
REMARK  Name = 5281855
REMARK  4 active torsions:
REMARK  status: ('A' for Active; 'I' for Inactive)
REMARK    1  A    between atoms: C_11  and  O_19
REMARK    2  A    between atoms: C_12  and  O_21
REMARK    3  A    between atoms: C_17  and  O_23
REMARK    4  A    between atoms: C_18  and  O_25
REMARK                            x       y       z     vdW  Elec       q    Type
REMARK                         _______ _______ _______ _____ _____    ______ ____
ROOT
ATOM      1  O   UNL     1      35.707 -23.722 -14.489  0.00  0.00    -0.418 OA
ATOM      2  O   UNL     1      32.499 -22.403 -18.145  0.00  0.00    -0.418 OA
ATOM      3  O   UNL     1      37.757 -23.086 -15.293  0.00  0.00    -0.244 OA
ATOM      4  O   UNL     1      30.449 -23.041 -17.342  0.00  0.00    -0.244 OA
ATOM      5  C   UNL     1      33.700 -23.356 -15.802  0.00  0.00    +0.047 A 
ATOM      6  C   UNL     1      34.506 -22.769 -16.832  0.00  0.00    +0.047 A 
ATOM      7  C   UNL     1      35.889 -22.662 -16.690  0.00  0.00    +0.082 A 
ATOM      8  C   UNL     1      32.317 -23.463 -15.943  0.00  0.00    +0.082 A 
ATOM      9  C   UNL     1      34.305 -23.825 -14.643  0.00  0.00    +0.185 A 
ATOM     10  C   UNL     1      33.900 -22.299 -17.991  0.00  0.00    +0.185 A 
ATOM     11  C   UNL     1      33.566 -24.403 -13.615  0.00  0.00    +0.203 C 
ATOM     12  C   UNL     1      34.640 -21.722 -19.018  0.00  0.00    +0.203 C 
ATOM     13  C   UNL     1      36.651 -22.084 -17.712  0.00  0.00    +0.046 C 
ATOM     14  C   UNL     1      31.554 -24.040 -14.921  0.00  0.00    +0.046 C 
ATOM     15  C   UNL     1      36.546 -23.160 -15.457  0.00  0.00    +0.346 A 
ATOM     16  C   UNL     1      31.659 -22.965 -17.177  0.00  0.00    +0.346 A 
ATOM     17  C   UNL     1      32.182 -24.507 -13.761  0.00  0.00    +0.171 C 
ATOM     18  C   UNL     1      36.023 -21.617 -18.873  0.00  0.00    +0.171 C 
ENDROOT
BRANCH  11  19
ATOM     19  O   UNL     1      34.179 -24.856 -12.489  0.00  0.00    -0.501 OA
ATOM     20  H   UNL     1      33.902 -25.659 -12.095  0.00  0.00    +0.292 HD
ENDBRANCH  11  19
BRANCH  12  21
ATOM     21  O   UNL     1      34.027 -21.269 -20.145  0.00  0.00    -0.501 OA
ATOM     22  H   UNL     1      33.675 -20.401 -20.170  0.00  0.00    +0.292 HD
ENDBRANCH  12  21
BRANCH  17  23
ATOM     23  O   UNL     1      31.427 -25.068 -12.775  0.00  0.00    -0.503 OA
ATOM     24  H   UNL     1      31.503 -24.761 -11.893  0.00  0.00    +0.292 HD
ENDBRANCH  17  23
BRANCH  18  25
ATOM     25  O   UNL     1      36.779 -21.057 -19.859  0.00  0.00    -0.503 OA
ATOM     26  H   UNL     1      37.064 -21.577 -20.584  0.00  0.00    +0.292 HD
ENDBRANCH  18  25
TORSDOF 4
ENDMDL
