MODEL 1
REMARK VINA RESULT:     -10.5      0.000      0.000
REMARK  Name = 448968
REMARK  5 active torsions:
REMARK  status: ('A' for Active; 'I' for Inactive)
REMARK    1  A    between atoms: N_1  and  C_13
REMARK    2  A    between atoms: C_5  and  C_17
REMARK    3  A    between atoms: C_13  and  C_14
REMARK    4  A    between atoms: C_14  and  C_15
REMARK    5  A    between atoms: C_17  and  C_20
REMARK                            x       y       z     vdW  Elec       q    Type
REMARK                         _______ _______ _______ _____ _____    ______ ____
ROOT
ATOM      1  N   UNL     1      33.632 -23.428 -16.383  0.00  0.00    -0.249 N 
ATOM      2  N   UNL     1      32.030 -22.783 -17.791  0.00  0.00    -0.385 NA
ATOM      3  N   UNL     1      32.320 -23.715 -14.359  0.00  0.00    -0.227 NA
ATOM      4  N   UNL     1      29.966 -23.201 -14.750  0.00  0.00    -0.227 NA
ATOM      5  C   UNL     1      33.287 -23.046 -17.630  0.00  0.00    +0.169 C 
ATOM      6  C   UNL     1      32.477 -23.410 -15.656  0.00  0.00    +0.167 C 
ATOM      7  C   UNL     1      31.494 -23.008 -16.548  0.00  0.00    +0.195 C 
ATOM      8  C   UNL     1      30.198 -22.908 -16.052  0.00  0.00    +0.155 C 
ATOM      9  C   UNL     1      31.026 -23.580 -13.995  0.00  0.00    +0.253 C 
ATOM     10  N   UNL     1      29.140 -22.507 -16.885  0.00  0.00    -0.341 N 
ATOM     11  H   UNL     1      28.226 -22.439 -16.523  0.00  0.00    +0.144 HD
ATOM     12  H   UNL     1      29.311 -22.295 -17.832  0.00  0.00    +0.144 HD
ENDROOT
BRANCH   1  13
ATOM     13  C   UNL     1      34.943 -23.785 -15.891  0.00  0.00    +0.099 C 
BRANCH  13  14
ATOM     14  C   UNL     1      35.656 -22.598 -15.245  0.00  0.00    +0.022 C 
BRANCH  14  15
ATOM     15  C   UNL     1      37.107 -22.503 -15.717  0.00  0.00    +0.002 C 
ATOM     16  C   UNL     1      37.260 -21.497 -16.847  0.00  0.00    +0.000 C 
ENDBRANCH  14  15
ENDBRANCH  13  14
ENDBRANCH   1  13
BRANCH   5  17
ATOM     17  C   UNL     1      34.330 -22.948 -18.726  0.00  0.00    +0.102 C 
BRANCH  17  20
ATOM     18  O   UNL     1      36.359 -19.110 -21.079  0.00  0.00    -0.435 OA
ATOM     19  O   UNL     1      34.211 -18.165 -21.629  0.00  0.00    -0.435 OA
ATOM     20  C   UNL     1      34.262 -21.674 -19.499  0.00  0.00    -0.011 C 
ATOM     21  C   UNL     1      35.440 -21.040 -19.898  0.00  0.00    +0.036 C 
ATOM     22  C   UNL     1      33.009 -21.123 -19.821  0.00  0.00    -0.000 C 
ATOM     23  C   UNL     1      35.327 -19.864 -20.611  0.00  0.00    +0.176 C 
ATOM     24  C   UNL     1      34.100 -19.324 -20.926  0.00  0.00    +0.176 C 
ATOM     25  C   UNL     1      32.921 -19.930 -20.544  0.00  0.00    +0.040 C 
ATOM     26  C   UNL     1      35.645 -18.035 -21.723  0.00  0.00    +0.429 C 
ENDBRANCH  17  20
ENDBRANCH   5  17
TORSDOF 5
ENDMDL
MODEL 2
REMARK VINA RESULT:     -10.3      5.113      8.557
REMARK  Name = 448968
REMARK  5 active torsions:
REMARK  status: ('A' for Active; 'I' for Inactive)
REMARK    1  A    between atoms: N_1  and  C_13
REMARK    2  A    between atoms: C_5  and  C_17
REMARK    3  A    between atoms: C_13  and  C_14
REMARK    4  A    between atoms: C_14  and  C_15
REMARK    5  A    between atoms: C_17  and  C_20
REMARK                            x       y       z     vdW  Elec       q    Type
REMARK                         _______ _______ _______ _____ _____    ______ ____
ROOT
ATOM      1  N   UNL     1      34.737 -16.338 -23.226  0.00  0.00    -0.249 N 
ATOM      2  N   UNL     1      34.244 -16.064 -21.070  0.00  0.00    -0.385 NA
ATOM      3  N   UNL     1      33.513 -14.466 -24.176  0.00  0.00    -0.227 NA
ATOM      4  N   UNL     1      32.357 -13.194 -22.443  0.00  0.00    -0.227 NA
ATOM      5  C   UNL     1      34.874 -16.769 -21.955  0.00  0.00    +0.169 C 
ATOM      6  C   UNL     1      33.932 -15.237 -23.160  0.00  0.00    +0.167 C 
ATOM      7  C   UNL     1      33.637 -15.083 -21.814  0.00  0.00    +0.195 C 
ATOM      8  C   UNL     1      32.818 -14.014 -21.468  0.00  0.00    +0.155 C 
ATOM      9  C   UNL     1      32.728 -13.467 -23.718  0.00  0.00    +0.253 C 
ATOM     10  N   UNL     1      32.468 -13.783 -20.127  0.00  0.00    -0.341 N 
ATOM     11  H   UNL     1      31.887 -13.022 -19.893  0.00  0.00    +0.144 HD
ATOM     12  H   UNL     1      32.804 -14.380 -19.420  0.00  0.00    +0.144 HD
ENDROOT
BRANCH   1  13
ATOM     13  C   UNL     1      35.309 -16.904 -24.425  0.00  0.00    +0.099 C 
BRANCH  13  14
ATOM     14  C   UNL     1      34.252 -17.561 -25.311  0.00  0.00    +0.022 C 
BRANCH  14  15
ATOM     15  C   UNL     1      33.852 -18.932 -24.769  0.00  0.00    +0.002 C 
ATOM     16  C   UNL     1      35.034 -19.889 -24.749  0.00  0.00    +0.000 C 
ENDBRANCH  14  15
ENDBRANCH  13  14
ENDBRANCH   1  13
BRANCH   5  17
ATOM     17  C   UNL     1      35.713 -17.991 -21.638  0.00  0.00    +0.102 C 
BRANCH  17  20
ATOM     18  O   UNL     1      35.316 -22.257 -19.184  0.00  0.00    -0.435 OA
ATOM     19  O   UNL     1      32.908 -22.222 -19.284  0.00  0.00    -0.435 OA
ATOM     20  C   UNL     1      34.934 -19.103 -21.020  0.00  0.00    -0.011 C 
ATOM     21  C   UNL     1      35.604 -20.153 -20.390  0.00  0.00    +0.036 C 
ATOM     22  C   UNL     1      33.529 -19.083 -21.078  0.00  0.00    -0.000 C 
ATOM     23  C   UNL     1      34.841 -21.159 -19.833  0.00  0.00    +0.176 C 
ATOM     24  C   UNL     1      33.465 -21.139 -19.890  0.00  0.00    +0.176 C 
ATOM     25  C   UNL     1      32.779 -20.114 -20.506  0.00  0.00    +0.040 C 
ATOM     26  C   UNL     1      34.086 -22.926 -18.838  0.00  0.00    +0.429 C 
ENDBRANCH  17  20
ENDBRANCH   5  17
TORSDOF 5
ENDMDL
MODEL 3
REMARK VINA RESULT:     -10.1      8.537     11.982
REMARK  Name = 448968
REMARK  5 active torsions:
REMARK  status: ('A' for Active; 'I' for Inactive)
REMARK    1  A    between atoms: N_1  and  C_13
REMARK    2  A    between atoms: C_5  and  C_17
REMARK    3  A    between atoms: C_13  and  C_14
REMARK    4  A    between atoms: C_14  and  C_15
REMARK    5  A    between atoms: C_17  and  C_20
REMARK                            x       y       z     vdW  Elec       q    Type
REMARK                         _______ _______ _______ _____ _____    ______ ____
ROOT
ATOM      1  N   UNL     1      32.341 -11.425 -22.774  0.00  0.00    -0.249 N 
ATOM      2  N   UNL     1      33.850 -12.159 -24.240  0.00  0.00    -0.385 NA
ATOM      3  N   UNL     1      32.944  -9.073 -22.695  0.00  0.00    -0.227 NA
ATOM      4  N   UNL     1      34.825  -8.592 -24.174  0.00  0.00    -0.227 NA
ATOM      5  C   UNL     1      32.854 -12.461 -23.469  0.00  0.00    +0.169 C 
ATOM      6  C   UNL     1      33.082 -10.335 -23.129  0.00  0.00    +0.167 C 
ATOM      7  C   UNL     1      34.012 -10.811 -24.040  0.00  0.00    +0.195 C 
ATOM      8  C   UNL     1      34.906  -9.885 -24.568  0.00  0.00    +0.155 C 
ATOM      9  C   UNL     1      33.863  -8.271 -23.274  0.00  0.00    +0.253 C 
ATOM     10  N   UNL     1      35.883 -10.280 -25.498  0.00  0.00    -0.341 N 
ATOM     11  H   UNL     1      36.511  -9.616 -25.865  0.00  0.00    +0.144 HD
ATOM     12  H   UNL     1      35.940 -11.221 -25.783  0.00  0.00    +0.144 HD
ENDROOT
BRANCH   1  13
ATOM     13  C   UNL     1      31.238 -11.438 -21.840  0.00  0.00    +0.099 C 
BRANCH  13  14
ATOM     14  C   UNL     1      31.708 -11.649 -20.401  0.00  0.00    +0.022 C 
BRANCH  14  15
ATOM     15  C   UNL     1      31.088 -10.615 -19.462  0.00  0.00    +0.002 C 
ATOM     16  C   UNL     1      31.899  -9.329 -19.435  0.00  0.00    +0.000 C 
ENDBRANCH  14  15
ENDBRANCH  13  14
ENDBRANCH   1  13
BRANCH   5  17
ATOM     17  C   UNL     1      32.274 -13.854 -23.325  0.00  0.00    +0.102 C 
BRANCH  17  20
ATOM     18  O   UNL     1      35.366 -17.690 -23.009  0.00  0.00    -0.435 OA
ATOM     19  O   UNL     1      35.620 -17.436 -20.626  0.00  0.00    -0.435 OA
ATOM     20  C   UNL     1      33.158 -14.791 -22.574  0.00  0.00    -0.011 C 
ATOM     21  C   UNL     1      33.831 -15.807 -23.256  0.00  0.00    +0.036 C 
ATOM     22  C   UNL     1      33.307 -14.643 -21.184  0.00  0.00    -0.000 C 
ATOM     23  C   UNL     1      34.638 -16.649 -22.520  0.00  0.00    +0.176 C 
ATOM     24  C   UNL     1      34.784 -16.504 -21.158  0.00  0.00    +0.176 C 
ATOM     25  C   UNL     1      34.131 -15.509 -20.460  0.00  0.00    +0.040 C 
ATOM     26  C   UNL     1      35.986 -18.184 -21.804  0.00  0.00    +0.429 C 
ENDBRANCH  17  20
ENDBRANCH   5  17
TORSDOF 5
ENDMDL
MODEL 4
REMARK VINA RESULT:     -10.0      1.873      4.291
REMARK  Name = 448968
REMARK  5 active torsions:
REMARK  status: ('A' for Active; 'I' for Inactive)
REMARK    1  A    between atoms: N_1  and  C_13
REMARK    2  A    between atoms: C_5  and  C_17
REMARK    3  A    between atoms: C_13  and  C_14
REMARK    4  A    between atoms: C_14  and  C_15
REMARK    5  A    between atoms: C_17  and  C_20
REMARK                            x       y       z     vdW  Elec       q    Type
REMARK                         _______ _______ _______ _____ _____    ______ ____
ROOT
ATOM      1  N   UNL     1      33.235 -23.473 -15.186  0.00  0.00    -0.249 N 
ATOM      2  N   UNL     1      35.048 -23.906 -16.407  0.00  0.00    -0.385 NA
ATOM      3  N   UNL     1      34.082 -24.010 -12.973  0.00  0.00    -0.227 NA
ATOM      4  N   UNL     1      36.409 -24.741 -13.070  0.00  0.00    -0.227 NA
ATOM      5  C   UNL     1      33.815 -23.513 -16.404  0.00  0.00    +0.169 C 
ATOM      6  C   UNL     1      34.193 -23.885 -14.305  0.00  0.00    +0.167 C 
ATOM      7  C   UNL     1      35.311 -24.149 -15.082  0.00  0.00    +0.195 C 
ATOM      8  C   UNL     1      36.449 -24.592 -14.416  0.00  0.00    +0.155 C 
ATOM      9  C   UNL     1      35.245 -24.446 -12.442  0.00  0.00    +0.253 C 
ATOM     10  N   UNL     1      37.627 -24.884 -15.125  0.00  0.00    -0.341 N 
ATOM     11  H   UNL     1      38.427 -25.197 -14.643  0.00  0.00    +0.144 HD
ATOM     12  H   UNL     1      37.653 -24.774 -16.103  0.00  0.00    +0.144 HD
ENDROOT
BRANCH   1  13
ATOM     13  C   UNL     1      31.884 -23.081 -14.855  0.00  0.00    +0.099 C 
BRANCH  13  14
ATOM     14  C   UNL     1      30.949 -24.284 -14.746  0.00  0.00    +0.022 C 
BRANCH  14  15
ATOM     15  C   UNL     1      29.861 -24.236 -15.818  0.00  0.00    +0.002 C 
ATOM     16  C   UNL     1      29.627 -22.816 -16.311  0.00  0.00    +0.000 C 
ENDBRANCH  14  15
ENDBRANCH  13  14
ENDBRANCH   1  13
BRANCH   5  17
ATOM     17  C   UNL     1      33.038 -23.117 -17.644  0.00  0.00    +0.102 C 
BRANCH  17  20
ATOM     18  O   UNL     1      33.349 -19.667 -21.163  0.00  0.00    -0.435 OA
ATOM     19  O   UNL     1      35.759 -19.669 -21.112  0.00  0.00    -0.435 OA
ATOM     20  C   UNL     1      33.796 -22.210 -18.555  0.00  0.00    -0.011 C 
ATOM     21  C   UNL     1      33.104 -21.368 -19.428  0.00  0.00    +0.036 C 
ATOM     22  C   UNL     1      35.201 -22.210 -18.525  0.00  0.00    -0.000 C 
ATOM     23  C   UNL     1      33.847 -20.547 -20.252  0.00  0.00    +0.176 C 
ATOM     24  C   UNL     1      35.223 -20.548 -20.222  0.00  0.00    +0.176 C 
ATOM     25  C   UNL     1      35.931 -21.369 -19.369  0.00  0.00    +0.040 C 
ATOM     26  C   UNL     1      34.566 -19.114 -21.704  0.00  0.00    +0.429 C 
ENDBRANCH  17  20
ENDBRANCH   5  17
TORSDOF 5
ENDMDL
MODEL 5
REMARK VINA RESULT:      -9.9      3.748      7.066
REMARK  Name = 448968
REMARK  5 active torsions:
REMARK  status: ('A' for Active; 'I' for Inactive)
REMARK    1  A    between atoms: N_1  and  C_13
REMARK    2  A    between atoms: C_5  and  C_17
REMARK    3  A    between atoms: C_13  and  C_14
REMARK    4  A    between atoms: C_14  and  C_15
REMARK    5  A    between atoms: C_17  and  C_20
REMARK                            x       y       z     vdW  Elec       q    Type
REMARK                         _______ _______ _______ _____ _____    ______ ____
ROOT
ATOM      1  N   UNL     1      33.374 -23.167 -16.764  0.00  0.00    -0.249 N 
ATOM      2  N   UNL     1      35.566 -22.791 -16.911  0.00  0.00    -0.385 NA
ATOM      3  N   UNL     1      32.628 -22.100 -18.815  0.00  0.00    -0.227 NA
ATOM      4  N   UNL     1      34.505 -21.147 -20.051  0.00  0.00    -0.227 NA
ATOM      5  C   UNL     1      34.601 -23.311 -16.222  0.00  0.00    +0.169 C 
ATOM      6  C   UNL     1      33.561 -22.480 -17.928  0.00  0.00    +0.167 C 
ATOM      7  C   UNL     1      34.927 -22.256 -18.002  0.00  0.00    +0.195 C 
ATOM      8  C   UNL     1      35.392 -21.563 -19.115  0.00  0.00    +0.155 C 
ATOM      9  C   UNL     1      33.197 -21.437 -19.845  0.00  0.00    +0.253 C 
ATOM     10  N   UNL     1      36.762 -21.291 -19.271  0.00  0.00    -0.341 N 
ATOM     11  H   UNL     1      37.080 -20.799 -20.062  0.00  0.00    +0.144 HD
ATOM     12  H   UNL     1      37.405 -21.594 -18.589  0.00  0.00    +0.144 HD
ENDROOT
BRANCH   1  13
ATOM     13  C   UNL     1      32.109 -23.632 -16.242  0.00  0.00    +0.099 C 
BRANCH  13  14
ATOM     14  C   UNL     1      31.580 -22.726 -15.131  0.00  0.00    +0.022 C 
BRANCH  14  15
ATOM     15  C   UNL     1      30.859 -23.537 -14.055  0.00  0.00    +0.002 C 
ATOM     16  C   UNL     1      31.291 -24.996 -14.074  0.00  0.00    +0.000 C 
ENDBRANCH  14  15
ENDBRANCH  13  14
ENDBRANCH   1  13
BRANCH   5  17
ATOM     17  C   UNL     1      34.785 -24.036 -14.902  0.00  0.00    +0.102 C 
BRANCH  17  20
ATOM     18  O   UNL     1      39.597 -24.516 -13.909  0.00  0.00    -0.435 OA
ATOM     19  O   UNL     1      39.617 -26.837 -14.558  0.00  0.00    -0.435 OA
ATOM     20  C   UNL     1      36.056 -24.813 -14.823  0.00  0.00    -0.011 C 
ATOM     21  C   UNL     1      37.222 -24.190 -14.373  0.00  0.00    +0.036 C 
ATOM     22  C   UNL     1      36.067 -26.167 -15.200  0.00  0.00    -0.000 C 
ATOM     23  C   UNL     1      38.373 -24.949 -14.317  0.00  0.00    +0.176 C 
ATOM     24  C   UNL     1      38.384 -26.276 -14.687  0.00  0.00    +0.176 C 
ATOM     25  C   UNL     1      37.246 -26.914 -15.134  0.00  0.00    +0.040 C 
ATOM     26  C   UNL     1      40.380 -25.717 -14.064  0.00  0.00    +0.429 C 
ENDBRANCH  17  20
ENDBRANCH   5  17
TORSDOF 5
ENDMDL
MODEL 6
REMARK VINA RESULT:      -9.8      0.716      1.481
REMARK  Name = 448968
REMARK  5 active torsions:
REMARK  status: ('A' for Active; 'I' for Inactive)
REMARK    1  A    between atoms: N_1  and  C_13
REMARK    2  A    between atoms: C_5  and  C_17
REMARK    3  A    between atoms: C_13  and  C_14
REMARK    4  A    between atoms: C_14  and  C_15
REMARK    5  A    between atoms: C_17  and  C_20
REMARK                            x       y       z     vdW  Elec       q    Type
REMARK                         _______ _______ _______ _____ _____    ______ ____
ROOT
ATOM      1  N   UNL     1      33.621 -23.458 -16.374  0.00  0.00    -0.249 N 
ATOM      2  N   UNL     1      31.954 -23.027 -17.789  0.00  0.00    -0.385 NA
ATOM      3  N   UNL     1      32.420 -23.345 -14.266  0.00  0.00    -0.227 NA
ATOM      4  N   UNL     1      30.058 -22.839 -14.620  0.00  0.00    -0.227 NA
ATOM      5  C   UNL     1      33.214 -23.294 -17.650  0.00  0.00    +0.169 C 
ATOM      6  C   UNL     1      32.509 -23.279 -15.603  0.00  0.00    +0.167 C 
ATOM      7  C   UNL     1      31.485 -23.013 -16.500  0.00  0.00    +0.195 C 
ATOM      8  C   UNL     1      30.222 -22.789 -15.963  0.00  0.00    +0.155 C 
ATOM      9  C   UNL     1      31.151 -23.110 -13.865  0.00  0.00    +0.253 C 
ATOM     10  N   UNL     1      29.126 -22.511 -16.798  0.00  0.00    -0.341 N 
ATOM     11  H   UNL     1      28.236 -22.354 -16.407  0.00  0.00    +0.144 HD
ATOM     12  H   UNL     1      29.248 -22.475 -17.775  0.00  0.00    +0.144 HD
ENDROOT
BRANCH   1  13
ATOM     13  C   UNL     1      34.951 -23.760 -15.896  0.00  0.00    +0.099 C 
BRANCH  13  14
ATOM     14  C   UNL     1      35.745 -22.496 -15.574  0.00  0.00    +0.022 C 
BRANCH  14  15
ATOM     15  C   UNL     1      37.201 -22.631 -16.020  0.00  0.00    +0.002 C 
ATOM     16  C   UNL     1      37.915 -23.740 -15.263  0.00  0.00    +0.000 C 
ENDBRANCH  14  15
ENDBRANCH  13  14
ENDBRANCH   1  13
BRANCH   5  17
ATOM     17  C   UNL     1      34.195 -23.421 -18.799  0.00  0.00    +0.102 C 
BRANCH  17  20
ATOM     18  O   UNL     1      33.310 -19.075 -20.967  0.00  0.00    -0.435 OA
ATOM     19  O   UNL     1      35.643 -18.470 -20.968  0.00  0.00    -0.435 OA
ATOM     20  C   UNL     1      34.616 -22.108 -19.369  0.00  0.00    -0.011 C 
ATOM     21  C   UNL     1      33.657 -21.241 -19.897  0.00  0.00    +0.036 C 
ATOM     22  C   UNL     1      35.977 -21.755 -19.369  0.00  0.00    -0.000 C 
ATOM     23  C   UNL     1      34.094 -20.039 -20.413  0.00  0.00    +0.176 C 
ATOM     24  C   UNL     1      35.427 -19.693 -20.413  0.00  0.00    +0.176 C 
ATOM     25  C   UNL     1      36.394 -20.530 -19.898  0.00  0.00    +0.040 C 
ATOM     26  C   UNL     1      34.297 -18.083 -21.317  0.00  0.00    +0.429 C 
ENDBRANCH  17  20
ENDBRANCH   5  17
TORSDOF 5
ENDMDL
MODEL 7
REMARK VINA RESULT:      -9.6      1.694      4.041
REMARK  Name = 448968
REMARK  5 active torsions:
REMARK  status: ('A' for Active; 'I' for Inactive)
REMARK    1  A    between atoms: N_1  and  C_13
REMARK    2  A    between atoms: C_5  and  C_17
REMARK    3  A    between atoms: C_13  and  C_14
REMARK    4  A    between atoms: C_14  and  C_15
REMARK    5  A    between atoms: C_17  and  C_20
REMARK                            x       y       z     vdW  Elec       q    Type
REMARK                         _______ _______ _______ _____ _____    ______ ____
ROOT
ATOM      1  N   UNL     1      33.467 -23.569 -16.020  0.00  0.00    -0.249 N 
ATOM      2  N   UNL     1      35.304 -22.999 -17.146  0.00  0.00    -0.385 NA
ATOM      3  N   UNL     1      34.458 -24.197 -13.893  0.00  0.00    -0.227 NA
ATOM      4  N   UNL     1      36.884 -23.936 -13.935  0.00  0.00    -0.227 NA
ATOM      5  C   UNL     1      34.015 -23.121 -17.169  0.00  0.00    +0.169 C 
ATOM      6  C   UNL     1      34.510 -23.758 -15.160  0.00  0.00    +0.167 C 
ATOM      7  C   UNL     1      35.641 -23.398 -15.877  0.00  0.00    +0.195 C 
ATOM      8  C   UNL     1      36.862 -23.499 -15.217  0.00  0.00    +0.155 C 
ATOM      9  C   UNL     1      35.698 -24.254 -13.361  0.00  0.00    +0.253 C 
ATOM     10  N   UNL     1      38.059 -23.156 -15.868  0.00  0.00    -0.341 N 
ATOM     11  H   UNL     1      38.918 -23.232 -15.391  0.00  0.00    +0.144 HD
ATOM     12  H   UNL     1      38.040 -22.838 -16.800  0.00  0.00    +0.144 HD
ENDROOT
BRANCH   1  13
ATOM     13  C   UNL     1      32.071 -23.809 -15.734  0.00  0.00    +0.099 C 
BRANCH  13  14
ATOM     14  C   UNL     1      31.429 -22.640 -14.988  0.00  0.00    +0.022 C 
BRANCH  14  15
ATOM     15  C   UNL     1      29.918 -22.830 -14.862  0.00  0.00    +0.002 C 
ATOM     16  C   UNL     1      29.225 -22.693 -16.210  0.00  0.00    +0.000 C 
ENDBRANCH  14  15
ENDBRANCH  13  14
ENDBRANCH   1  13
BRANCH   5  17
ATOM     17  C   UNL     1      33.146 -22.800 -18.369  0.00  0.00    +0.102 C 
BRANCH  17  20
ATOM     18  O   UNL     1      36.795 -20.159 -20.390  0.00  0.00    -0.435 OA
ATOM     19  O   UNL     1      35.258 -18.651 -21.474  0.00  0.00    -0.435 OA
ATOM     20  C   UNL     1      33.674 -21.683 -19.204  0.00  0.00    -0.011 C 
ATOM     21  C   UNL     1      35.053 -21.520 -19.352  0.00  0.00    +0.036 C 
ATOM     22  C   UNL     1      32.778 -20.804 -19.837  0.00  0.00    -0.000 C 
ATOM     23  C   UNL     1      35.495 -20.473 -20.134  0.00  0.00    +0.176 C 
ATOM     24  C   UNL     1      34.617 -19.612 -20.754  0.00  0.00    +0.176 C 
ATOM     25  C   UNL     1      33.251 -19.751 -20.625  0.00  0.00    +0.040 C 
ATOM     26  C   UNL     1      36.637 -19.004 -21.239  0.00  0.00    +0.429 C 
ENDBRANCH  17  20
ENDBRANCH   5  17
TORSDOF 5
ENDMDL
MODEL 8
REMARK VINA RESULT:      -9.3      2.140      4.498
REMARK  Name = 448968
REMARK  5 active torsions:
REMARK  status: ('A' for Active; 'I' for Inactive)
REMARK    1  A    between atoms: N_1  and  C_13
REMARK    2  A    between atoms: C_5  and  C_17
REMARK    3  A    between atoms: C_13  and  C_14
REMARK    4  A    between atoms: C_14  and  C_15
REMARK    5  A    between atoms: C_17  and  C_20
REMARK                            x       y       z     vdW  Elec       q    Type
REMARK                         _______ _______ _______ _____ _____    ______ ____
ROOT
ATOM      1  N   UNL     1      34.140 -23.406 -15.031  0.00  0.00    -0.249 N 
ATOM      2  N   UNL     1      35.826 -23.603 -16.476  0.00  0.00    -0.385 NA
ATOM      3  N   UNL     1      35.361 -23.577 -12.938  0.00  0.00    -0.227 NA
ATOM      4  N   UNL     1      37.753 -23.870 -13.330  0.00  0.00    -0.227 NA
ATOM      5  C   UNL     1      34.550 -23.446 -16.316  0.00  0.00    +0.169 C 
ATOM      6  C   UNL     1      35.268 -23.553 -14.276  0.00  0.00    +0.167 C 
ATOM      7  C   UNL     1      36.303 -23.673 -15.191  0.00  0.00    +0.195 C 
ATOM      8  C   UNL     1      37.584 -23.836 -14.673  0.00  0.00    +0.155 C 
ATOM      9  C   UNL     1      36.647 -23.741 -12.557  0.00  0.00    +0.253 C 
ATOM     10  N   UNL     1      38.692 -23.967 -15.528  0.00  0.00    -0.341 N 
ATOM     11  H   UNL     1      39.594 -24.082 -15.150  0.00  0.00    +0.144 HD
ATOM     12  H   UNL     1      38.567 -23.942 -16.504  0.00  0.00    +0.144 HD
ENDROOT
BRANCH   1  13
ATOM     13  C   UNL     1      32.795 -23.244 -14.530  0.00  0.00    +0.099 C 
BRANCH  13  14
ATOM     14  C   UNL     1      32.156 -24.580 -14.157  0.00  0.00    +0.022 C 
BRANCH  14  15
ATOM     15  C   UNL     1      30.638 -24.453 -14.037  0.00  0.00    +0.002 C 
ATOM     16  C   UNL     1      29.923 -25.475 -14.906  0.00  0.00    +0.000 C 
ENDBRANCH  14  15
ENDBRANCH  13  14
ENDBRANCH   1  13
BRANCH   5  17
ATOM     17  C   UNL     1      33.554 -23.313 -17.451  0.00  0.00    +0.102 C 
BRANCH  17  20
ATOM     18  O   UNL     1      36.798 -20.446 -19.825  0.00  0.00    -0.435 OA
ATOM     19  O   UNL     1      35.079 -19.404 -21.154  0.00  0.00    -0.435 OA
ATOM     20  C   UNL     1      33.925 -22.267 -18.448  0.00  0.00    -0.011 C 
ATOM     21  C   UNL     1      35.264 -21.901 -18.603  0.00  0.00    +0.036 C 
ATOM     22  C   UNL     1      32.923 -21.659 -19.224  0.00  0.00    -0.000 C 
ATOM     23  C   UNL     1      35.559 -20.929 -19.538  0.00  0.00    +0.176 C 
ATOM     24  C   UNL     1      34.576 -20.334 -20.297  0.00  0.00    +0.176 C 
ATOM     25  C   UNL     1      33.247 -20.678 -20.164  0.00  0.00    +0.040 C 
ATOM     26  C   UNL     1      36.487 -19.480 -20.850  0.00  0.00    +0.429 C 
ENDBRANCH  17  20
ENDBRANCH   5  17
TORSDOF 5
ENDMDL
MODEL 9
REMARK VINA RESULT:      -9.3      4.269      6.410
REMARK  Name = 448968
REMARK  5 active torsions:
REMARK  status: ('A' for Active; 'I' for Inactive)
REMARK    1  A    between atoms: N_1  and  C_13
REMARK    2  A    between atoms: C_5  and  C_17
REMARK    3  A    between atoms: C_13  and  C_14
REMARK    4  A    between atoms: C_14  and  C_15
REMARK    5  A    between atoms: C_17  and  C_20
REMARK                            x       y       z     vdW  Elec       q    Type
REMARK                         _______ _______ _______ _____ _____    ______ ____
ROOT
ATOM      1  N   UNL     1      33.878 -23.326 -14.676  0.00  0.00    -0.249 N 
ATOM      2  N   UNL     1      32.720 -24.712 -13.370  0.00  0.00    -0.385 NA
ATOM      3  N   UNL     1      32.215 -22.875 -16.387  0.00  0.00    -0.227 NA
ATOM      4  N   UNL     1      30.136 -24.073 -15.938  0.00  0.00    -0.227 NA
ATOM      5  C   UNL     1      33.842 -24.096 -13.569  0.00  0.00    +0.169 C 
ATOM      6  C   UNL     1      32.651 -23.456 -15.259  0.00  0.00    +0.167 C 
ATOM      7  C   UNL     1      31.947 -24.319 -14.434  0.00  0.00    +0.195 C 
ATOM      8  C   UNL     1      30.642 -24.623 -14.808  0.00  0.00    +0.155 C 
ATOM      9  C   UNL     1      30.942 -23.245 -16.647  0.00  0.00    +0.253 C 
ATOM     10  N   UNL     1      29.856 -25.490 -14.031  0.00  0.00    -0.341 N 
ATOM     11  H   UNL     1      28.933 -25.699 -14.306  0.00  0.00    +0.144 HD
ATOM     12  H   UNL     1      30.227 -25.889 -13.210  0.00  0.00    +0.144 HD
ENDROOT
BRANCH   1  13
ATOM     13  C   UNL     1      34.975 -22.522 -15.166  0.00  0.00    +0.099 C 
BRANCH  13  14
ATOM     14  C   UNL     1      35.361 -22.891 -16.598  0.00  0.00    +0.022 C 
BRANCH  14  15
ATOM     15  C   UNL     1      36.629 -22.159 -17.033  0.00  0.00    +0.002 C 
ATOM     16  C   UNL     1      37.811 -22.517 -16.145  0.00  0.00    +0.000 C 
ENDBRANCH  14  15
ENDBRANCH  13  14
ENDBRANCH   1  13
BRANCH   5  17
ATOM     17  C   UNL     1      35.050 -24.200 -12.657  0.00  0.00    +0.102 C 
BRANCH  17  20
ATOM     18  O   UNL     1      39.892 -24.816 -13.397  0.00  0.00    -0.435 OA
ATOM     19  O   UNL     1      39.539 -26.587 -14.994  0.00  0.00    -0.435 OA
ATOM     20  C   UNL     1      36.224 -24.859 -13.299  0.00  0.00    -0.011 C 
ATOM     21  C   UNL     1      37.517 -24.445 -12.970  0.00  0.00    +0.036 C 
ATOM     22  C   UNL     1      36.019 -25.892 -14.229  0.00  0.00    -0.000 C 
ATOM     23  C   UNL     1      38.571 -25.083 -13.590  0.00  0.00    +0.176 C 
ATOM     24  C   UNL     1      38.370 -26.096 -14.501  0.00  0.00    +0.176 C 
ATOM     25  C   UNL     1      37.104 -26.524 -14.843  0.00  0.00    +0.040 C 
ATOM     26  C   UNL     1      40.500 -25.772 -14.290  0.00  0.00    +0.429 C 
ENDBRANCH  17  20
ENDBRANCH   5  17
TORSDOF 5
ENDMDL
