MODEL 1
REMARK VINA RESULT:      -9.0      0.000      0.000
REMARK  Name = 445503
REMARK  6 active torsions:
REMARK  status: ('A' for Active; 'I' for Inactive)
REMARK    1  A    between atoms: N_1  and  S_14
REMARK    2  A    between atoms: C_2  and  C_8
REMARK    3  A    between atoms: N_7  and  C_10
REMARK    4  A    between atoms: C_10  and  C_11
REMARK    5  A    between atoms: C_11  and  S_12
REMARK    6  A    between atoms: S_14  and  C_17
REMARK                            x       y       z     vdW  Elec       q    Type
REMARK                         _______ _______ _______ _____ _____    ______ ____
ROOT
ATOM      1  N   UNL     1      34.273 -17.042 -22.223  0.00  0.00    -0.148 NA
ATOM      2  C   UNL     1      34.881 -15.703 -22.457  0.00  0.00    +0.155 C 
ATOM      3  C   UNL     1      34.594 -14.892 -21.198  0.00  0.00    +0.029 C 
ATOM      4  C   UNL     1      33.387 -15.581 -20.585  0.00  0.00    +0.021 C 
ATOM      5  C   UNL     1      33.659 -17.049 -20.868  0.00  0.00    +0.096 C 
ENDROOT
BRANCH   2   8
ATOM      6  O   UNL     1      33.820 -15.888 -24.581  0.00  0.00    -0.274 OA
ATOM      7  N   UNL     1      34.021 -13.788 -23.597  0.00  0.00    -0.302 N 
ATOM      8  C   UNL     1      34.180 -15.162 -23.658  0.00  0.00    +0.239 C 
ATOM      9  H   UNL     1      34.353 -13.313 -22.801  0.00  0.00    +0.150 HD
BRANCH   7  10
ATOM     10  C   UNL     1      33.393 -13.018 -24.646  0.00  0.00    +0.101 C 
BRANCH  10  11
ATOM     11  C   UNL     1      34.087 -11.687 -24.904  0.00  0.00    +0.075 C 
BRANCH  11  12
ATOM     12  S   UNL     1      33.421 -10.351 -23.864  0.00  0.00    -0.166 S 
ATOM     13  H   UNL     1      33.270 -10.800 -22.590  0.00  0.00    +0.102 HD
ENDBRANCH  11  12
ENDBRANCH  10  11
ENDBRANCH   7  10
ENDBRANCH   2   8
BRANCH   1  14
ATOM     14  S   UNL     1      35.162 -18.416 -22.687  0.00  0.00    +0.064 S 
ATOM     15  O   UNL     1      36.577 -18.169 -22.483  0.00  0.00    -0.153 OA
ATOM     16  O   UNL     1      34.675 -18.893 -23.969  0.00  0.00    -0.153 OA
BRANCH  14  17
ATOM     17  C   UNL     1      34.639 -19.568 -21.452  0.00  0.00    +0.122 C 
ATOM     18  C   UNL     1      33.286 -19.790 -21.264  0.00  0.00    +0.020 C 
ATOM     19  C   UNL     1      35.593 -20.229 -20.697  0.00  0.00    +0.020 C 
ATOM     20  C   UNL     1      32.874 -20.699 -20.290  0.00  0.00    -0.003 C 
ATOM     21  C   UNL     1      35.181 -21.138 -19.724  0.00  0.00    -0.003 C 
ATOM     22  C   UNL     1      33.822 -21.373 -19.520  0.00  0.00    -0.022 C 
ATOM     23  C   UNL     1      33.381 -22.347 -18.479  0.00  0.00    +0.031 C 
ENDBRANCH  14  17
ENDBRANCH   1  14
TORSDOF 6
ENDMDL
MODEL 2
REMARK VINA RESULT:      -8.2      2.971      7.524
REMARK  Name = 445503
REMARK  6 active torsions:
REMARK  status: ('A' for Active; 'I' for Inactive)
REMARK    1  A    between atoms: N_1  and  S_14
REMARK    2  A    between atoms: C_2  and  C_8
REMARK    3  A    between atoms: N_7  and  C_10
REMARK    4  A    between atoms: C_10  and  C_11
REMARK    5  A    between atoms: C_11  and  S_12
REMARK    6  A    between atoms: S_14  and  C_17
REMARK                            x       y       z     vdW  Elec       q    Type
REMARK                         _______ _______ _______ _____ _____    ______ ____
ROOT
ATOM      1  N   UNL     1      34.836 -19.465 -20.957  0.00  0.00    -0.148 NA
ATOM      2  C   UNL     1      35.303 -20.842 -20.638  0.00  0.00    +0.155 C 
ATOM      3  C   UNL     1      34.051 -21.630 -20.269  0.00  0.00    +0.029 C 
ATOM      4  C   UNL     1      33.056 -20.562 -19.846  0.00  0.00    +0.021 C 
ATOM      5  C   UNL     1      33.356 -19.425 -20.808  0.00  0.00    +0.096 C 
ENDROOT
BRANCH   2   8
ATOM      6  O   UNL     1      37.034 -19.747 -19.422  0.00  0.00    -0.274 OA
ATOM      7  N   UNL     1      36.094 -21.690 -18.549  0.00  0.00    -0.302 N 
ATOM      8  C   UNL     1      36.235 -20.679 -19.484  0.00  0.00    +0.239 C 
ATOM      9  H   UNL     1      35.415 -22.384 -18.709  0.00  0.00    +0.150 HD
BRANCH   7  10
ATOM     10  C   UNL     1      36.895 -21.775 -17.349  0.00  0.00    +0.101 C 
BRANCH  10  11
ATOM     11  C   UNL     1      36.215 -22.554 -16.232  0.00  0.00    +0.075 C 
BRANCH  11  12
ATOM     12  S   UNL     1      37.394 -23.556 -15.276  0.00  0.00    -0.166 S 
ATOM     13  H   UNL     1      37.329 -24.850 -15.687  0.00  0.00    +0.102 HD
ENDBRANCH  11  12
ENDBRANCH  10  11
ENDBRANCH   7  10
ENDBRANCH   2   8
BRANCH   1  14
ATOM     14  S   UNL     1      35.508 -18.688 -22.312  0.00  0.00    +0.064 S 
ATOM     15  O   UNL     1      35.029 -19.324 -23.524  0.00  0.00    -0.153 OA
ATOM     16  O   UNL     1      36.930 -18.490 -22.097  0.00  0.00    -0.153 OA
BRANCH  14  17
ATOM     17  C   UNL     1      34.725 -17.107 -22.196  0.00  0.00    +0.122 C 
ATOM     18  C   UNL     1      34.219 -16.517 -23.341  0.00  0.00    +0.020 C 
ATOM     19  C   UNL     1      34.629 -16.490 -20.960  0.00  0.00    +0.020 C 
ATOM     20  C   UNL     1      33.601 -15.270 -23.248  0.00  0.00    -0.003 C 
ATOM     21  C   UNL     1      34.010 -15.244 -20.867  0.00  0.00    -0.003 C 
ATOM     22  C   UNL     1      33.497 -14.634 -22.011  0.00  0.00    -0.022 C 
ATOM     23  C   UNL     1      32.833 -13.301 -21.911  0.00  0.00    +0.031 C 
ENDBRANCH  14  17
ENDBRANCH   1  14
TORSDOF 6
ENDMDL
MODEL 3
REMARK VINA RESULT:      -8.2      8.441     11.168
REMARK  Name = 445503
REMARK  6 active torsions:
REMARK  status: ('A' for Active; 'I' for Inactive)
REMARK    1  A    between atoms: N_1  and  S_14
REMARK    2  A    between atoms: C_2  and  C_8
REMARK    3  A    between atoms: N_7  and  C_10
REMARK    4  A    between atoms: C_10  and  C_11
REMARK    5  A    between atoms: C_11  and  S_12
REMARK    6  A    between atoms: S_14  and  C_17
REMARK                            x       y       z     vdW  Elec       q    Type
REMARK                         _______ _______ _______ _____ _____    ______ ____
ROOT
ATOM      1  N   UNL     1      36.786 -24.557 -14.531  0.00  0.00    -0.148 NA
ATOM      2  C   UNL     1      36.673 -24.722 -13.055  0.00  0.00    +0.155 C 
ATOM      3  C   UNL     1      37.096 -26.158 -12.765  0.00  0.00    +0.029 C 
ATOM      4  C   UNL     1      36.873 -26.880 -14.083  0.00  0.00    +0.021 C 
ATOM      5  C   UNL     1      37.279 -25.836 -15.110  0.00  0.00    +0.096 C 
ENDROOT
BRANCH   2   8
ATOM      6  O   UNL     1      34.872 -24.005 -11.671  0.00  0.00    -0.274 OA
ATOM      7  N   UNL     1      34.401 -24.862 -13.783  0.00  0.00    -0.302 N 
ATOM      8  C   UNL     1      35.233 -24.478 -12.746  0.00  0.00    +0.239 C 
ATOM      9  H   UNL     1      34.811 -25.229 -14.600  0.00  0.00    +0.150 HD
BRANCH   7  10
ATOM     10  C   UNL     1      32.962 -24.751 -13.725  0.00  0.00    +0.101 C 
BRANCH  10  11
ATOM     11  C   UNL     1      32.463 -23.336 -13.982  0.00  0.00    +0.075 C 
BRANCH  11  12
ATOM     12  S   UNL     1      31.012 -23.307 -15.079  0.00  0.00    -0.166 S 
ATOM     13  H   UNL     1      30.112 -24.238 -14.665  0.00  0.00    +0.102 HD
ENDBRANCH  11  12
ENDBRANCH  10  11
ENDBRANCH   7  10
ENDBRANCH   2   8
BRANCH   1  14
ATOM     14  S   UNL     1      37.466 -23.115 -15.123  0.00  0.00    +0.064 S 
ATOM     15  O   UNL     1      38.755 -23.398 -15.726  0.00  0.00    -0.153 OA
ATOM     16  O   UNL     1      37.334 -22.073 -14.120  0.00  0.00    -0.153 OA
BRANCH  14  17
ATOM     17  C   UNL     1      36.337 -22.744 -16.432  0.00  0.00    +0.122 C 
ATOM     18  C   UNL     1      35.036 -23.209 -16.356  0.00  0.00    +0.020 C 
ATOM     19  C   UNL     1      36.775 -21.992 -17.509  0.00  0.00    +0.020 C 
ATOM     20  C   UNL     1      34.146 -22.915 -17.389  0.00  0.00    -0.003 C 
ATOM     21  C   UNL     1      35.885 -21.698 -18.542  0.00  0.00    -0.003 C 
ATOM     22  C   UNL     1      34.571 -22.160 -18.482  0.00  0.00    -0.022 C 
ATOM     23  C   UNL     1      33.618 -21.844 -19.586  0.00  0.00    +0.031 C 
ENDBRANCH  14  17
ENDBRANCH   1  14
TORSDOF 6
ENDMDL
MODEL 4
REMARK VINA RESULT:      -8.1      6.254     10.107
REMARK  Name = 445503
REMARK  6 active torsions:
REMARK  status: ('A' for Active; 'I' for Inactive)
REMARK    1  A    between atoms: N_1  and  S_14
REMARK    2  A    between atoms: C_2  and  C_8
REMARK    3  A    between atoms: N_7  and  C_10
REMARK    4  A    between atoms: C_10  and  C_11
REMARK    5  A    between atoms: C_11  and  S_12
REMARK    6  A    between atoms: S_14  and  C_17
REMARK                            x       y       z     vdW  Elec       q    Type
REMARK                         _______ _______ _______ _____ _____    ______ ____
ROOT
ATOM      1  N   UNL     1      35.264 -23.052 -17.131  0.00  0.00    -0.148 NA
ATOM      2  C   UNL     1      35.219 -23.070 -15.643  0.00  0.00    +0.155 C 
ATOM      3  C   UNL     1      36.229 -22.023 -15.185  0.00  0.00    +0.029 C 
ATOM      4  C   UNL     1      37.178 -21.887 -16.364  0.00  0.00    +0.021 C 
ATOM      5  C   UNL     1      36.248 -22.021 -17.559  0.00  0.00    +0.096 C 
ENDROOT
BRANCH   2   8
ATOM      6  O   UNL     1      35.309 -25.431 -15.937  0.00  0.00    -0.274 OA
ATOM      7  N   UNL     1      36.332 -24.485 -14.072  0.00  0.00    -0.302 N 
ATOM      8  C   UNL     1      35.618 -24.455 -15.258  0.00  0.00    +0.239 C 
ATOM      9  H   UNL     1      36.519 -23.632 -13.617  0.00  0.00    +0.150 HD
BRANCH   7  10
ATOM     10  C   UNL     1      36.815 -25.707 -13.470  0.00  0.00    +0.101 C 
BRANCH  10  11
ATOM     11  C   UNL     1      38.299 -25.658 -13.133  0.00  0.00    +0.075 C 
BRANCH  11  12
ATOM     12  S   UNL     1      39.330 -25.379 -14.605  0.00  0.00    -0.166 S 
ATOM     13  H   UNL     1      40.516 -24.828 -14.231  0.00  0.00    +0.102 HD
ENDBRANCH  11  12
ENDBRANCH  10  11
ENDBRANCH   7  10
ENDBRANCH   2   8
BRANCH   1  14
ATOM     14  S   UNL     1      33.790 -23.127 -17.976  0.00  0.00    +0.064 S 
ATOM     15  O   UNL     1      32.708 -22.722 -17.099  0.00  0.00    -0.153 OA
ATOM     16  O   UNL     1      33.717 -24.380 -18.706  0.00  0.00    -0.153 OA
BRANCH  14  17
ATOM     17  C   UNL     1      34.032 -21.833 -19.156  0.00  0.00    +0.122 C 
ATOM     18  C   UNL     1      35.286 -21.650 -19.712  0.00  0.00    +0.020 C 
ATOM     19  C   UNL     1      32.960 -21.028 -19.504  0.00  0.00    +0.020 C 
ATOM     20  C   UNL     1      35.475 -20.628 -20.642  0.00  0.00    -0.003 C 
ATOM     21  C   UNL     1      33.150 -20.007 -20.435  0.00  0.00    -0.003 C 
ATOM     22  C   UNL     1      34.407 -19.807 -21.004  0.00  0.00    -0.022 C 
ATOM     23  C   UNL     1      34.610 -18.717 -22.002  0.00  0.00    +0.031 C 
ENDBRANCH  14  17
ENDBRANCH   1  14
TORSDOF 6
ENDMDL
MODEL 5
REMARK VINA RESULT:      -8.0      9.695     11.719
REMARK  Name = 445503
REMARK  6 active torsions:
REMARK  status: ('A' for Active; 'I' for Inactive)
REMARK    1  A    between atoms: N_1  and  S_14
REMARK    2  A    between atoms: C_2  and  C_8
REMARK    3  A    between atoms: N_7  and  C_10
REMARK    4  A    between atoms: C_10  and  C_11
REMARK    5  A    between atoms: C_11  and  S_12
REMARK    6  A    between atoms: S_14  and  C_17
REMARK                            x       y       z     vdW  Elec       q    Type
REMARK                         _______ _______ _______ _____ _____    ______ ____
ROOT
ATOM      1  N   UNL     1      33.315 -24.093 -15.093  0.00  0.00    -0.148 NA
ATOM      2  C   UNL     1      34.648 -23.619 -14.631  0.00  0.00    +0.155 C 
ATOM      3  C   UNL     1      35.125 -22.629 -15.688  0.00  0.00    +0.029 C 
ATOM      4  C   UNL     1      34.344 -23.016 -16.933  0.00  0.00    +0.021 C 
ATOM      5  C   UNL     1      32.987 -23.403 -16.370  0.00  0.00    +0.096 C 
ENDROOT
BRANCH   2   8
ATOM      6  O   UNL     1      35.614 -25.600 -15.534  0.00  0.00    -0.274 OA
ATOM      7  N   UNL     1      36.090 -25.013 -13.332  0.00  0.00    -0.302 N 
ATOM      8  C   UNL     1      35.498 -24.844 -14.571  0.00  0.00    +0.239 C 
ATOM      9  H   UNL     1      35.920 -24.336 -12.637  0.00  0.00    +0.150 HD
BRANCH   7  10
ATOM     10  C   UNL     1      36.942 -26.134 -13.008  0.00  0.00    +0.101 C 
BRANCH  10  11
ATOM     11  C   UNL     1      38.399 -25.736 -12.812  0.00  0.00    +0.075 C 
BRANCH  11  12
ATOM     12  S   UNL     1      39.303 -25.638 -14.387  0.00  0.00    -0.166 S 
ATOM     13  H   UNL     1      39.174 -26.813 -15.059  0.00  0.00    +0.102 HD
ENDBRANCH  11  12
ENDBRANCH  10  11
ENDBRANCH   7  10
ENDBRANCH   2   8
BRANCH   1  14
ATOM     14  S   UNL     1      32.074 -24.237 -13.939  0.00  0.00    +0.064 S 
ATOM     15  O   UNL     1      32.232 -23.211 -12.927  0.00  0.00    -0.153 OA
ATOM     16  O   UNL     1      31.929 -25.631 -13.559  0.00  0.00    -0.153 OA
BRANCH  14  17
ATOM     17  C   UNL     1      30.670 -23.802 -14.923  0.00  0.00    +0.122 C 
ATOM     18  C   UNL     1      30.195 -22.503 -14.886  0.00  0.00    +0.020 C 
ATOM     19  C   UNL     1      30.074 -24.769 -15.714  0.00  0.00    +0.020 C 
ATOM     20  C   UNL     1      29.088 -22.161 -15.662  0.00  0.00    -0.003 C 
ATOM     21  C   UNL     1      28.967 -24.427 -16.490  0.00  0.00    -0.003 C 
ATOM     22  C   UNL     1      28.474 -23.123 -16.464  0.00  0.00    -0.022 C 
ATOM     23  C   UNL     1      27.291 -22.756 -17.296  0.00  0.00    +0.031 C 
ENDBRANCH  14  17
ENDBRANCH   1  14
TORSDOF 6
ENDMDL
MODEL 6
REMARK VINA RESULT:      -7.8      6.914     11.966
REMARK  Name = 445503
REMARK  6 active torsions:
REMARK  status: ('A' for Active; 'I' for Inactive)
REMARK    1  A    between atoms: N_1  and  S_14
REMARK    2  A    between atoms: C_2  and  C_8
REMARK    3  A    between atoms: N_7  and  C_10
REMARK    4  A    between atoms: C_10  and  C_11
REMARK    5  A    between atoms: C_11  and  S_12
REMARK    6  A    between atoms: S_14  and  C_17
REMARK                            x       y       z     vdW  Elec       q    Type
REMARK                         _______ _______ _______ _____ _____    ______ ____
ROOT
ATOM      1  N   UNL     1      32.195  -7.080 -22.513  0.00  0.00    -0.148 NA
ATOM      2  C   UNL     1      32.019  -8.531 -22.230  0.00  0.00    +0.155 C 
ATOM      3  C   UNL     1      32.052  -8.664 -20.712  0.00  0.00    +0.029 C 
ATOM      4  C   UNL     1      32.797  -7.423 -20.250  0.00  0.00    +0.021 C 
ATOM      5  C   UNL     1      32.307  -6.359 -21.217  0.00  0.00    +0.096 C 
ENDROOT
BRANCH   2   8
ATOM      6  O   UNL     1      34.288  -8.667 -22.942  0.00  0.00    -0.274 OA
ATOM      7  N   UNL     1      32.848 -10.432 -23.417  0.00  0.00    -0.302 N 
ATOM      8  C   UNL     1      33.182  -9.199 -22.886  0.00  0.00    +0.239 C 
ATOM      9  H   UNL     1      31.923 -10.754 -23.308  0.00  0.00    +0.150 HD
BRANCH   7  10
ATOM     10  C   UNL     1      33.789 -11.270 -24.124  0.00  0.00    +0.101 C 
BRANCH  10  11
ATOM     11  C   UNL     1      33.558 -12.757 -23.887  0.00  0.00    +0.075 C 
BRANCH  11  12
ATOM     12  S   UNL     1      32.387 -13.062 -22.529  0.00  0.00    -0.166 S 
ATOM     13  H   UNL     1      32.036 -11.880 -21.957  0.00  0.00    +0.102 HD
ENDBRANCH  11  12
ENDBRANCH  10  11
ENDBRANCH   7  10
ENDBRANCH   2   8
BRANCH   1  14
ATOM     14  S   UNL     1      31.221  -6.378 -23.718  0.00  0.00    +0.064 S 
ATOM     15  O   UNL     1      30.566  -5.198 -23.186  0.00  0.00    -0.153 OA
ATOM     16  O   UNL     1      30.448  -7.416 -24.378  0.00  0.00    -0.153 OA
BRANCH  14  17
ATOM     17  C   UNL     1      32.461  -5.831 -24.853  0.00  0.00    +0.122 C 
ATOM     18  C   UNL     1      33.698  -6.452 -24.854  0.00  0.00    +0.020 C 
ATOM     19  C   UNL     1      32.172  -4.793 -25.722  0.00  0.00    +0.020 C 
ATOM     20  C   UNL     1      34.676  -6.020 -25.750  0.00  0.00    -0.003 C 
ATOM     21  C   UNL     1      33.149  -4.362 -26.618  0.00  0.00    -0.003 C 
ATOM     22  C   UNL     1      34.402  -4.975 -26.632  0.00  0.00    -0.022 C 
ATOM     23  C   UNL     1      35.447  -4.515 -27.591  0.00  0.00    +0.031 C 
ENDBRANCH  14  17
ENDBRANCH   1  14
TORSDOF 6
ENDMDL
MODEL 7
REMARK VINA RESULT:      -7.7      2.272      3.314
REMARK  Name = 445503
REMARK  6 active torsions:
REMARK  status: ('A' for Active; 'I' for Inactive)
REMARK    1  A    between atoms: N_1  and  S_14
REMARK    2  A    between atoms: C_2  and  C_8
REMARK    3  A    between atoms: N_7  and  C_10
REMARK    4  A    between atoms: C_10  and  C_11
REMARK    5  A    between atoms: C_11  and  S_12
REMARK    6  A    between atoms: S_14  and  C_17
REMARK                            x       y       z     vdW  Elec       q    Type
REMARK                         _______ _______ _______ _____ _____    ______ ____
ROOT
ATOM      1  N   UNL     1      34.201 -15.395 -23.392  0.00  0.00    -0.148 NA
ATOM      2  C   UNL     1      33.142 -15.103 -24.397  0.00  0.00    +0.155 C 
ATOM      3  C   UNL     1      33.395 -16.063 -25.555  0.00  0.00    +0.029 C 
ATOM      4  C   UNL     1      34.863 -16.428 -25.416  0.00  0.00    +0.021 C 
ATOM      5  C   UNL     1      35.049 -16.502 -23.910  0.00  0.00    +0.096 C 
ENDROOT
BRANCH   2   8
ATOM      6  O   UNL     1      33.381 -13.320 -25.957  0.00  0.00    -0.274 OA
ATOM      7  N   UNL     1      33.528 -12.857 -23.680  0.00  0.00    -0.302 N 
ATOM      8  C   UNL     1      33.353 -13.677 -24.782  0.00  0.00    +0.239 C 
ATOM      9  H   UNL     1      33.483 -13.262 -22.784  0.00  0.00    +0.150 HD
BRANCH   7  10
ATOM     10  C   UNL     1      33.772 -11.437 -23.782  0.00  0.00    +0.101 C 
BRANCH  10  11
ATOM     11  C   UNL     1      32.658 -10.596 -23.174  0.00  0.00    +0.075 C 
BRANCH  11  12
ATOM     12  S   UNL     1      31.661 -11.536 -21.978  0.00  0.00    -0.166 S 
ATOM     13  H   UNL     1      32.393 -11.759 -20.854  0.00  0.00    +0.102 HD
ENDBRANCH  11  12
ENDBRANCH  10  11
ENDBRANCH   7  10
ENDBRANCH   2   8
BRANCH   1  14
ATOM     14  S   UNL     1      33.751 -15.455 -21.753  0.00  0.00    +0.064 S 
ATOM     15  O   UNL     1      32.308 -15.361 -21.642  0.00  0.00    -0.153 OA
ATOM     16  O   UNL     1      34.607 -14.568 -20.986  0.00  0.00    -0.153 OA
BRANCH  14  17
ATOM     17  C   UNL     1      34.208 -17.116 -21.356  0.00  0.00    +0.122 C 
ATOM     18  C   UNL     1      35.546 -17.429 -21.194  0.00  0.00    +0.020 C 
ATOM     19  C   UNL     1      33.218 -18.073 -21.212  0.00  0.00    +0.020 C 
ATOM     20  C   UNL     1      35.906 -18.740 -20.881  0.00  0.00    -0.003 C 
ATOM     21  C   UNL     1      33.577 -19.383 -20.898  0.00  0.00    -0.003 C 
ATOM     22  C   UNL     1      34.921 -19.717 -20.733  0.00  0.00    -0.022 C 
ATOM     23  C   UNL     1      35.306 -21.118 -20.396  0.00  0.00    +0.031 C 
ENDBRANCH  14  17
ENDBRANCH   1  14
TORSDOF 6
ENDMDL
MODEL 8
REMARK VINA RESULT:      -7.7      1.847      2.079
REMARK  Name = 445503
REMARK  6 active torsions:
REMARK  status: ('A' for Active; 'I' for Inactive)
REMARK    1  A    between atoms: N_1  and  S_14
REMARK    2  A    between atoms: C_2  and  C_8
REMARK    3  A    between atoms: N_7  and  C_10
REMARK    4  A    between atoms: C_10  and  C_11
REMARK    5  A    between atoms: C_11  and  S_12
REMARK    6  A    between atoms: S_14  and  C_17
REMARK                            x       y       z     vdW  Elec       q    Type
REMARK                         _______ _______ _______ _____ _____    ______ ____
ROOT
ATOM      1  N   UNL     1      33.790 -16.134 -22.352  0.00  0.00    -0.148 NA
ATOM      2  C   UNL     1      34.338 -14.795 -21.999  0.00  0.00    +0.155 C 
ATOM      3  C   UNL     1      33.961 -14.565 -20.539  0.00  0.00    +0.029 C 
ATOM      4  C   UNL     1      32.769 -15.481 -20.319  0.00  0.00    +0.021 C 
ATOM      5  C   UNL     1      33.126 -16.703 -21.148  0.00  0.00    +0.096 C 
ENDROOT
BRANCH   2   8
ATOM      6  O   UNL     1      33.744 -13.944 -24.142  0.00  0.00    -0.274 OA
ATOM      7  N   UNL     1      32.962 -12.856 -22.238  0.00  0.00    -0.302 N 
ATOM      8  C   UNL     1      33.655 -13.840 -22.921  0.00  0.00    +0.239 C 
ATOM      9  H   UNL     1      32.965 -12.879 -21.254  0.00  0.00    +0.150 HD
BRANCH   7  10
ATOM     10  C   UNL     1      32.235 -11.797 -22.900  0.00  0.00    +0.101 C 
BRANCH  10  11
ATOM     11  C   UNL     1      31.215 -11.119 -21.995  0.00  0.00    +0.075 C 
BRANCH  11  12
ATOM     12  S   UNL     1      31.484 -11.514 -20.240  0.00  0.00    -0.166 S 
ATOM     13  H   UNL     1      32.141 -10.487 -19.639  0.00  0.00    +0.102 HD
ENDBRANCH  11  12
ENDBRANCH  10  11
ENDBRANCH   7  10
ENDBRANCH   2   8
BRANCH   1  14
ATOM     14  S   UNL     1      34.766 -17.177 -23.275  0.00  0.00    +0.064 S 
ATOM     15  O   UNL     1      36.028 -16.527 -23.570  0.00  0.00    -0.153 OA
ATOM     16  O   UNL     1      33.972 -17.761 -24.341  0.00  0.00    -0.153 OA
BRANCH  14  17
ATOM     17  C   UNL     1      35.086 -18.448 -22.089  0.00  0.00    +0.122 C 
ATOM     18  C   UNL     1      34.077 -19.336 -21.760  0.00  0.00    +0.020 C 
ATOM     19  C   UNL     1      36.342 -18.533 -21.512  0.00  0.00    +0.020 C 
ATOM     20  C   UNL     1      34.331 -20.339 -20.824  0.00  0.00    -0.003 C 
ATOM     21  C   UNL     1      36.596 -19.536 -20.577  0.00  0.00    -0.003 C 
ATOM     22  C   UNL     1      35.590 -20.439 -20.233  0.00  0.00    -0.022 C 
ATOM     23  C   UNL     1      35.862 -21.513 -19.234  0.00  0.00    +0.031 C 
ENDBRANCH  14  17
ENDBRANCH   1  14
TORSDOF 6
ENDMDL
MODEL 9
REMARK VINA RESULT:      -7.5      6.214     10.450
REMARK  Name = 445503
REMARK  6 active torsions:
REMARK  status: ('A' for Active; 'I' for Inactive)
REMARK    1  A    between atoms: N_1  and  S_14
REMARK    2  A    between atoms: C_2  and  C_8
REMARK    3  A    between atoms: N_7  and  C_10
REMARK    4  A    between atoms: C_10  and  C_11
REMARK    5  A    between atoms: C_11  and  S_12
REMARK    6  A    between atoms: S_14  and  C_17
REMARK                            x       y       z     vdW  Elec       q    Type
REMARK                         _______ _______ _______ _____ _____    ______ ____
ROOT
ATOM      1  N   UNL     1      32.256  -9.249 -20.747  0.00  0.00    -0.148 NA
ATOM      2  C   UNL     1      31.252  -9.852 -21.667  0.00  0.00    +0.155 C 
ATOM      3  C   UNL     1      30.652 -11.031 -20.910  0.00  0.00    +0.029 C 
ATOM      4  C   UNL     1      31.709 -11.382 -19.877  0.00  0.00    +0.021 C 
ATOM      5  C   UNL     1      32.249 -10.020 -19.474  0.00  0.00    +0.096 C 
ENDROOT
BRANCH   2   8
ATOM      6  O   UNL     1      32.090  -9.592 -23.882  0.00  0.00    -0.274 OA
ATOM      7  N   UNL     1      32.631 -11.516 -22.687  0.00  0.00    -0.302 N 
ATOM      8  C   UNL     1      32.032 -10.281 -22.866  0.00  0.00    +0.239 C 
ATOM      9  H   UNL     1      32.511 -11.973 -21.824  0.00  0.00    +0.150 HD
BRANCH   7  10
ATOM     10  C   UNL     1      33.423 -12.165 -23.706  0.00  0.00    +0.101 C 
BRANCH  10  11
ATOM     11  C   UNL     1      33.803 -13.594 -23.345  0.00  0.00    +0.075 C 
BRANCH  11  12
ATOM     12  S   UNL     1      32.703 -14.299 -22.078  0.00  0.00    -0.166 S 
ATOM     13  H   UNL     1      33.291 -15.393 -21.524  0.00  0.00    +0.102 HD
ENDBRANCH  11  12
ENDBRANCH  10  11
ENDBRANCH   7  10
ENDBRANCH   2   8
BRANCH   1  14
ATOM     14  S   UNL     1      32.320  -7.553 -20.636  0.00  0.00    +0.064 S 
ATOM     15  O   UNL     1      33.276  -7.170 -19.615  0.00  0.00    -0.153 OA
ATOM     16  O   UNL     1      30.970  -7.021 -20.619  0.00  0.00    -0.153 OA
BRANCH  14  17
ATOM     17  C   UNL     1      33.032  -7.157 -22.206  0.00  0.00    +0.122 C 
ATOM     18  C   UNL     1      34.288  -7.644 -22.521  0.00  0.00    +0.020 C 
ATOM     19  C   UNL     1      32.317  -6.369 -23.092  0.00  0.00    +0.020 C 
ATOM     20  C   UNL     1      34.848  -7.331 -23.759  0.00  0.00    -0.003 C 
ATOM     21  C   UNL     1      32.877  -6.057 -24.330  0.00  0.00    -0.003 C 
ATOM     22  C   UNL     1      34.143  -6.537 -24.664  0.00  0.00    -0.022 C 
ATOM     23  C   UNL     1      34.742  -6.205 -25.989  0.00  0.00    +0.031 C 
ENDBRANCH  14  17
ENDBRANCH   1  14
TORSDOF 6
ENDMDL
