MODEL 1
REMARK VINA RESULT:      -8.0      0.000      0.000
REMARK  Name = 23627203
REMARK  8 active torsions:
REMARK  status: ('A' for Active; 'I' for Inactive)
REMARK    1  A    between atoms: C_1  and  S_7
REMARK    2  A    between atoms: C_6  and  O_15
REMARK    3  A    between atoms: S_7  and  C_10
REMARK    4  A    between atoms: C_10  and  C_11
REMARK    5  A    between atoms: C_11  and  C_12
REMARK    6  A    between atoms: C_12  and  S_13
REMARK    7  A    between atoms: O_15  and  C_16
REMARK    8  A    between atoms: C_16  and  C_17
REMARK                            x       y       z     vdW  Elec       q    Type
REMARK                         _______ _______ _______ _____ _____    ______ ____
ROOT
ATOM      1  C   UNL     1      35.014 -19.815 -20.668  0.00  0.00    +0.106 C 
ATOM      2  C   UNL     1      33.629 -19.968 -20.600  0.00  0.00    +0.021 C 
ATOM      3  C   UNL     1      35.851 -20.776 -20.100  0.00  0.00    +0.021 C 
ATOM      4  C   UNL     1      33.081 -21.083 -19.965  0.00  0.00    +0.038 C 
ATOM      5  C   UNL     1      35.302 -21.891 -19.465  0.00  0.00    +0.038 C 
ATOM      6  C   UNL     1      33.917 -22.044 -19.397  0.00  0.00    +0.140 C 
ENDROOT
BRANCH   1   7
ATOM      7  S   UNL     1      35.708 -18.403 -21.473  0.00  0.00    +0.009 S 
ATOM      8  O   UNL     1      35.306 -17.238 -20.705  0.00  0.00    -0.169 OA
ATOM      9  O   UNL     1      37.115 -18.671 -21.714  0.00  0.00    -0.169 OA
BRANCH   7  10
ATOM     10  C   UNL     1      34.891 -18.360 -23.038  0.00  0.00    +0.157 C 
BRANCH  10  11
ATOM     11  C   UNL     1      34.983 -16.977 -23.670  0.00  0.00    +0.037 C 
BRANCH  11  12
ATOM     12  C   UNL     1      34.595 -16.946 -25.146  0.00  0.00    +0.055 C 
BRANCH  12  13
ATOM     13  S   UNL     1      33.540 -15.532 -25.578  0.00  0.00    -0.168 S 
ATOM     14  H   UNL     1      32.752 -15.211 -24.517  0.00  0.00    +0.102 HD
ENDBRANCH  12  13
ENDBRANCH  11  12
ENDBRANCH  10  11
ENDBRANCH   7  10
ENDBRANCH   1   7
BRANCH   6  15
ATOM     15  O   UNL     1      33.382 -23.132 -18.779  0.00  0.00    -0.461 OA
BRANCH  15  16
ATOM     16  C   UNL     1      33.574 -23.236 -17.369  0.00  0.00    +0.281 C 
BRANCH  16  17
ATOM     17  C   UNL     1      32.283 -23.146 -16.688  0.00  0.00    -0.044 C 
ATOM     18  C   UNL     1      31.222 -23.073 -16.128  0.00  0.00    -0.086 C 
ATOM     19  C   UNL     1      29.932 -22.984 -15.446  0.00  0.00    +0.090 C 
ENDBRANCH  16  17
ENDBRANCH  15  16
ENDBRANCH   6  15
TORSDOF 8
ENDMDL
MODEL 2
REMARK VINA RESULT:      -7.8      1.370      1.594
REMARK  Name = 23627203
REMARK  8 active torsions:
REMARK  status: ('A' for Active; 'I' for Inactive)
REMARK    1  A    between atoms: C_1  and  S_7
REMARK    2  A    between atoms: C_6  and  O_15
REMARK    3  A    between atoms: S_7  and  C_10
REMARK    4  A    between atoms: C_10  and  C_11
REMARK    5  A    between atoms: C_11  and  C_12
REMARK    6  A    between atoms: C_12  and  S_13
REMARK    7  A    between atoms: O_15  and  C_16
REMARK    8  A    between atoms: C_16  and  C_17
REMARK                            x       y       z     vdW  Elec       q    Type
REMARK                         _______ _______ _______ _____ _____    ______ ____
ROOT
ATOM      1  C   UNL     1      34.861 -19.721 -20.981  0.00  0.00    +0.106 C 
ATOM      2  C   UNL     1      33.472 -19.636 -20.874  0.00  0.00    +0.021 C 
ATOM      3  C   UNL     1      35.551 -20.736 -20.318  0.00  0.00    +0.021 C 
ATOM      4  C   UNL     1      32.774 -20.567 -20.105  0.00  0.00    +0.038 C 
ATOM      5  C   UNL     1      34.852 -21.667 -19.550  0.00  0.00    +0.038 C 
ATOM      6  C   UNL     1      33.463 -21.582 -19.442  0.00  0.00    +0.140 C 
ENDROOT
BRANCH   1   7
ATOM      7  S   UNL     1      35.746 -18.541 -21.956  0.00  0.00    +0.009 S 
ATOM      8  O   UNL     1      37.140 -18.625 -21.560  0.00  0.00    -0.169 OA
ATOM      9  O   UNL     1      35.365 -18.731 -23.344  0.00  0.00    -0.169 OA
BRANCH   7  10
ATOM     10  C   UNL     1      35.101 -16.983 -21.429  0.00  0.00    +0.157 C 
BRANCH  10  11
ATOM     11  C   UNL     1      34.827 -16.069 -22.617  0.00  0.00    +0.037 C 
BRANCH  11  12
ATOM     12  C   UNL     1      34.389 -14.661 -22.224  0.00  0.00    +0.055 C 
BRANCH  12  13
ATOM     13  S   UNL     1      33.740 -13.698 -23.621  0.00  0.00    -0.168 S 
ATOM     14  H   UNL     1      33.319 -14.545 -24.600  0.00  0.00    +0.102 HD
ENDBRANCH  12  13
ENDBRANCH  11  12
ENDBRANCH  10  11
ENDBRANCH   7  10
ENDBRANCH   1   7
BRANCH   6  15
ATOM     15  O   UNL     1      32.782 -22.491 -18.693  0.00  0.00    -0.461 OA
BRANCH  15  16
ATOM     16  C   UNL     1      33.489 -23.103 -17.615  0.00  0.00    +0.281 C 
BRANCH  16  17
ATOM     17  C   UNL     1      32.626 -23.171 -16.436  0.00  0.00    -0.044 C 
ATOM     18  C   UNL     1      31.918 -23.229 -15.467  0.00  0.00    -0.086 C 
ATOM     19  C   UNL     1      31.057 -23.299 -14.287  0.00  0.00    +0.090 C 
ENDBRANCH  16  17
ENDBRANCH  15  16
ENDBRANCH   6  15
TORSDOF 8
ENDMDL
MODEL 3
REMARK VINA RESULT:      -7.7      1.092      1.774
REMARK  Name = 23627203
REMARK  8 active torsions:
REMARK  status: ('A' for Active; 'I' for Inactive)
REMARK    1  A    between atoms: C_1  and  S_7
REMARK    2  A    between atoms: C_6  and  O_15
REMARK    3  A    between atoms: S_7  and  C_10
REMARK    4  A    between atoms: C_10  and  C_11
REMARK    5  A    between atoms: C_11  and  C_12
REMARK    6  A    between atoms: C_12  and  S_13
REMARK    7  A    between atoms: O_15  and  C_16
REMARK    8  A    between atoms: C_16  and  C_17
REMARK                            x       y       z     vdW  Elec       q    Type
REMARK                         _______ _______ _______ _____ _____    ______ ____
ROOT
ATOM      1  C   UNL     1      35.096 -19.894 -20.624  0.00  0.00    +0.106 C 
ATOM      2  C   UNL     1      33.722 -20.115 -20.518  0.00  0.00    +0.021 C 
ATOM      3  C   UNL     1      35.994 -20.826 -20.105  0.00  0.00    +0.021 C 
ATOM      4  C   UNL     1      33.248 -21.269 -19.894  0.00  0.00    +0.038 C 
ATOM      5  C   UNL     1      35.519 -21.980 -19.482  0.00  0.00    +0.038 C 
ATOM      6  C   UNL     1      34.145 -22.201 -19.376  0.00  0.00    +0.140 C 
ENDROOT
BRANCH   1   7
ATOM      7  S   UNL     1      35.697 -18.432 -21.416  0.00  0.00    +0.009 S 
ATOM      8  O   UNL     1      35.273 -17.306 -20.603  0.00  0.00    -0.169 OA
ATOM      9  O   UNL     1      37.105 -18.631 -21.714  0.00  0.00    -0.169 OA
BRANCH   7  10
ATOM     10  C   UNL     1      34.822 -18.386 -22.949  0.00  0.00    +0.157 C 
BRANCH  10  11
ATOM     11  C   UNL     1      35.004 -17.044 -23.647  0.00  0.00    +0.037 C 
BRANCH  11  12
ATOM     12  C   UNL     1      34.588 -17.052 -25.117  0.00  0.00    +0.055 C 
BRANCH  12  13
ATOM     13  S   UNL     1      33.576 -15.618 -25.581  0.00  0.00    -0.168 S 
ATOM     14  H   UNL     1      33.993 -14.523 -24.890  0.00  0.00    +0.102 HD
ENDBRANCH  12  13
ENDBRANCH  11  12
ENDBRANCH  10  11
ENDBRANCH   7  10
ENDBRANCH   1   7
BRANCH   6  15
ATOM     15  O   UNL     1      33.682 -23.327 -18.768  0.00  0.00    -0.461 OA
BRANCH  15  16
ATOM     16  C   UNL     1      33.090 -23.172 -17.479  0.00  0.00    +0.281 C 
BRANCH  16  17
ATOM     17  C   UNL     1      34.134 -23.172 -16.454  0.00  0.00    -0.044 C 
ATOM     18  C   UNL     1      34.990 -23.172 -15.612  0.00  0.00    -0.086 C 
ATOM     19  C   UNL     1      36.032 -23.173 -14.586  0.00  0.00    +0.090 C 
ENDBRANCH  16  17
ENDBRANCH  15  16
ENDBRANCH   6  15
TORSDOF 8
ENDMDL
MODEL 4
REMARK VINA RESULT:      -7.7      3.134      7.831
REMARK  Name = 23627203
REMARK  8 active torsions:
REMARK  status: ('A' for Active; 'I' for Inactive)
REMARK    1  A    between atoms: C_1  and  S_7
REMARK    2  A    between atoms: C_6  and  O_15
REMARK    3  A    between atoms: S_7  and  C_10
REMARK    4  A    between atoms: C_10  and  C_11
REMARK    5  A    between atoms: C_11  and  C_12
REMARK    6  A    between atoms: C_12  and  S_13
REMARK    7  A    between atoms: O_15  and  C_16
REMARK    8  A    between atoms: C_16  and  C_17
REMARK                            x       y       z     vdW  Elec       q    Type
REMARK                         _______ _______ _______ _____ _____    ______ ____
ROOT
ATOM      1  C   UNL     1      34.446 -21.451 -19.530  0.00  0.00    +0.106 C 
ATOM      2  C   UNL     1      33.631 -20.567 -20.238  0.00  0.00    +0.021 C 
ATOM      3  C   UNL     1      35.833 -21.301 -19.565  0.00  0.00    +0.021 C 
ATOM      4  C   UNL     1      34.203 -19.532 -20.979  0.00  0.00    +0.038 C 
ATOM      5  C   UNL     1      36.404 -20.265 -20.306  0.00  0.00    +0.038 C 
ATOM      6  C   UNL     1      35.588 -19.382 -21.014  0.00  0.00    +0.140 C 
ENDROOT
BRANCH   1   7
ATOM      7  S   UNL     1      33.722 -22.762 -18.591  0.00  0.00    +0.009 S 
ATOM      8  O   UNL     1      32.379 -22.337 -18.238  0.00  0.00    -0.169 OA
ATOM      9  O   UNL     1      33.932 -24.002 -19.317  0.00  0.00    -0.169 OA
BRANCH   7  10
ATOM     10  C   UNL     1      34.701 -22.824 -17.122  0.00  0.00    +0.157 C 
BRANCH  10  11
ATOM     11  C   UNL     1      33.967 -23.550 -16.002  0.00  0.00    +0.037 C 
BRANCH  11  12
ATOM     12  C   UNL     1      34.890 -24.114 -14.924  0.00  0.00    +0.055 C 
BRANCH  12  13
ATOM     13  S   UNL     1      36.647 -23.780 -15.240  0.00  0.00    -0.168 S 
ATOM     14  H   UNL     1      37.235 -23.325 -14.101  0.00  0.00    +0.102 HD
ENDBRANCH  12  13
ENDBRANCH  11  12
ENDBRANCH  10  11
ENDBRANCH   7  10
ENDBRANCH   1   7
BRANCH   6  15
ATOM     15  O   UNL     1      36.146 -18.372 -21.735  0.00  0.00    -0.461 OA
BRANCH  15  16
ATOM     16  C   UNL     1      35.571 -18.092 -23.011  0.00  0.00    +0.281 C 
BRANCH  16  17
ATOM     17  C   UNL     1      35.093 -16.710 -23.045  0.00  0.00    -0.044 C 
ATOM     18  C   UNL     1      34.701 -15.575 -23.071  0.00  0.00    -0.086 C 
ATOM     19  C   UNL     1      34.224 -14.193 -23.102  0.00  0.00    +0.090 C 
ENDBRANCH  16  17
ENDBRANCH  15  16
ENDBRANCH   6  15
TORSDOF 8
ENDMDL
MODEL 5
REMARK VINA RESULT:      -7.7      3.229      7.447
REMARK  Name = 23627203
REMARK  8 active torsions:
REMARK  status: ('A' for Active; 'I' for Inactive)
REMARK    1  A    between atoms: C_1  and  S_7
REMARK    2  A    between atoms: C_6  and  O_15
REMARK    3  A    between atoms: S_7  and  C_10
REMARK    4  A    between atoms: C_10  and  C_11
REMARK    5  A    between atoms: C_11  and  C_12
REMARK    6  A    between atoms: C_12  and  S_13
REMARK    7  A    between atoms: O_15  and  C_16
REMARK    8  A    between atoms: C_16  and  C_17
REMARK                            x       y       z     vdW  Elec       q    Type
REMARK                         _______ _______ _______ _____ _____    ______ ____
ROOT
ATOM      1  C   UNL     1      34.054 -21.594 -19.332  0.00  0.00    +0.106 C 
ATOM      2  C   UNL     1      32.919 -20.899 -19.752  0.00  0.00    +0.021 C 
ATOM      3  C   UNL     1      35.317 -21.195 -19.769  0.00  0.00    +0.021 C 
ATOM      4  C   UNL     1      33.048 -19.805 -20.608  0.00  0.00    +0.038 C 
ATOM      5  C   UNL     1      35.445 -20.101 -20.624  0.00  0.00    +0.038 C 
ATOM      6  C   UNL     1      34.311 -19.406 -21.045  0.00  0.00    +0.140 C 
ENDROOT
BRANCH   1   7
ATOM      7  S   UNL     1      33.890 -22.980 -18.247  0.00  0.00    +0.009 S 
ATOM      8  O   UNL     1      33.787 -24.162 -19.083  0.00  0.00    -0.169 OA
ATOM      9  O   UNL     1      34.930 -22.884 -17.238  0.00  0.00    -0.169 OA
BRANCH   7  10
ATOM     10  C   UNL     1      32.337 -22.714 -17.448  0.00  0.00    +0.157 C 
BRANCH  10  11
ATOM     11  C   UNL     1      32.323 -23.328 -16.054  0.00  0.00    +0.037 C 
BRANCH  11  12
ATOM     12  C   UNL     1      31.006 -24.013 -15.695  0.00  0.00    +0.055 C 
BRANCH  12  13
ATOM     13  S   UNL     1      29.549 -22.987 -16.041  0.00  0.00    -0.168 S 
ATOM     14  H   UNL     1      29.924 -21.889 -16.752  0.00  0.00    +0.102 HD
ENDBRANCH  12  13
ENDBRANCH  11  12
ENDBRANCH  10  11
ENDBRANCH   7  10
ENDBRANCH   1   7
BRANCH   6  15
ATOM     15  O   UNL     1      34.437 -18.338 -21.879  0.00  0.00    -0.461 OA
BRANCH  15  16
ATOM     16  C   UNL     1      35.173 -17.217 -21.390  0.00  0.00    +0.281 C 
BRANCH  16  17
ATOM     17  C   UNL     1      34.262 -16.102 -21.137  0.00  0.00    -0.044 C 
ATOM     18  C   UNL     1      33.512 -15.186 -20.930  0.00  0.00    -0.086 C 
ATOM     19  C   UNL     1      32.599 -14.072 -20.678  0.00  0.00    +0.090 C 
ENDBRANCH  16  17
ENDBRANCH  15  16
ENDBRANCH   6  15
TORSDOF 8
ENDMDL
MODEL 6
REMARK VINA RESULT:      -7.6      5.624      9.247
REMARK  Name = 23627203
REMARK  8 active torsions:
REMARK  status: ('A' for Active; 'I' for Inactive)
REMARK    1  A    between atoms: C_1  and  S_7
REMARK    2  A    between atoms: C_6  and  O_15
REMARK    3  A    between atoms: S_7  and  C_10
REMARK    4  A    between atoms: C_10  and  C_11
REMARK    5  A    between atoms: C_11  and  C_12
REMARK    6  A    between atoms: C_12  and  S_13
REMARK    7  A    between atoms: O_15  and  C_16
REMARK    8  A    between atoms: C_16  and  C_17
REMARK                            x       y       z     vdW  Elec       q    Type
REMARK                         _______ _______ _______ _____ _____    ______ ____
ROOT
ATOM      1  C   UNL     1      36.158 -23.347 -13.791  0.00  0.00    +0.106 C 
ATOM      2  C   UNL     1      37.144 -22.864 -14.651  0.00  0.00    +0.021 C 
ATOM      3  C   UNL     1      34.869 -23.580 -14.269  0.00  0.00    +0.021 C 
ATOM      4  C   UNL     1      36.841 -22.617 -15.990  0.00  0.00    +0.038 C 
ATOM      5  C   UNL     1      34.567 -23.333 -15.608  0.00  0.00    +0.038 C 
ATOM      6  C   UNL     1      35.553 -22.850 -16.469  0.00  0.00    +0.140 C 
ENDROOT
BRANCH   1   7
ATOM      7  S   UNL     1      36.542 -23.661 -12.094  0.00  0.00    +0.009 S 
ATOM      8  O   UNL     1      37.156 -22.455 -11.568  0.00  0.00    -0.169 OA
ATOM      9  O   UNL     1      35.358 -24.216 -11.462  0.00  0.00    -0.169 OA
BRANCH   7  10
ATOM     10  C   UNL     1      37.764 -24.935 -12.163  0.00  0.00    +0.157 C 
BRANCH  10  11
ATOM     11  C   UNL     1      37.232 -26.169 -12.882  0.00  0.00    +0.037 C 
BRANCH  11  12
ATOM     12  C   UNL     1      37.914 -26.445 -14.220  0.00  0.00    +0.055 C 
BRANCH  12  13
ATOM     13  S   UNL     1      39.567 -25.704 -14.347  0.00  0.00    -0.168 S 
ATOM     14  H   UNL     1      39.925 -25.183 -13.142  0.00  0.00    +0.102 HD
ENDBRANCH  12  13
ENDBRANCH  11  12
ENDBRANCH  10  11
ENDBRANCH   7  10
ENDBRANCH   1   7
BRANCH   6  15
ATOM     15  O   UNL     1      35.258 -22.610 -17.775  0.00  0.00    -0.461 OA
BRANCH  15  16
ATOM     16  C   UNL     1      33.900 -22.789 -18.177  0.00  0.00    +0.281 C 
BRANCH  16  17
ATOM     17  C   UNL     1      33.521 -21.737 -19.119  0.00  0.00    -0.044 C 
ATOM     18  C   UNL     1      33.211 -20.871 -19.892  0.00  0.00    -0.086 C 
ATOM     19  C   UNL     1      32.834 -19.818 -20.834  0.00  0.00    +0.090 C 
ENDBRANCH  16  17
ENDBRANCH  15  16
ENDBRANCH   6  15
TORSDOF 8
ENDMDL
MODEL 7
REMARK VINA RESULT:      -7.5      2.024      2.308
REMARK  Name = 23627203
REMARK  8 active torsions:
REMARK  status: ('A' for Active; 'I' for Inactive)
REMARK    1  A    between atoms: C_1  and  S_7
REMARK    2  A    between atoms: C_6  and  O_15
REMARK    3  A    between atoms: S_7  and  C_10
REMARK    4  A    between atoms: C_10  and  C_11
REMARK    5  A    between atoms: C_11  and  C_12
REMARK    6  A    between atoms: C_12  and  S_13
REMARK    7  A    between atoms: O_15  and  C_16
REMARK    8  A    between atoms: C_16  and  C_17
REMARK                            x       y       z     vdW  Elec       q    Type
REMARK                         _______ _______ _______ _____ _____    ______ ____
ROOT
ATOM      1  C   UNL     1      34.840 -20.000 -20.782  0.00  0.00    +0.106 C 
ATOM      2  C   UNL     1      33.565 -20.429 -20.413  0.00  0.00    +0.021 C 
ATOM      3  C   UNL     1      35.968 -20.617 -20.239  0.00  0.00    +0.021 C 
ATOM      4  C   UNL     1      33.417 -21.477 -19.504  0.00  0.00    +0.038 C 
ATOM      5  C   UNL     1      35.819 -21.665 -19.331  0.00  0.00    +0.038 C 
ATOM      6  C   UNL     1      34.544 -22.094 -18.962  0.00  0.00    +0.140 C 
ENDROOT
BRANCH   1   7
ATOM      7  S   UNL     1      35.028 -18.673 -21.934  0.00  0.00    +0.009 S 
ATOM      8  O   UNL     1      36.407 -18.228 -21.848  0.00  0.00    -0.169 OA
ATOM      9  O   UNL     1      34.475 -19.103 -23.206  0.00  0.00    -0.169 OA
BRANCH   7  10
ATOM     10  C   UNL     1      33.982 -17.402 -21.294  0.00  0.00    +0.157 C 
BRANCH  10  11
ATOM     11  C   UNL     1      34.801 -16.244 -20.735  0.00  0.00    +0.037 C 
BRANCH  11  12
ATOM     12  C   UNL     1      34.166 -14.874 -20.961  0.00  0.00    +0.055 C 
BRANCH  12  13
ATOM     13  S   UNL     1      34.224 -14.336 -22.695  0.00  0.00    -0.168 S 
ATOM     14  H   UNL     1      35.402 -14.724 -23.252  0.00  0.00    +0.102 HD
ENDBRANCH  12  13
ENDBRANCH  11  12
ENDBRANCH  10  11
ENDBRANCH   7  10
ENDBRANCH   1   7
BRANCH   6  15
ATOM     15  O   UNL     1      34.400 -23.117 -18.076  0.00  0.00    -0.461 OA
BRANCH  15  16
ATOM     16  C   UNL     1      33.184 -23.162 -17.330  0.00  0.00    +0.281 C 
BRANCH  16  17
ATOM     17  C   UNL     1      33.474 -23.496 -15.936  0.00  0.00    -0.044 C 
ATOM     18  C   UNL     1      33.711 -23.769 -14.790  0.00  0.00    -0.086 C 
ATOM     19  C   UNL     1      33.999 -24.100 -13.395  0.00  0.00    +0.090 C 
ENDBRANCH  16  17
ENDBRANCH  15  16
ENDBRANCH   6  15
TORSDOF 8
ENDMDL
MODEL 8
REMARK VINA RESULT:      -7.5      3.960      7.818
REMARK  Name = 23627203
REMARK  8 active torsions:
REMARK  status: ('A' for Active; 'I' for Inactive)
REMARK    1  A    between atoms: C_1  and  S_7
REMARK    2  A    between atoms: C_6  and  O_15
REMARK    3  A    between atoms: S_7  and  C_10
REMARK    4  A    between atoms: C_10  and  C_11
REMARK    5  A    between atoms: C_11  and  C_12
REMARK    6  A    between atoms: C_12  and  S_13
REMARK    7  A    between atoms: O_15  and  C_16
REMARK    8  A    between atoms: C_16  and  C_17
REMARK                            x       y       z     vdW  Elec       q    Type
REMARK                         _______ _______ _______ _____ _____    ______ ____
ROOT
ATOM      1  C   UNL     1      35.005 -16.794 -22.061  0.00  0.00    +0.106 C 
ATOM      2  C   UNL     1      34.836 -16.290 -23.351  0.00  0.00    +0.021 C 
ATOM      3  C   UNL     1      34.659 -16.016 -20.957  0.00  0.00    +0.021 C 
ATOM      4  C   UNL     1      34.317 -15.008 -23.536  0.00  0.00    +0.038 C 
ATOM      5  C   UNL     1      34.140 -14.734 -21.143  0.00  0.00    +0.038 C 
ATOM      6  C   UNL     1      33.970 -14.230 -22.433  0.00  0.00    +0.140 C 
ENDROOT
BRANCH   1   7
ATOM      7  S   UNL     1      35.662 -18.419 -21.826  0.00  0.00    +0.009 S 
ATOM      8  O   UNL     1      36.566 -18.674 -22.933  0.00  0.00    -0.169 OA
ATOM      9  O   UNL     1      36.133 -18.519 -20.456  0.00  0.00    -0.169 OA
BRANCH   7  10
ATOM     10  C   UNL     1      34.255 -19.474 -21.991  0.00  0.00    +0.157 C 
BRANCH  10  11
ATOM     11  C   UNL     1      33.464 -19.544 -20.690  0.00  0.00    +0.037 C 
BRANCH  11  12
ATOM     12  C   UNL     1      33.284 -20.962 -20.153  0.00  0.00    +0.055 C 
BRANCH  12  13
ATOM     13  S   UNL     1      34.797 -21.643 -19.413  0.00  0.00    -0.168 S 
ATOM     14  H   UNL     1      35.837 -21.479 -20.274  0.00  0.00    +0.102 HD
ENDBRANCH  12  13
ENDBRANCH  11  12
ENDBRANCH  10  11
ENDBRANCH   7  10
ENDBRANCH   1   7
BRANCH   6  15
ATOM     15  O   UNL     1      33.464 -12.980 -22.613  0.00  0.00    -0.461 OA
BRANCH  15  16
ATOM     16  C   UNL     1      32.054 -12.823 -22.455  0.00  0.00    +0.281 C 
BRANCH  16  17
ATOM     17  C   UNL     1      31.775 -12.083 -21.225  0.00  0.00    -0.044 C 
ATOM     18  C   UNL     1      31.545 -11.475 -20.215  0.00  0.00    -0.086 C 
ATOM     19  C   UNL     1      31.265 -10.734 -18.986  0.00  0.00    +0.090 C 
ENDBRANCH  16  17
ENDBRANCH  15  16
ENDBRANCH   6  15
TORSDOF 8
ENDMDL
MODEL 9
REMARK VINA RESULT:      -7.4      4.130      6.070
REMARK  Name = 23627203
REMARK  8 active torsions:
REMARK  status: ('A' for Active; 'I' for Inactive)
REMARK    1  A    between atoms: C_1  and  S_7
REMARK    2  A    between atoms: C_6  and  O_15
REMARK    3  A    between atoms: S_7  and  C_10
REMARK    4  A    between atoms: C_10  and  C_11
REMARK    5  A    between atoms: C_11  and  C_12
REMARK    6  A    between atoms: C_12  and  S_13
REMARK    7  A    between atoms: O_15  and  C_16
REMARK    8  A    between atoms: C_16  and  C_17
REMARK                            x       y       z     vdW  Elec       q    Type
REMARK                         _______ _______ _______ _____ _____    ______ ____
ROOT
ATOM      1  C   UNL     1      34.917 -22.635 -17.427  0.00  0.00    +0.106 C 
ATOM      2  C   UNL     1      34.429 -23.211 -16.253  0.00  0.00    +0.021 C 
ATOM      3  C   UNL     1      36.216 -22.130 -17.467  0.00  0.00    +0.021 C 
ATOM      4  C   UNL     1      35.241 -23.283 -15.121  0.00  0.00    +0.038 C 
ATOM      5  C   UNL     1      37.028 -22.203 -16.335  0.00  0.00    +0.038 C 
ATOM      6  C   UNL     1      36.540 -22.779 -15.162  0.00  0.00    +0.140 C 
ENDROOT
BRANCH   1   7
ATOM      7  S   UNL     1      33.888 -22.544 -18.861  0.00  0.00    +0.009 S 
ATOM      8  O   UNL     1      34.090 -23.774 -19.606  0.00  0.00    -0.169 OA
ATOM      9  O   UNL     1      32.555 -22.157 -18.433  0.00  0.00    -0.169 OA
BRANCH   7  10
ATOM     10  C   UNL     1      34.567 -21.202 -19.788  0.00  0.00    +0.157 C 
BRANCH  10  11
ATOM     11  C   UNL     1      33.467 -20.309 -20.349  0.00  0.00    +0.037 C 
BRANCH  11  12
ATOM     12  C   UNL     1      33.887 -19.517 -21.586  0.00  0.00    +0.055 C 
BRANCH  12  13
ATOM     13  S   UNL     1      35.183 -18.292 -21.245  0.00  0.00    -0.168 S 
ATOM     14  H   UNL     1      34.699 -17.341 -20.400  0.00  0.00    +0.102 HD
ENDBRANCH  12  13
ENDBRANCH  11  12
ENDBRANCH  10  11
ENDBRANCH   7  10
ENDBRANCH   1   7
BRANCH   6  15
ATOM     15  O   UNL     1      37.333 -22.850 -14.058  0.00  0.00    -0.461 OA
BRANCH  15  16
ATOM     16  C   UNL     1      37.335 -24.083 -13.340  0.00  0.00    +0.281 C 
BRANCH  16  17
ATOM     17  C   UNL     1      38.519 -24.862 -13.701  0.00  0.00    -0.044 C 
ATOM     18  C   UNL     1      39.492 -25.501 -14.000  0.00  0.00    -0.086 C 
ATOM     19  C   UNL     1      40.675 -26.280 -14.363  0.00  0.00    +0.090 C 
ENDBRANCH  16  17
ENDBRANCH  15  16
ENDBRANCH   6  15
TORSDOF 8
ENDMDL
