MODEL 1
REMARK VINA RESULT:      -6.6      0.000      0.000
REMARK  Name = 10219851
REMARK  5 active torsions:
REMARK  status: ('A' for Active; 'I' for Inactive)
REMARK    1  A    between atoms: C_1  and  C_8
REMARK    2  A    between atoms: C_2  and  O_11
REMARK    3  A    between atoms: O_11  and  C_12
REMARK    4  A    between atoms: C_12  and  C_13
REMARK    5  A    between atoms: C_13  and  O_14
REMARK                            x       y       z     vdW  Elec       q    Type
REMARK                         _______ _______ _______ _____ _____    ______ ____
ROOT
ATOM      1  C   UNL     1      34.698 -18.554 -21.731  0.00  0.00    +0.027 C 
ATOM      2  C   UNL     1      35.312 -17.150 -21.855  0.00  0.00    +0.115 C 
ATOM      3  C   UNL     1      34.906 -19.357 -23.020  0.00  0.00    +0.002 C 
ATOM      4  C   UNL     1      35.000 -17.218 -24.373  0.00  0.00    +0.002 C 
ATOM      5  C   UNL     1      34.786 -16.411 -23.088  0.00  0.00    +0.030 C 
ATOM      6  C   UNL     1      34.377 -18.613 -24.245  0.00  0.00    +0.000 C 
ATOM      7  C   UNL     1      34.424 -16.478 -25.578  0.00  0.00    +0.000 C 
ENDROOT
BRANCH   1   8
ATOM      8  C   UNL     1      35.276 -19.312 -20.533  0.00  0.00    +0.002 C 
ATOM      9  C   UNL     1      34.544 -20.636 -20.337  0.00  0.00    +0.000 C 
ATOM     10  C   UNL     1      36.772 -19.545 -20.722  0.00  0.00    +0.000 C 
ENDBRANCH   1   8
BRANCH   2  11
ATOM     11  O   UNL     1      34.992 -16.389 -20.693  0.00  0.00    -0.354 OA
BRANCH  11  12
ATOM     12  C   UNL     1      34.412 -15.140 -21.035  0.00  0.00    +0.174 C 
BRANCH  12  13
ATOM     13  C   UNL     1      33.072 -15.009 -20.337  0.00  0.00    +0.169 C 
BRANCH  13  14
ATOM     14  O   UNL     1      32.076 -15.658 -21.120  0.00  0.00    -0.379 OA
ATOM     15  H   UNL     1      31.976 -16.575 -20.820  0.00  0.00    +0.211 HD
ENDBRANCH  13  14
ENDBRANCH  12  13
ENDBRANCH  11  12
ENDBRANCH   2  11
TORSDOF 5
ENDMDL
MODEL 2
REMARK VINA RESULT:      -6.5      2.515      4.394
REMARK  Name = 10219851
REMARK  5 active torsions:
REMARK  status: ('A' for Active; 'I' for Inactive)
REMARK    1  A    between atoms: C_1  and  C_8
REMARK    2  A    between atoms: C_2  and  O_11
REMARK    3  A    between atoms: O_11  and  C_12
REMARK    4  A    between atoms: C_12  and  C_13
REMARK    5  A    between atoms: C_13  and  O_14
REMARK                            x       y       z     vdW  Elec       q    Type
REMARK                         _______ _______ _______ _____ _____    ______ ____
ROOT
ATOM      1  C   UNL     1      33.833 -16.130 -22.500  0.00  0.00    +0.027 C 
ATOM      2  C   UNL     1      34.336 -15.935 -23.940  0.00  0.00    +0.115 C 
ATOM      3  C   UNL     1      34.598 -17.262 -21.803  0.00  0.00    +0.002 C 
ATOM      4  C   UNL     1      35.057 -18.367 -24.035  0.00  0.00    +0.002 C 
ATOM      5  C   UNL     1      34.289 -17.241 -24.736  0.00  0.00    +0.030 C 
ATOM      6  C   UNL     1      34.543 -18.561 -22.603  0.00  0.00    +0.000 C 
ATOM      7  C   UNL     1      34.951 -19.668 -24.828  0.00  0.00    +0.000 C 
ENDROOT
BRANCH   1   8
ATOM      8  C   UNL     1      33.945 -14.835 -21.690  0.00  0.00    +0.002 C 
ATOM      9  C   UNL     1      32.562 -14.240 -21.444  0.00  0.00    +0.000 C 
ATOM     10  C   UNL     1      34.665 -15.094 -20.370  0.00  0.00    +0.000 C 
ENDBRANCH   1   8
BRANCH   2  11
ATOM     11  O   UNL     1      33.523 -14.966 -24.598  0.00  0.00    -0.354 OA
BRANCH  11  12
ATOM     12  C   UNL     1      33.438 -15.223 -25.992  0.00  0.00    +0.174 C 
BRANCH  12  13
ATOM     13  C   UNL     1      32.967 -13.965 -26.697  0.00  0.00    +0.169 C 
BRANCH  13  14
ATOM     14  O   UNL     1      33.850 -13.680 -27.776  0.00  0.00    -0.379 OA
ATOM     15  H   UNL     1      34.632 -14.251 -27.713  0.00  0.00    +0.211 HD
ENDBRANCH  13  14
ENDBRANCH  12  13
ENDBRANCH  11  12
ENDBRANCH   2  11
TORSDOF 5
ENDMDL
MODEL 3
REMARK VINA RESULT:      -6.3      3.237      5.734
REMARK  Name = 10219851
REMARK  5 active torsions:
REMARK  status: ('A' for Active; 'I' for Inactive)
REMARK    1  A    between atoms: C_1  and  C_8
REMARK    2  A    between atoms: C_2  and  O_11
REMARK    3  A    between atoms: O_11  and  C_12
REMARK    4  A    between atoms: C_12  and  C_13
REMARK    5  A    between atoms: C_13  and  O_14
REMARK                            x       y       z     vdW  Elec       q    Type
REMARK                         _______ _______ _______ _____ _____    ______ ____
ROOT
ATOM      1  C   UNL     1      32.876 -14.396 -22.799  0.00  0.00    +0.027 C 
ATOM      2  C   UNL     1      33.568 -14.757 -24.123  0.00  0.00    +0.115 C 
ATOM      3  C   UNL     1      33.836 -14.572 -21.616  0.00  0.00    +0.002 C 
ATOM      4  C   UNL     1      35.139 -16.327 -22.895  0.00  0.00    +0.002 C 
ATOM      5  C   UNL     1      34.179 -16.159 -24.078  0.00  0.00    +0.030 C 
ATOM      6  C   UNL     1      34.439 -15.975 -21.577  0.00  0.00    +0.000 C 
ATOM      7  C   UNL     1      35.695 -17.748 -22.848  0.00  0.00    +0.000 C 
ENDROOT
BRANCH   1   8
ATOM      8  C   UNL     1      32.324 -12.969 -22.828  0.00  0.00    +0.002 C 
ATOM      9  C   UNL     1      31.931 -12.521 -21.423  0.00  0.00    +0.000 C 
ATOM     10  C   UNL     1      33.349 -12.013 -23.432  0.00  0.00    +0.000 C 
ENDBRANCH   1   8
BRANCH   2  11
ATOM     11  O   UNL     1      32.616 -14.705 -25.184  0.00  0.00    -0.354 OA
BRANCH  11  12
ATOM     12  C   UNL     1      33.250 -14.770 -26.452  0.00  0.00    +0.174 C 
BRANCH  12  13
ATOM     13  C   UNL     1      33.259 -13.385 -27.071  0.00  0.00    +0.169 C 
BRANCH  13  14
ATOM     14  O   UNL     1      34.319 -13.307 -28.018  0.00  0.00    -0.379 OA
ATOM     15  H   UNL     1      34.285 -14.079 -28.605  0.00  0.00    +0.211 HD
ENDBRANCH  13  14
ENDBRANCH  12  13
ENDBRANCH  11  12
ENDBRANCH   2  11
TORSDOF 5
ENDMDL
MODEL 4
REMARK VINA RESULT:      -6.3      2.659      4.527
REMARK  Name = 10219851
REMARK  5 active torsions:
REMARK  status: ('A' for Active; 'I' for Inactive)
REMARK    1  A    between atoms: C_1  and  C_8
REMARK    2  A    between atoms: C_2  and  O_11
REMARK    3  A    between atoms: O_11  and  C_12
REMARK    4  A    between atoms: C_12  and  C_13
REMARK    5  A    between atoms: C_13  and  O_14
REMARK                            x       y       z     vdW  Elec       q    Type
REMARK                         _______ _______ _______ _____ _____    ______ ____
ROOT
ATOM      1  C   UNL     1      34.928 -16.256 -22.778  0.00  0.00    +0.027 C 
ATOM      2  C   UNL     1      33.801 -15.622 -23.608  0.00  0.00    +0.115 C 
ATOM      3  C   UNL     1      34.463 -16.527 -21.342  0.00  0.00    +0.002 C 
ATOM      4  C   UNL     1      32.775 -14.646 -21.503  0.00  0.00    +0.002 C 
ATOM      5  C   UNL     1      33.241 -14.367 -22.935  0.00  0.00    +0.030 C 
ATOM      6  C   UNL     1      33.907 -15.269 -20.677  0.00  0.00    +0.000 C 
ATOM      7  C   UNL     1      32.266 -13.367 -20.841  0.00  0.00    +0.000 C 
ENDROOT
BRANCH   1   8
ATOM      8  C   UNL     1      35.440 -17.547 -23.423  0.00  0.00    +0.002 C 
ATOM      9  C   UNL     1      36.251 -18.359 -22.419  0.00  0.00    +0.000 C 
ATOM     10  C   UNL     1      34.275 -18.368 -23.968  0.00  0.00    +0.000 C 
ENDBRANCH   1   8
BRANCH   2  11
ATOM     11  O   UNL     1      34.303 -15.268 -24.895  0.00  0.00    -0.354 OA
BRANCH  11  12
ATOM     12  C   UNL     1      33.288 -15.340 -25.885  0.00  0.00    +0.174 C 
BRANCH  12  13
ATOM     13  C   UNL     1      33.074 -13.959 -26.474  0.00  0.00    +0.169 C 
BRANCH  13  14
ATOM     14  O   UNL     1      33.796 -13.859 -27.697  0.00  0.00    -0.379 OA
ATOM     15  H   UNL     1      33.609 -13.003 -28.113  0.00  0.00    +0.211 HD
ENDBRANCH  13  14
ENDBRANCH  12  13
ENDBRANCH  11  12
ENDBRANCH   2  11
TORSDOF 5
ENDMDL
MODEL 5
REMARK VINA RESULT:      -6.3      1.907      3.971
REMARK  Name = 10219851
REMARK  5 active torsions:
REMARK  status: ('A' for Active; 'I' for Inactive)
REMARK    1  A    between atoms: C_1  and  C_8
REMARK    2  A    between atoms: C_2  and  O_11
REMARK    3  A    between atoms: O_11  and  C_12
REMARK    4  A    between atoms: C_12  and  C_13
REMARK    5  A    between atoms: C_13  and  O_14
REMARK                            x       y       z     vdW  Elec       q    Type
REMARK                         _______ _______ _______ _____ _____    ______ ____
ROOT
ATOM      1  C   UNL     1      34.881 -17.013 -21.964  0.00  0.00    +0.027 C 
ATOM      2  C   UNL     1      34.364 -18.443 -21.737  0.00  0.00    +0.115 C 
ATOM      3  C   UNL     1      34.482 -16.503 -23.353  0.00  0.00    +0.002 C 
ATOM      4  C   UNL     1      34.408 -18.874 -24.237  0.00  0.00    +0.002 C 
ATOM      5  C   UNL     1      34.813 -19.389 -22.852  0.00  0.00    +0.030 C 
ATOM      6  C   UNL     1      34.936 -17.452 -24.460  0.00  0.00    +0.000 C 
ATOM      7  C   UNL     1      34.911 -19.814 -25.331  0.00  0.00    +0.000 C 
ENDROOT
BRANCH   1   8
ATOM      8  C   UNL     1      34.374 -16.057 -20.880  0.00  0.00    +0.002 C 
ATOM      9  C   UNL     1      34.775 -14.622 -21.207  0.00  0.00    +0.000 C 
ATOM     10  C   UNL     1      32.860 -16.175 -20.732  0.00  0.00    +0.000 C 
ENDBRANCH   1   8
BRANCH   2  11
ATOM     11  O   UNL     1      34.858 -18.932 -20.492  0.00  0.00    -0.354 OA
BRANCH  11  12
ATOM     12  C   UNL     1      34.630 -20.327 -20.357  0.00  0.00    +0.174 C 
BRANCH  12  13
ATOM     13  C   UNL     1      33.171 -20.558 -20.012  0.00  0.00    +0.169 C 
BRANCH  13  14
ATOM     14  O   UNL     1      32.951 -21.953 -19.833  0.00  0.00    -0.379 OA
ATOM     15  H   UNL     1      31.998 -22.130 -19.816  0.00  0.00    +0.211 HD
ENDBRANCH  13  14
ENDBRANCH  12  13
ENDBRANCH  11  12
ENDBRANCH   2  11
TORSDOF 5
ENDMDL
MODEL 6
REMARK VINA RESULT:      -6.3      6.797      9.882
REMARK  Name = 10219851
REMARK  5 active torsions:
REMARK  status: ('A' for Active; 'I' for Inactive)
REMARK    1  A    between atoms: C_1  and  C_8
REMARK    2  A    between atoms: C_2  and  O_11
REMARK    3  A    between atoms: O_11  and  C_12
REMARK    4  A    between atoms: C_12  and  C_13
REMARK    5  A    between atoms: C_13  and  O_14
REMARK                            x       y       z     vdW  Elec       q    Type
REMARK                         _______ _______ _______ _____ _____    ______ ____
ROOT
ATOM      1  C   UNL     1      30.584 -23.797 -15.852  0.00  0.00    +0.027 C 
ATOM      2  C   UNL     1      31.796 -22.882 -16.089  0.00  0.00    +0.115 C 
ATOM      3  C   UNL     1      30.411 -24.099 -14.359  0.00  0.00    +0.002 C 
ATOM      4  C   UNL     1      32.890 -23.754 -13.972  0.00  0.00    +0.002 C 
ATOM      5  C   UNL     1      33.068 -23.458 -15.464  0.00  0.00    +0.030 C 
ATOM      6  C   UNL     1      31.685 -24.676 -13.744  0.00  0.00    +0.000 C 
ATOM      7  C   UNL     1      34.159 -24.372 -13.388  0.00  0.00    +0.000 C 
ENDROOT
BRANCH   1   8
ATOM      8  C   UNL     1      29.301 -23.184 -16.422  0.00  0.00    +0.002 C 
ATOM      9  C   UNL     1      28.340 -24.281 -16.869  0.00  0.00    +0.000 C 
ATOM     10  C   UNL     1      28.641 -22.274 -15.390  0.00  0.00    +0.000 C 
ENDBRANCH   1   8
BRANCH   2  11
ATOM     11  O   UNL     1      32.003 -22.724 -17.491  0.00  0.00    -0.354 OA
BRANCH  11  12
ATOM     12  C   UNL     1      33.326 -23.081 -17.862  0.00  0.00    +0.174 C 
BRANCH  12  13
ATOM     13  C   UNL     1      33.813 -22.125 -18.934  0.00  0.00    +0.169 C 
BRANCH  13  14
ATOM     14  O   UNL     1      32.746 -21.860 -19.839  0.00  0.00    -0.379 OA
ATOM     15  H   UNL     1      32.965 -22.225 -20.711  0.00  0.00    +0.211 HD
ENDBRANCH  13  14
ENDBRANCH  12  13
ENDBRANCH  11  12
ENDBRANCH   2  11
TORSDOF 5
ENDMDL
MODEL 7
REMARK VINA RESULT:      -6.2      5.779      8.685
REMARK  Name = 10219851
REMARK  5 active torsions:
REMARK  status: ('A' for Active; 'I' for Inactive)
REMARK    1  A    between atoms: C_1  and  C_8
REMARK    2  A    between atoms: C_2  and  O_11
REMARK    3  A    between atoms: O_11  and  C_12
REMARK    4  A    between atoms: C_12  and  C_13
REMARK    5  A    between atoms: C_13  and  O_14
REMARK                            x       y       z     vdW  Elec       q    Type
REMARK                         _______ _______ _______ _____ _____    ______ ____
ROOT
ATOM      1  C   UNL     1      34.399 -23.218 -15.443  0.00  0.00    +0.027 C 
ATOM      2  C   UNL     1      33.784 -23.440 -16.834  0.00  0.00    +0.115 C 
ATOM      3  C   UNL     1      33.506 -23.815 -14.349  0.00  0.00    +0.002 C 
ATOM      4  C   UNL     1      31.462 -23.517 -15.814  0.00  0.00    +0.002 C 
ATOM      5  C   UNL     1      32.349 -22.914 -16.908  0.00  0.00    +0.030 C 
ATOM      6  C   UNL     1      32.076 -23.283 -14.429  0.00  0.00    +0.000 C 
ATOM      7  C   UNL     1      30.050 -22.939 -15.883  0.00  0.00    +0.000 C 
ENDROOT
BRANCH   1   8
ATOM      8  C   UNL     1      35.811 -23.805 -15.356  0.00  0.00    +0.002 C 
ATOM      9  C   UNL     1      36.607 -23.115 -14.253  0.00  0.00    +0.000 C 
ATOM     10  C   UNL     1      35.748 -25.310 -15.116  0.00  0.00    +0.000 C 
ENDBRANCH   1   8
BRANCH   2  11
ATOM     11  O   UNL     1      34.571 -22.766 -17.813  0.00  0.00    -0.354 OA
BRANCH  11  12
ATOM     12  C   UNL     1      33.908 -22.718 -19.067  0.00  0.00    +0.174 C 
BRANCH  12  13
ATOM     13  C   UNL     1      34.034 -21.318 -19.639  0.00  0.00    +0.169 C 
BRANCH  13  14
ATOM     14  O   UNL     1      32.754 -20.695 -19.624  0.00  0.00    -0.379 OA
ATOM     15  H   UNL     1      32.829 -19.796 -19.982  0.00  0.00    +0.211 HD
ENDBRANCH  13  14
ENDBRANCH  12  13
ENDBRANCH  11  12
ENDBRANCH   2  11
TORSDOF 5
ENDMDL
MODEL 8
REMARK VINA RESULT:      -6.2      1.747      4.155
REMARK  Name = 10219851
REMARK  5 active torsions:
REMARK  status: ('A' for Active; 'I' for Inactive)
REMARK    1  A    between atoms: C_1  and  C_8
REMARK    2  A    between atoms: C_2  and  O_11
REMARK    3  A    between atoms: O_11  and  C_12
REMARK    4  A    between atoms: C_12  and  C_13
REMARK    5  A    between atoms: C_13  and  O_14
REMARK                            x       y       z     vdW  Elec       q    Type
REMARK                         _______ _______ _______ _____ _____    ______ ____
ROOT
ATOM      1  C   UNL     1      34.482 -15.779 -23.435  0.00  0.00    +0.027 C 
ATOM      2  C   UNL     1      33.985 -15.943 -21.989  0.00  0.00    +0.115 C 
ATOM      3  C   UNL     1      34.687 -17.145 -24.100  0.00  0.00    +0.002 C 
ATOM      4  C   UNL     1      35.107 -18.214 -21.842  0.00  0.00    +0.002 C 
ATOM      5  C   UNL     1      34.908 -16.850 -21.174  0.00  0.00    +0.030 C 
ATOM      6  C   UNL     1      35.612 -18.043 -23.280  0.00  0.00    +0.000 C 
ATOM      7  C   UNL     1      36.069 -19.078 -21.031  0.00  0.00    +0.000 C 
ENDROOT
BRANCH   1   8
ATOM      8  C   UNL     1      33.519 -14.924 -24.263  0.00  0.00    +0.002 C 
ATOM      9  C   UNL     1      33.969 -13.466 -24.266  0.00  0.00    +0.000 C 
ATOM     10  C   UNL     1      33.421 -15.462 -25.688  0.00  0.00    +0.000 C 
ENDBRANCH   1   8
BRANCH   2  11
ATOM     11  O   UNL     1      33.925 -14.664 -21.362  0.00  0.00    -0.354 OA
BRANCH  11  12
ATOM     12  C   UNL     1      32.714 -14.497 -20.640  0.00  0.00    +0.174 C 
BRANCH  12  13
ATOM     13  C   UNL     1      32.274 -13.049 -20.743  0.00  0.00    +0.169 C 
BRANCH  13  14
ATOM     14  O   UNL     1      31.585 -12.860 -21.975  0.00  0.00    -0.379 OA
ATOM     15  H   UNL     1      32.178 -12.434 -22.614  0.00  0.00    +0.211 HD
ENDBRANCH  13  14
ENDBRANCH  12  13
ENDBRANCH  11  12
ENDBRANCH   2  11
TORSDOF 5
ENDMDL
MODEL 9
REMARK VINA RESULT:      -6.2      3.322      6.401
REMARK  Name = 10219851
REMARK  5 active torsions:
REMARK  status: ('A' for Active; 'I' for Inactive)
REMARK    1  A    between atoms: C_1  and  C_8
REMARK    2  A    between atoms: C_2  and  O_11
REMARK    3  A    between atoms: O_11  and  C_12
REMARK    4  A    between atoms: C_12  and  C_13
REMARK    5  A    between atoms: C_13  and  O_14
REMARK                            x       y       z     vdW  Elec       q    Type
REMARK                         _______ _______ _______ _____ _____    ______ ____
ROOT
ATOM      1  C   UNL     1      32.121 -13.074 -22.080  0.00  0.00    +0.027 C 
ATOM      2  C   UNL     1      33.455 -13.209 -22.832  0.00  0.00    +0.115 C 
ATOM      3  C   UNL     1      32.296 -13.412 -20.594  0.00  0.00    +0.002 C 
ATOM      4  C   UNL     1      34.258 -14.917 -21.136  0.00  0.00    +0.002 C 
ATOM      5  C   UNL     1      34.084 -14.588 -22.622  0.00  0.00    +0.030 C 
ATOM      6  C   UNL     1      32.922 -14.790 -20.395  0.00  0.00    +0.000 C 
ATOM      7  C   UNL     1      34.844 -16.317 -20.959  0.00  0.00    +0.000 C 
ENDROOT
BRANCH   1   8
ATOM      8  C   UNL     1      31.529 -11.671 -22.240  0.00  0.00    +0.002 C 
ATOM      9  C   UNL     1      30.812 -11.247 -20.961  0.00  0.00    +0.000 C 
ATOM     10  C   UNL     1      32.622 -10.670 -22.604  0.00  0.00    +0.000 C 
ENDBRANCH   1   8
BRANCH   2  11
ATOM     11  O   UNL     1      33.233 -13.012 -24.227  0.00  0.00    -0.354 OA
BRANCH  11  12
ATOM     12  C   UNL     1      32.889 -14.228 -24.873  0.00  0.00    +0.174 C 
BRANCH  12  13
ATOM     13  C   UNL     1      33.060 -14.057 -26.370  0.00  0.00    +0.169 C 
BRANCH  13  14
ATOM     14  O   UNL     1      33.438 -15.306 -26.939  0.00  0.00    -0.379 OA
ATOM     15  H   UNL     1      34.318 -15.225 -27.340  0.00  0.00    +0.211 HD
ENDBRANCH  13  14
ENDBRANCH  12  13
ENDBRANCH  11  12
ENDBRANCH   2  11
TORSDOF 5
ENDMDL
